# generated using pymatgen
data_Na2MnFe(PO4)2
_symmetry_space_group_name_H-M   'P 1'
_cell_length_a   21.08098657
_cell_length_b   18.93255423
_cell_length_c   20.04030107
_cell_angle_alpha   89.99994372
_cell_angle_beta   90.00033419
_cell_angle_gamma   90.00114221
_symmetry_Int_Tables_number   1
_chemical_formula_structural   Na2MnFe(PO4)2
_chemical_formula_sum   'Na96 Mn48 Fe48 P96 O384'
_cell_volume   7998.42326888
_cell_formula_units_Z   48
loop_
 _symmetry_equiv_pos_site_id
 _symmetry_equiv_pos_as_xyz
  1  'x, y, z'
loop_
 _atom_site_type_symbol
 _atom_site_label
 _atom_site_symmetry_multiplicity
 _atom_site_fract_x
 _atom_site_fract_y
 _atom_site_fract_z
 _atom_site_occupancy
  Na  Na0  1  0.00082984  0.00028271  0.00018411  1
  Na  Na1  1  0.00075323  0.00049226  0.25003275  1
  Na  Na2  1  0.00094765  -0.00053457  0.50088299  1
  Na  Na3  1  0.00233474  0.00047346  0.74853550  1
  Na  Na4  1  -0.00127401  0.33326607  -0.00002451  1
  Na  Na5  1  -0.00037972  0.33361367  0.25150463  1
  Na  Na6  1  0.00154917  0.33446289  0.49864392  1
  Na  Na7  1  0.00057655  0.33324235  0.75007614  1
  Na  Na8  1  0.00091251  0.66713809  0.00055344  1
  Na  Na9  1  -0.00102436  0.66625418  0.24992221  1
  Na  Na10  1  -0.00096902  0.66629898  0.49934087  1
  Na  Na11  1  -0.00055084  0.66630367  0.75012102  1
  Na  Na12  1  0.50181842  0.00063303  -0.00021455  1
  Na  Na13  1  0.50165393  0.00060982  0.24985367  1
  Na  Na14  1  0.49612905  -0.00093838  0.50031114  1
  Na  Na15  1  0.49773955  -0.00082082  0.75042260  1
  Na  Na16  1  0.50274579  0.33382067  0.00043790  1
  Na  Na17  1  0.50009184  0.33315000  0.24921580  1
  Na  Na18  1  0.50007554  0.33294671  0.50059992  1
  Na  Na19  1  0.50318382  0.33448571  0.74995246  1
  Na  Na20  1  0.49827827  0.66619083  0.00068562  1
  Na  Na21  1  0.49838339  0.66595474  0.25039168  1
  Na  Na22  1  0.49897968  0.66661892  0.49979931  1
  Na  Na23  1  0.49931003  0.66694392  0.74916712  1
  Na  Na24  1  0.24771362  -0.00032835  0.12519335  1
  Na  Na25  1  0.25032925  0.00018453  0.37443228  1
  Na  Na26  1  0.25075810  0.00014078  0.62491478  1
  Na  Na27  1  0.24841169  -0.00019867  0.87524766  1
  Na  Na28  1  0.25032103  0.33406455  0.12609605  1
  Na  Na29  1  0.24921200  0.33353044  0.37477750  1
  Na  Na30  1  0.24854057  0.33287012  0.62371835  1
  Na  Na31  1  0.25112939  0.33419185  0.87555714  1
  Na  Na32  1  0.25285552  0.66680531  0.12407242  1
  Na  Na33  1  0.25265356  0.66685609  0.37495683  1
  Na  Na34  1  0.25331165  0.66754959  0.62477156  1
  Na  Na35  1  0.25258342  0.66688134  0.87521184  1
  Na  Na36  1  0.74769448  -0.00126376  0.12563607  1
  Na  Na37  1  0.75078064  0.00027790  0.37501987  1
  Na  Na38  1  0.75107875  -0.00002515  0.62454452  1
  Na  Na39  1  0.75084895  0.00060404  0.87481319  1
  Na  Na40  1  0.74959648  0.33375980  0.12585613  1
  Na  Na41  1  0.74845821  0.33300934  0.37533025  1
  Na  Na42  1  0.74931799  0.33384753  0.62526909  1
  Na  Na43  1  0.74750092  0.33262151  0.87374370  1
  Na  Na44  1  0.75023181  0.66682273  0.12518180  1
  Na  Na45  1  0.75044164  0.66680945  0.37635203  1
  Na  Na46  1  0.74731230  0.66634561  0.62427946  1
  Na  Na47  1  0.74777307  0.66687837  0.87447557  1
  Na  Na48  1  -0.00034665  0.16626362  0.00043944  1
  Na  Na49  1  0.00037340  0.16638444  0.25064575  1
  Na  Na50  1  0.00001954  0.16689471  0.49982071  1
  Na  Na51  1  0.00018553  0.16636050  0.74921258  1
  Na  Na52  1  0.00014357  0.50015604  0.00062584  1
  Na  Na53  1  0.00060986  0.49991249  0.24947909  1
  Na  Na54  1  0.00152207  0.49950012  0.49897665  1
  Na  Na55  1  0.00193101  0.49929580  0.74999579  1
  Na  Na56  1  0.00060158  0.83279318  -0.00038367  1
  Na  Na57  1  -0.00219885  0.83406774  0.25129043  1
  Na  Na58  1  -0.00007910  0.83308668  0.50000817  1
  Na  Na59  1  0.00165948  0.83240793  0.74973609  1
  Na  Na60  1  0.50177615  0.16677141  -0.00062785  1
  Na  Na61  1  0.50176608  0.16647366  0.25002232  1
  Na  Na62  1  0.49772135  0.16729474  0.50101932  1
  Na  Na63  1  0.49944772  0.16664337  0.75025101  1
  Na  Na64  1  0.49873640  0.50114417  0.00101731  1
  Na  Na65  1  0.50036762  0.49971596  0.25018646  1
  Na  Na66  1  0.50081272  0.49961335  0.50072923  1
  Na  Na67  1  0.50176370  0.49937570  0.74900042  1
  Na  Na68  1  0.50171459  0.83256203  0.00037156  1
  Na  Na69  1  0.49792462  0.83431998  0.24921683  1
  Na  Na70  1  0.49788622  0.83329894  0.49884509  1
  Na  Na71  1  0.50009855  0.83263879  0.75059905  1
  Na  Na72  1  0.24928482  0.16633457  0.12534962  1
  Na  Na73  1  0.24973893  0.16662181  0.37447142  1
  Na  Na74  1  0.25102943  0.16615248  0.62481756  1
  Na  Na75  1  0.24963551  0.16634368  0.87612917  1
  Na  Na76  1  0.25008636  0.50029721  0.12478876  1
  Na  Na77  1  0.24963346  0.49973790  0.37455661  1
  Na  Na78  1  0.24993399  0.50022717  0.62385622  1
  Na  Na79  1  0.25188973  0.49963292  0.87574632  1
  Na  Na80  1  0.25215511  0.83218925  0.12523332  1
  Na  Na81  1  0.25281940  0.83269187  0.37504161  1
  Na  Na82  1  0.25034166  0.83392960  0.62482708  1
  Na  Na83  1  0.25032511  0.83317226  0.87427739  1
  Na  Na84  1  0.74961560  0.16676744  0.12569301  1
  Na  Na85  1  0.75049213  0.16695453  0.37437906  1
  Na  Na86  1  0.75140995  0.16657559  0.62487251  1
  Na  Na87  1  0.74899673  0.16759048  0.87451827  1
  Na  Na88  1  0.74981165  0.49990140  0.12584101  1
  Na  Na89  1  0.74918519  0.49986470  0.37584078  1
  Na  Na90  1  0.74559894  0.50141723  0.62477549  1
  Na  Na91  1  0.74785141  0.50053645  0.87438927  1
  Na  Na92  1  0.74925772  0.83309024  0.12483217  1
  Na  Na93  1  0.75012833  0.83308554  0.37650528  1
  Na  Na94  1  0.75011593  0.83274748  0.62447051  1
  Na  Na95  1  0.74764588  0.83377144  0.87444314  1
  Mn  Mn96  1  0.60827357  0.41668965  0.12290832  1
  Mn  Mn97  1  0.14355094  0.58358476  0.99799559  1
  Mn  Mn98  1  0.89190528  0.58277961  0.12755570  1
  Mn  Mn99  1  0.60683624  0.08251683  0.62234917  1
  Mn  Mn100  1  0.14320458  0.58367014  0.74787706  1
  Mn  Mn101  1  0.35860699  0.41641023  0.75225222  1
  Mn  Mn102  1  0.85715804  0.41641831  0.00188444  1
  Mn  Mn103  1  0.89314156  0.91652238  0.62739601  1
  Mn  Mn104  1  0.10859698  0.74864787  0.62277049  1
  Mn  Mn105  1  0.89301175  0.91640909  0.87661274  1
  Mn  Mn106  1  0.10804431  0.74973544  0.37258380  1
  Mn  Mn107  1  0.39324279  0.24973061  0.12702085  1
  Mn  Mn108  1  0.85738777  0.41646400  0.50240849  1
  Mn  Mn109  1  0.89127609  0.91699396  0.12730194  1
  Mn  Mn110  1  0.89170940  0.58349397  0.87665072  1
  Mn  Mn111  1  0.60730337  0.08372597  0.37372650  1
  Mn  Mn112  1  0.14187189  0.25056953  0.24728850  1
  Mn  Mn113  1  0.89244769  0.24998729  0.37749843  1
  Mn  Mn114  1  0.60648105  0.74990462  0.37209772  1
  Mn  Mn115  1  0.14186030  0.91569616  0.99786007  1
  Mn  Mn116  1  0.10858091  0.08408741  0.62198101  1
  Mn  Mn117  1  0.39313451  0.58328255  0.62705852  1
  Mn  Mn118  1  0.64109653  0.58337299  0.99744519  1
  Mn  Mn119  1  0.35811465  0.08312013  0.25181829  1
  Mn  Mn120  1  0.14218246  0.24998641  0.74768413  1
  Mn  Mn121  1  0.35761700  0.08347859  0.00284297  1
  Mn  Mn122  1  0.14294216  0.58381949  0.49716126  1
  Mn  Mn123  1  0.64148919  0.91724757  0.49787390  1
  Mn  Mn124  1  0.85688496  0.41775568  0.75154849  1
  Mn  Mn125  1  0.14165226  0.25053626  0.99834572  1
  Mn  Mn126  1  0.60762484  0.75025462  0.12354732  1
  Mn  Mn127  1  0.89156399  0.58237508  0.62726900  1
  Mn  Mn128  1  0.14214776  0.91533245  0.24822008  1
  Mn  Mn129  1  0.85748583  0.75041773  0.00139738  1
  Mn  Mn130  1  0.10812045  0.74995155  0.12329186  1
  Mn  Mn131  1  0.39218441  0.91619074  0.87799205  1
  Mn  Mn132  1  0.60831708  0.08334125  0.87224226  1
  Mn  Mn133  1  0.85817626  0.08279683  0.75232656  1
  Mn  Mn134  1  0.64165301  0.91688670  0.74677249  1
  Mn  Mn135  1  0.85740798  0.08278572  0.25260399  1
  Mn  Mn136  1  0.39298088  0.91734705  0.12685833  1
  Mn  Mn137  1  0.85722849  0.74984827  0.50260034  1
  Mn  Mn138  1  0.64216818  0.24953452  0.49773789  1
  Mn  Mn139  1  0.10867351  0.41650213  0.87292263  1
  Mn  Mn140  1  0.39311140  0.25093403  0.87752415  1
  Mn  Mn141  1  0.39169209  0.24987583  0.62777023  1
  Mn  Mn142  1  0.35763005  0.41665267  0.25281103  1
  Mn  Mn143  1  0.89161395  0.24974328  0.87718334  1
  Fe  Fe144  1  0.89227901  0.91655950  0.37692994  1
  Fe  Fe145  1  0.60669383  0.74939648  0.87282735  1
  Fe  Fe146  1  0.60870517  0.08339102  0.12306285  1
  Fe  Fe147  1  0.10661750  0.41625523  0.12337553  1
  Fe  Fe148  1  0.64245739  0.25015351  0.24858849  1
  Fe  Fe149  1  0.64226666  0.91628317  0.24922845  1
  Fe  Fe150  1  0.85727038  0.08333518  0.00171775  1
  Fe  Fe151  1  0.35665400  0.08374693  0.50124474  1
  Fe  Fe152  1  0.10750677  0.08305735  0.37400576  1
  Fe  Fe153  1  0.60618490  0.75056171  0.62337314  1
  Fe  Fe154  1  0.85640580  0.74976127  0.75154788  1
  Fe  Fe155  1  0.89249557  0.58338252  0.37623314  1
  Fe  Fe156  1  0.85836504  0.08342956  0.50122630  1
  Fe  Fe157  1  0.39354802  0.58287132  0.87611205  1
  Fe  Fe158  1  0.39277864  0.58212059  0.37680827  1
  Fe  Fe159  1  0.60650715  0.41637241  0.37363900  1
  Fe  Fe160  1  0.35793445  0.75048291  0.75237976  1
  Fe  Fe161  1  0.35861043  0.41652218  0.00200027  1
  Fe  Fe162  1  0.64275911  0.24982338  0.74741017  1
  Fe  Fe163  1  0.60722877  0.41659914  0.62248229  1
  Fe  Fe164  1  0.10648184  0.08407486  0.12346451  1
  Fe  Fe165  1  0.14319018  0.58388194  0.24848699  1
  Fe  Fe166  1  0.35780082  0.74988763  0.25168939  1
  Fe  Fe167  1  0.39220780  0.91748716  0.37663533  1
  Fe  Fe168  1  0.85699496  0.74943545  0.25162224  1
  Fe  Fe169  1  0.35768414  0.75026437  0.50187455  1
  Fe  Fe170  1  0.35705552  0.41609926  0.50119338  1
  Fe  Fe171  1  0.10741728  0.41711312  0.37274095  1
  Fe  Fe172  1  0.14291462  0.24953571  0.49806643  1
  Fe  Fe173  1  0.64347405  0.24949424  0.99826060  1
  Fe  Fe174  1  0.10854088  0.75006723  0.87261473  1
  Fe  Fe175  1  0.60719928  0.41756604  0.87335865  1
  Fe  Fe176  1  0.10731040  0.08304405  0.87338929  1
  Fe  Fe177  1  0.39264624  0.58301718  0.12764707  1
  Fe  Fe178  1  0.35667731  0.08339892  0.75233090  1
  Fe  Fe179  1  0.35806033  0.75005726  0.00149486  1
  Fe  Fe180  1  0.14379334  0.91635720  0.74844895  1
  Fe  Fe181  1  0.64284461  0.91710097  0.99795790  1
  Fe  Fe182  1  0.39258729  0.25018778  0.37646549  1
  Fe  Fe183  1  0.89347357  0.25074098  0.62605322  1
  Fe  Fe184  1  0.85685599  0.41749298  0.25196644  1
  Fe  Fe185  1  0.39162680  0.91656388  0.62697563  1
  Fe  Fe186  1  0.10794598  0.41677831  0.62313975  1
  Fe  Fe187  1  0.14390556  0.91674278  0.49791119  1
  Fe  Fe188  1  0.89193505  0.25028644  0.12660258  1
  Fe  Fe189  1  0.64182708  0.58357931  0.49725693  1
  Fe  Fe190  1  0.64130268  0.58381649  0.74828962  1
  Fe  Fe191  1  0.64270632  0.58375273  0.24933128  1
  P  P192  1  0.05166181  0.25071477  0.11055379  1
  P  P193  1  0.05505312  0.24963652  0.36146941  1
  P  P194  1  0.05347995  0.25101455  0.60891728  1
  P  P195  1  0.05306463  0.24891904  0.86001729  1
  P  P196  1  0.05481642  0.58266203  0.11142827  1
  P  P197  1  0.05314769  0.58314319  0.35912875  1
  P  P198  1  0.05349678  0.58257480  0.60950181  1
  P  P199  1  0.05394857  0.58412805  0.86010165  1
  P  P200  1  0.05293194  0.91688219  0.11037380  1
  P  P201  1  0.05356880  0.91712482  0.36170661  1
  P  P202  1  0.05643964  0.91600006  0.61022850  1
  P  P203  1  0.05476147  0.91664732  0.85903718  1
  P  P204  1  0.55610368  0.24920720  0.11050596  1
  P  P205  1  0.55253619  0.25080501  0.35989149  1
  P  P206  1  0.55421225  0.24987113  0.61108869  1
  P  P207  1  0.55582156  0.25088571  0.86049542  1
  P  P208  1  0.55331441  0.58372906  0.11175518  1
  P  P209  1  0.55324938  0.58237357  0.36077919  1
  P  P210  1  0.55534949  0.58415476  0.61036732  1
  P  P211  1  0.55246157  0.58361579  0.85953522  1
  P  P212  1  0.55582758  0.91738348  0.11061207  1
  P  P213  1  0.55181766  0.91685393  0.35967258  1
  P  P214  1  0.55089730  0.91580943  0.60975078  1
  P  P215  1  0.55448692  0.91601356  0.86102293  1
  P  P216  1  0.44902010  0.08353531  0.13991009  1
  P  P217  1  0.44582321  0.08391830  0.39047808  1
  P  P218  1  0.44381885  0.08245572  0.63974657  1
  P  P219  1  0.44575973  0.08353612  0.88933186  1
  P  P220  1  0.44580762  0.41704838  0.13928821  1
  P  P221  1  0.44701233  0.41625322  0.39052266  1
  P  P222  1  0.44700762  0.41649269  0.63871673  1
  P  P223  1  0.44815165  0.41746772  0.89047297  1
  P  P224  1  0.44484746  0.74953470  0.13952206  1
  P  P225  1  0.44408713  0.74972249  0.38891152  1
  P  P226  1  0.44530957  0.75098530  0.63932293  1
  P  P227  1  0.44634782  0.74909503  0.88948295  1
  P  P228  1  0.94588737  0.08424877  0.13909137  1
  P  P229  1  0.94732416  0.08239639  0.39057713  1
  P  P230  1  0.94607732  0.08444513  0.63847425  1
  P  P231  1  0.94731126  0.08274228  0.89046479  1
  P  P232  1  0.94638148  0.41572936  0.14082639  1
  P  P233  1  0.94618010  0.41795028  0.38850912  1
  P  P234  1  0.94800649  0.41582976  0.63959019  1
  P  P235  1  0.94669611  0.41695452  0.88992558  1
  P  P236  1  0.94584888  0.75008425  0.14084399  1
  P  P237  1  0.94485808  0.74960463  0.38874813  1
  P  P238  1  0.94612170  0.74945500  0.64083684  1
  P  P239  1  0.94733784  0.74992881  0.88865688  1
  P  P240  1  0.19459702  0.08308608  0.23553428  1
  P  P241  1  0.19739634  0.08327911  0.48446282  1
  P  P242  1  0.19658081  0.08270202  0.73607122  1
  P  P243  1  0.19437426  0.08347657  0.98579396  1
  P  P244  1  0.19462501  0.41801056  0.23549854  1
  P  P245  1  0.19587705  0.41603922  0.48508683  1
  P  P246  1  0.19695683  0.41693546  0.73392131  1
  P  P247  1  0.19745542  0.41682764  0.98654757  1
  P  P248  1  0.19853567  0.74882243  0.23515314  1
  P  P249  1  0.19859094  0.75060560  0.48492172  1
  P  P250  1  0.19781079  0.75031641  0.73586400  1
  P  P251  1  0.19805299  0.74954302  0.98435309  1
  P  P252  1  0.69563727  0.08321884  0.23530432  1
  P  P253  1  0.69827433  0.08339024  0.48489868  1
  P  P254  1  0.69674108  0.08385048  0.73426751  1
  P  P255  1  0.69700626  0.08346776  0.98612836  1
  P  P256  1  0.69586799  0.41719272  0.23716444  1
  P  P257  1  0.69417658  0.41706247  0.48536185  1
  P  P258  1  0.69373157  0.41714044  0.73547639  1
  P  P259  1  0.69586344  0.41583084  0.98435255  1
  P  P260  1  0.69742703  0.74962867  0.23601231  1
  P  P261  1  0.69412201  0.74987489  0.48613133  1
  P  P262  1  0.69491517  0.74942938  0.73498114  1
  P  P263  1  0.69529783  0.75063748  0.98433193  1
  P  P264  1  0.30349492  0.25081412  0.01564471  1
  P  P265  1  0.30394012  0.24989015  0.26561521  1
  P  P266  1  0.30354860  0.25027463  0.51318692  1
  P  P267  1  0.30322877  0.24944629  0.76547024  1
  P  P268  1  0.30673545  0.58310787  0.01412858  1
  P  P269  1  0.30431709  0.58357655  0.26453279  1
  P  P270  1  0.30545917  0.58256317  0.51329629  1
  P  P271  1  0.30503244  0.58372662  0.76543949  1
  P  P272  1  0.30325208  0.91608797  0.01519237  1
  P  P273  1  0.30420277  0.91631966  0.26518166  1
  P  P274  1  0.30441484  0.91714254  0.51398618  1
  P  P275  1  0.30397200  0.91691369  0.76400219  1
  P  P276  1  0.80264811  0.24945354  0.01555233  1
  P  P277  1  0.80331833  0.25102347  0.26394894  1
  P  P278  1  0.80424387  0.24958696  0.51553494  1
  P  P279  1  0.80333386  0.25064907  0.76335683  1
  P  P280  1  0.80248107  0.58344788  0.01496351  1
  P  P281  1  0.80253911  0.58322778  0.26593477  1
  P  P282  1  0.80256370  0.58293579  0.51408890  1
  P  P283  1  0.80102288  0.58430838  0.76443393  1
  P  P284  1  0.80214573  0.91730725  0.01454360  1
  P  P285  1  0.80229667  0.91558005  0.26578723  1
  P  P286  1  0.80469507  0.91748422  0.51413336  1
  P  P287  1  0.80322442  0.91535610  0.76476165  1
  O  O288  1  0.05525010  0.25065282  0.18728161  1
  O  O289  1  0.05922237  0.24975329  0.43820594  1
  O  O290  1  0.05680552  0.24990503  0.68568369  1
  O  O291  1  0.05592953  0.24980033  0.93679179  1
  O  O292  1  0.05898035  0.58391903  0.18812449  1
  O  O293  1  0.05715636  0.58390284  0.43586760  1
  O  O294  1  0.05702892  0.58354020  0.68622155  1
  O  O295  1  0.05723091  0.58405093  0.93690909  1
  O  O296  1  0.05597763  0.91592950  0.18718016  1
  O  O297  1  0.05914350  0.91609775  0.43835178  1
  O  O298  1  0.06098429  0.91608565  0.68699237  1
  O  O299  1  0.05681532  0.91613356  0.93589595  1
  O  O300  1  0.55987643  0.25014388  0.18735937  1
  O  O301  1  0.55596450  0.24981922  0.43662546  1
  O  O302  1  0.55849856  0.24921841  0.68783857  1
  O  O303  1  0.55980528  0.24960144  0.93731248  1
  O  O304  1  0.55857894  0.58371875  0.18840120  1
  O  O305  1  0.55771059  0.58346264  0.43749267  1
  O  O306  1  0.55849722  0.58415430  0.68722330  1
  O  O307  1  0.55522856  0.58387128  0.93632934  1
  O  O308  1  0.55966145  0.91632104  0.18744332  1
  O  O309  1  0.55555990  0.91665957  0.43638264  1
  O  O310  1  0.55492657  0.91649910  0.68646712  1
  O  O311  1  0.55894882  0.91705333  0.93777567  1
  O  O312  1  0.44477219  0.08355607  0.06321836  1
  O  O313  1  0.44381639  0.08381245  0.31367213  1
  O  O314  1  0.43949505  0.08354555  0.56294423  1
  O  O315  1  0.44087243  0.08330435  0.81258172  1
  O  O316  1  0.44210388  0.41639475  0.06253637  1
  O  O317  1  0.44370159  0.41648894  0.31375983  1
  O  O318  1  0.44151380  0.41603087  0.56215244  1
  O  O319  1  0.44484708  0.41641438  0.81370114  1
  O  O320  1  0.44149707  0.75031952  0.06270874  1
  O  O321  1  0.44081976  0.74979124  0.31204580  1
  O  O322  1  0.44072886  0.75046929  0.56254164  1
  O  O323  1  0.44180179  0.75035777  0.81271008  1
  O  O324  1  0.94092929  0.08326187  0.06241556  1
  O  O325  1  0.94353771  0.08285646  0.31378771  1
  O  O326  1  0.94199479  0.08342090  0.56174911  1
  O  O327  1  0.94367515  0.08274194  0.81365662  1
  O  O328  1  0.94267576  0.41657529  0.06409327  1
  O  O329  1  0.94084459  0.41745793  0.31189645  1
  O  O330  1  0.94410105  0.41680628  0.56286606  1
  O  O331  1  0.94304340  0.41706716  0.81315818  1
  O  O332  1  0.94289125  0.75005866  0.06400682  1
  O  O333  1  0.94048207  0.74973069  0.31201044  1
  O  O334  1  0.94263640  0.74962330  0.56398949  1
  O  O335  1  0.94147277  0.74968737  0.81209812  1
  O  O336  1  0.18960770  0.08378614  0.06260354  1
  O  O337  1  0.19052599  0.08319669  0.31231903  1
  O  O338  1  0.19436780  0.08348965  0.56121552  1
  O  O339  1  0.19188160  0.08341099  0.81275129  1
  O  O340  1  0.19179469  0.41643354  0.06314503  1
  O  O341  1  0.19036428  0.41706185  0.31232981  1
  O  O342  1  0.19140453  0.41682146  0.56180023  1
  O  O343  1  0.19410985  0.41701824  0.81078614  1
  O  O344  1  0.19395070  0.74948641  0.06106855  1
  O  O345  1  0.19456623  0.74945434  0.31183532  1
  O  O346  1  0.19490312  0.74973317  0.56160000  1
  O  O347  1  0.19288878  0.74952264  0.81252998  1
  O  O348  1  0.69296361  0.08323193  0.06283617  1
  O  O349  1  0.69278357  0.08357585  0.31209550  1
  O  O350  1  0.69384127  0.08304836  0.56154217  1
  O  O351  1  0.69368369  0.08324545  0.81109045  1
  O  O352  1  0.69360795  0.41716179  0.06125231  1
  O  O353  1  0.69111273  0.41677587  0.31380917  1
  O  O354  1  0.69012696  0.41645569  0.56219721  1
  O  O355  1  0.69022432  0.41728273  0.81230169  1
  O  O356  1  0.69267261  0.74945084  0.06115692  1
  O  O357  1  0.69375814  0.74967529  0.31271542  1
  O  O358  1  0.68984225  0.75079090  0.56284884  1
  O  O359  1  0.69019699  0.74990991  0.81170874  1
  O  O360  1  0.30757425  0.24987875  0.18887378  1
  O  O361  1  0.30812240  0.25058088  0.43653609  1
  O  O362  1  0.30589089  0.25020295  0.68860750  1
  O  O363  1  0.30688202  0.25034444  0.93885924  1
  O  O364  1  0.30859093  0.58260135  0.18776821  1
  O  O365  1  0.30903930  0.58199514  0.43649783  1
  O  O366  1  0.30781095  0.58297694  0.68858839  1
  O  O367  1  0.31055386  0.58265411  0.93733238  1
  O  O368  1  0.30718531  0.91749085  0.18841150  1
  O  O369  1  0.30877253  0.91711864  0.43725986  1
  O  O370  1  0.30785216  0.91657089  0.68725034  1
  O  O371  1  0.30610567  0.91702227  0.93837436  1
  O  O372  1  0.80803628  0.25068805  0.18729059  1
  O  O373  1  0.80713119  0.25053192  0.43865802  1
  O  O374  1  0.80875858  0.25084650  0.68676989  1
  O  O375  1  0.80583600  0.25004191  0.93873935  1
  O  O376  1  0.80596876  0.58295126  0.18917441  1
  O  O377  1  0.80818496  0.58270649  0.43751509  1
  O  O378  1  0.80486148  0.58345150  0.68772062  1
  O  O379  1  0.80560156  0.58348460  0.93817384  1
  O  O380  1  0.80561431  0.91631268  0.18902411  1
  O  O381  1  0.80891581  0.91694075  0.43734095  1
  O  O382  1  0.80681167  0.91588363  0.68799498  1
  O  O383  1  0.80623942  0.91693789  0.93789510  1
  O  O384  1  0.23380772  0.25041843  0.04081706  1
  O  O385  1  0.23395704  0.25032888  0.28975546  1
  O  O386  1  0.23323337  0.24970270  0.53728207  1
  O  O387  1  0.23373720  0.25004091  0.79107399  1
  O  O388  1  0.23667690  0.58343784  0.03844955  1
  O  O389  1  0.23407017  0.58320645  0.28864163  1
  O  O390  1  0.23559996  0.58352724  0.53807281  1
  O  O391  1  0.23545653  0.58321133  0.79083095  1
  O  O392  1  0.23368874  0.91580355  0.04061146  1
  O  O393  1  0.23447075  0.91632264  0.29032083  1
  O  O394  1  0.23403207  0.91717142  0.53790363  1
  O  O395  1  0.23384486  0.91658846  0.78846592  1
  O  O396  1  0.73267589  0.24994159  0.04035794  1
  O  O397  1  0.73290910  0.25012668  0.28776727  1
  O  O398  1  0.73449224  0.25022375  0.54042941  1
  O  O399  1  0.73287881  0.25038177  0.78669866  1
  O  O400  1  0.73278217  0.58342478  0.04011781  1
  O  O401  1  0.73243126  0.58335140  0.29067295  1
  O  O402  1  0.73202023  0.58340344  0.53702757  1
  O  O403  1  0.73088272  0.58386513  0.78879118  1
  O  O404  1  0.73208885  0.91646816  0.03906863  1
  O  O405  1  0.73213914  0.91657533  0.29044042  1
  O  O406  1  0.73464614  0.91665725  0.53836726  1
  O  O407  1  0.73343357  0.91661732  0.78943986  1
  O  O408  1  0.26474093  0.08302737  0.21150717  1
  O  O409  1  0.26748377  0.08334298  0.45977074  1
  O  O410  1  0.26677861  0.08309505  0.71192311  1
  O  O411  1  0.26458219  0.08323006  0.96226919  1
  O  O412  1  0.26486684  0.41707994  0.21200447  1
  O  O413  1  0.26626793  0.41650055  0.46124974  1
  O  O414  1  0.26664168  0.41666997  0.70873745  1
  O  O415  1  0.26791489  0.41711111  0.96317863  1
  O  O416  1  0.26859650  0.74943502  0.21068981  1
  O  O417  1  0.26876969  0.75014442  0.46070470  1
  O  O418  1  0.26818460  0.75040116  0.71215334  1
  O  O419  1  0.26831980  0.74983357  0.96039641  1
  O  O420  1  0.76546629  0.08285378  0.21028189  1
  O  O421  1  0.76829110  0.08370080  0.46037792  1
  O  O422  1  0.76649382  0.08326412  0.70942818  1
  O  O423  1  0.76708992  0.08386031  0.96137396  1
  O  O424  1  0.76615604  0.41734548  0.21304848  1
  O  O425  1  0.76430422  0.41618112  0.46151601  1
  O  O426  1  0.76369521  0.41763659  0.71071914  1
  O  O427  1  0.76529224  0.41647613  0.95846451  1
  O  O428  1  0.76734866  0.74956666  0.21095496  1
  O  O429  1  0.76426646  0.74994246  0.46237933  1
  O  O430  1  0.76520354  0.74970641  0.71107893  1
  O  O431  1  0.76495941  0.75021350  0.95897118  1
  O  O432  1  0.01622161  0.08402946  0.16294066  1
  O  O433  1  0.01744072  0.08306728  0.41502860  1
  O  O434  1  0.01618677  0.08389777  0.66251592  1
  O  O435  1  0.01737874  0.08284551  0.91483378  1
  O  O436  1  0.01649156  0.41642566  0.16523626  1
  O  O437  1  0.01678098  0.41737069  0.41156240  1
  O  O438  1  0.01803910  0.41614243  0.66418171  1
  O  O439  1  0.01643581  0.41681694  0.91491220  1
  O  O440  1  0.01559715  0.75019253  0.16595073  1
  O  O441  1  0.01494001  0.74959818  0.41303094  1
  O  O442  1  0.01610657  0.74932868  0.66503727  1
  O  O443  1  0.01784193  0.75037043  0.91193579  1
  O  O444  1  0.51905385  0.08348946  0.16424266  1
  O  O445  1  0.51532619  0.08349501  0.41654814  1
  O  O446  1  0.51391499  0.08296655  0.66379011  1
  O  O447  1  0.51598758  0.08367107  0.91277898  1
  O  O448  1  0.51575541  0.41658025  0.16375264  1
  O  O449  1  0.51705819  0.41643479  0.41524622  1
  O  O450  1  0.51751471  0.41703429  0.66178479  1
  O  O451  1  0.51818925  0.41744275  0.91524164  1
  O  O452  1  0.51475343  0.75008615  0.16428114  1
  O  O453  1  0.51405863  0.74953021  0.41347599  1
  O  O454  1  0.51565848  0.75009322  0.66296017  1
  O  O455  1  0.51666608  0.74950163  0.91329148  1
  O  O456  1  0.48616152  0.25005770  0.08605605  1
  O  O457  1  0.48248655  0.25016485  0.33518264  1
  O  O458  1  0.48412145  0.24976409  0.58711067  1
  O  O459  1  0.48576790  0.25053171  0.83621745  1
  O  O460  1  0.48298880  0.58366144  0.08825368  1
  O  O461  1  0.48277895  0.58266157  0.33728044  1
  O  O462  1  0.48533749  0.58360094  0.58588501  1
  O  O463  1  0.48263442  0.58323343  0.83411967  1
  O  O464  1  0.48583907  0.91673350  0.08616905  1
  O  O465  1  0.48164963  0.91733946  0.33544902  1
  O  O466  1  0.48084093  0.91606093  0.58536724  1
  O  O467  1  0.48440477  0.91595306  0.83708679  1
  O  O468  1  0.98174896  0.25041489  0.08554873  1
  O  O469  1  0.98495915  0.24985548  0.33723140  1
  O  O470  1  0.98356052  0.25073915  0.58397977  1
  O  O471  1  0.98350054  0.24939009  0.83445172  1
  O  O472  1  0.98479658  0.58296598  0.08709317  1
  O  O473  1  0.98292812  0.58328611  0.33505637  1
  O  O474  1  0.98377992  0.58278175  0.58439616  1
  O  O475  1  0.98428829  0.58321205  0.83479319  1
  O  O476  1  0.98334063  0.91653490  0.08491136  1
  O  O477  1  0.98309809  0.91704158  0.33826650  1
  O  O478  1  0.98614779  0.91611061  0.58687149  1
  O  O479  1  0.98527199  0.91661225  0.83308157  1
  O  O480  1  0.08545612  0.31598080  0.07791240  1
  O  O481  1  0.08849734  0.31479738  0.32843262  1
  O  O482  1  0.08768998  0.31612067  0.57678166  1
  O  O483  1  0.08762046  0.31381683  0.82763315  1
  O  O484  1  0.08859935  0.64751043  0.07801757  1
  O  O485  1  0.08714673  0.64808710  0.32605214  1
  O  O486  1  0.08758918  0.64758351  0.57655440  1
  O  O487  1  0.08770404  0.64935462  0.82739525  1
  O  O488  1  0.08695363  0.98217114  0.07849775  1
  O  O489  1  0.08672378  0.98231955  0.32868302  1
  O  O490  1  0.08993687  0.98106753  0.57696067  1
  O  O491  1  0.08907540  0.98205670  0.82726534  1
  O  O492  1  0.59031752  0.31395937  0.07745911  1
  O  O493  1  0.58623460  0.31611837  0.32738534  1
  O  O494  1  0.58769037  0.31501883  0.57825562  1
  O  O495  1  0.58921106  0.31638387  0.82821104  1
  O  O496  1  0.58635185  0.64874878  0.07817030  1
  O  O497  1  0.58669621  0.64715576  0.32686808  1
  O  O498  1  0.58846262  0.64953028  0.57743590  1
  O  O499  1  0.58641319  0.64869763  0.82682154  1
  O  O500  1  0.58927807  0.98273363  0.07789327  1
  O  O501  1  0.58625391  0.98166198  0.32727672  1
  O  O502  1  0.58468321  0.98085818  0.57670317  1
  O  O503  1  0.58777080  0.98098129  0.82733329  1
  O  O504  1  0.41518017  0.01850649  0.17271607  1
  O  O505  1  0.41102130  0.01897001  0.42248583  1
  O  O506  1  0.41052935  0.01698957  0.67236403  1
  O  O507  1  0.41259742  0.01844229  0.92276056  1
  O  O508  1  0.41199015  0.35222523  0.17245531  1
  O  O509  1  0.41306151  0.35108372  0.42308348  1
  O  O510  1  0.41420732  0.35157670  0.67279446  1
  O  O511  1  0.41415573  0.35265283  0.92373794  1
  O  O512  1  0.41118810  0.68432363  0.17225462  1
  O  O513  1  0.41032318  0.68466785  0.42179080  1
  O  O514  1  0.41161841  0.68609252  0.67264183  1
  O  O515  1  0.41316527  0.68368677  0.92202460  1
  O  O516  1  0.91269141  0.01920816  0.17279212  1
  O  O517  1  0.91348533  0.01742660  0.42331711  1
  O  O518  1  0.91254984  0.01957007  0.67203320  1
  O  O519  1  0.91343236  0.01768327  0.92324232  1
  O  O520  1  0.91263418  0.35052080  0.17338440  1
  O  O521  1  0.91300592  0.35293980  0.42212332  1
  O  O522  1  0.91425821  0.35055843  0.67194023  1
  O  O523  1  0.91262323  0.35175384  0.92226055  1
  O  O524  1  0.91154680  0.68500061  0.17322055  1
  O  O525  1  0.91142539  0.68420156  0.42158491  1
  O  O526  1  0.91180898  0.68450139  0.67331830  1
  O  O527  1  0.91426944  0.68494101  0.92245816  1
  O  O528  1  0.16069954  0.01816569  0.20265755  1
  O  O529  1  0.16344342  0.01815659  0.45188309  1
  O  O530  1  0.16344814  0.01751678  0.70291117  1
  O  O531  1  0.16083915  0.01843805  0.95260485  1
  O  O532  1  0.16064045  0.35327247  0.20199876  1
  O  O533  1  0.16252536  0.35084719  0.45213742  1
  O  O534  1  0.16236692  0.35200778  0.70165154  1
  O  O535  1  0.16433309  0.35183495  0.95281286  1
  O  O536  1  0.16513331  0.68362439  0.20238226  1
  O  O537  1  0.16473858  0.68573520  0.45177796  1
  O  O538  1  0.16493283  0.68515050  0.70205320  1
  O  O539  1  0.16458577  0.68448391  0.95125061  1
  O  O540  1  0.66139485  0.01807575  0.20313848  1
  O  O541  1  0.66435774  0.01842948  0.45203169  1
  O  O542  1  0.66246946  0.01883557  0.70167989  1
  O  O543  1  0.66344417  0.01843482  0.95288137  1
  O  O544  1  0.66261094  0.35215759  0.20368217  1
  O  O545  1  0.66014119  0.35227430  0.45214077  1
  O  O546  1  0.66027026  0.35181479  0.70256554  1
  O  O547  1  0.66188265  0.35032590  0.95290148  1
  O  O548  1  0.66346115  0.68452672  0.20337069  1
  O  O549  1  0.66075116  0.68463200  0.45315231  1
  O  O550  1  0.66125525  0.68439533  0.70204215  1
  O  O551  1  0.66062891  0.68586820  0.95160133  1
  O  O552  1  0.33760148  0.31597711  0.04780082  1
  O  O553  1  0.33809003  0.31475650  0.29850576  1
  O  O554  1  0.33658370  0.31547218  0.54679252  1
  O  O555  1  0.33784122  0.31448123  0.79762686  1
  O  O556  1  0.34040617  0.64843939  0.04671973  1
  O  O557  1  0.33802004  0.64864500  0.29717284  1
  O  O558  1  0.33967353  0.64763561  0.54567562  1
  O  O559  1  0.33920703  0.64898352  0.79742326  1
  O  O560  1  0.33725115  0.98110412  0.04799662  1
  O  O561  1  0.33837975  0.98124936  0.29808761  1
  O  O562  1  0.33767324  0.98228318  0.54720647  1
  O  O563  1  0.33722747  0.98209315  0.79708991  1
  O  O564  1  0.83682059  0.31439203  0.04839075  1
  O  O565  1  0.83621144  0.31616085  0.29743435  1
  O  O566  1  0.83869129  0.31443558  0.54827475  1
  O  O567  1  0.83610286  0.31578098  0.79710287  1
  O  O568  1  0.83670397  0.64847062  0.04728065  1
  O  O569  1  0.83661065  0.64828756  0.29843332  1
  O  O570  1  0.83584453  0.64784197  0.54761857  1
  O  O571  1  0.83466236  0.64954958  0.79704538  1
  O  O572  1  0.83538197  0.98258609  0.04759628  1
  O  O573  1  0.83692978  0.98035348  0.29847881  1
  O  O574  1  0.83800937  0.98282253  0.54685624  1
  O  O575  1  0.83785284  0.98013498  0.79729260  1
  O  O576  1  0.41514080  0.14842155  0.17284387  1
  O  O577  1  0.41162821  0.14915831  0.42266047  1
  O  O578  1  0.40985459  0.14719329  0.67322121  1
  O  O579  1  0.41251954  0.14866725  0.92252573  1
  O  O580  1  0.41240631  0.48229193  0.17219837  1
  O  O581  1  0.41290438  0.48117802  0.42331222  1
  O  O582  1  0.41398649  0.48158905  0.67215757  1
  O  O583  1  0.41414333  0.48264013  0.92259033  1
  O  O584  1  0.41069034  0.81434839  0.17247210  1
  O  O585  1  0.41051211  0.81498322  0.42171512  1
  O  O586  1  0.41221169  0.81609326  0.67272929  1
  O  O587  1  0.41263489  0.81370805  0.92340726  1
  O  O588  1  0.91267980  0.14944495  0.17216563  1
  O  O589  1  0.91306436  0.14740578  0.42312912  1
  O  O590  1  0.91299177  0.14999847  0.67105610  1
  O  O591  1  0.91307049  0.14766537  0.92312119  1
  O  O592  1  0.91207251  0.48057780  0.17384149  1
  O  O593  1  0.91338063  0.48313045  0.42207211  1
  O  O594  1  0.91392978  0.48070635  0.67270269  1
  O  O595  1  0.91269028  0.48195266  0.92259425  1
  O  O596  1  0.91133880  0.81493651  0.17328819  1
  O  O597  1  0.91139819  0.81472790  0.42186209  1
  O  O598  1  0.91222149  0.81451405  0.67357250  1
  O  O599  1  0.91412825  0.81505385  0.92218683  1
  O  O600  1  0.08587358  0.18578794  0.07806011  1
  O  O601  1  0.08816978  0.18429769  0.32857476  1
  O  O602  1  0.08783891  0.18612895  0.57601628  1
  O  O603  1  0.08691882  0.18349890  0.82790042  1
  O  O604  1  0.08819653  0.51713980  0.07890619  1
  O  O605  1  0.08717343  0.51812178  0.32667070  1
  O  O606  1  0.08758880  0.51735340  0.57738446  1
  O  O607  1  0.08854780  0.51915931  0.82796504  1
  O  O608  1  0.08727610  0.85189668  0.07779255  1
  O  O609  1  0.08660925  0.85208751  0.32772260  1
  O  O610  1  0.08982360  0.85098667  0.57686781  1
  O  O611  1  0.08961846  0.85181591  0.82680063  1
  O  O612  1  0.58943696  0.18384290  0.07778353  1
  O  O613  1  0.58716598  0.18613205  0.32713499  1
  O  O614  1  0.58745353  0.18486454  0.57750175  1
  O  O615  1  0.58975678  0.18617732  0.82686958  1
  O  O616  1  0.58650881  0.51870866  0.07820432  1
  O  O617  1  0.58655910  0.51716371  0.32790446  1
  O  O618  1  0.58940656  0.51925323  0.57754646  1
  O  O619  1  0.58691788  0.51867581  0.82731709  1
  O  O620  1  0.58979702  0.85256792  0.07744096  1
  O  O621  1  0.58535494  0.85177240  0.32650039  1
  O  O622  1  0.58463762  0.85072519  0.57718158  1
  O  O623  1  0.58782323  0.85068967  0.82830791  1
  O  O624  1  0.33758087  0.18568489  0.04823010  1
  O  O625  1  0.33775588  0.18480033  0.29826112  1
  O  O626  1  0.33706461  0.18522004  0.54632058  1
  O  O627  1  0.33730904  0.18425591  0.79748532  1
  O  O628  1  0.34024549  0.51817655  0.04766383  1
  O  O629  1  0.33803495  0.51874386  0.29818491  1
  O  O630  1  0.33859050  0.51720781  0.54637965  1
  O  O631  1  0.33968323  0.51891711  0.79800076  1
  O  O632  1  0.33782003  0.85091041  0.04667453  1
  O  O633  1  0.33842192  0.85115808  0.29716434  1
  O  O634  1  0.33775562  0.85201949  0.54739763  1
  O  O635  1  0.33774133  0.85193241  0.79710082  1
  O  O636  1  0.83663216  0.18436163  0.04803393  1
  O  O637  1  0.83701443  0.18601495  0.29711404  1
  O  O638  1  0.83838262  0.18431207  0.54734806  1
  O  O639  1  0.83649305  0.18552994  0.79689668  1
  O  O640  1  0.83651480  0.51831809  0.04745055  1
  O  O641  1  0.83651681  0.51824874  0.29884093  1
  O  O642  1  0.83517354  0.51771764  0.54794995  1
  O  O643  1  0.83495347  0.51940669  0.79739636  1
  O  O644  1  0.83612735  0.85234879  0.04738225  1
  O  O645  1  0.83590094  0.85035887  0.29826351  1
  O  O646  1  0.83858216  0.85259340  0.54724809  1
  O  O647  1  0.83639895  0.84978408  0.79728916  1
  O  O648  1  0.16100694  0.14818232  0.20231342  1
  O  O649  1  0.16321839  0.14815765  0.45180531  1
  O  O650  1  0.16315651  0.14768564  0.70245110  1
  O  O651  1  0.16095230  0.14845309  0.95238806  1
  O  O652  1  0.16167793  0.48338810  0.20268425  1
  O  O653  1  0.16225680  0.48094551  0.45149340  1
  O  O654  1  0.16276855  0.48196763  0.70142784  1
  O  O655  1  0.16437394  0.48187442  0.95298768  1
  O  O656  1  0.16457985  0.81380015  0.20228071  1
  O  O657  1  0.16508255  0.81577128  0.45220469  1
  O  O658  1  0.16436786  0.81532822  0.70283585  1
  O  O659  1  0.16398079  0.81439296  0.95145880  1
  O  O660  1  0.66176407  0.14836408  0.20266032  1
  O  O661  1  0.66439356  0.14847660  0.45221615  1
  O  O662  1  0.66282197  0.14901647  0.70207643  1
  O  O663  1  0.66328352  0.14861057  0.95328772  1
  O  O664  1  0.66251139  0.48241829  0.20402632  1
  O  O665  1  0.66075999  0.48226594  0.45245337  1
  O  O666  1  0.65956465  0.48207916  0.70278048  1
  O  O667  1  0.66076321  0.48046913  0.95189263  1
  O  O668  1  0.66350297  0.81477586  0.20354053  1
  O  O669  1  0.66071309  0.81480308  0.45260432  1
  O  O670  1  0.66124454  0.81437631  0.70138519  1
  O  O671  1  0.66121620  0.81590252  0.95239635  1
