# generated using pymatgen
data_Na2MnFe(PO4)2
_symmetry_space_group_name_H-M   'P 1'
_cell_length_a   21.08086575
_cell_length_b   18.93305639
_cell_length_c   20.04021621
_cell_angle_alpha   89.99956036
_cell_angle_beta   89.99968494
_cell_angle_gamma   90.00085322
_symmetry_Int_Tables_number   1
_chemical_formula_structural   Na2MnFe(PO4)2
_chemical_formula_sum   'Na96 Mn48 Fe48 P96 O384'
_cell_volume   7998.55570093
_cell_formula_units_Z   48
loop_
 _symmetry_equiv_pos_site_id
 _symmetry_equiv_pos_as_xyz
  1  'x, y, z'
loop_
 _atom_site_type_symbol
 _atom_site_label
 _atom_site_symmetry_multiplicity
 _atom_site_fract_x
 _atom_site_fract_y
 _atom_site_fract_z
 _atom_site_occupancy
  Na  Na0  1  0.00079612  0.00086049  -0.00098698  1
  Na  Na1  1  0.00050650  0.00085657  0.24877543  1
  Na  Na2  1  -0.00050813  0.00054939  0.50034010  1
  Na  Na3  1  -0.00185955  -0.00002217  0.75110583  1
  Na  Na4  1  0.00215150  0.33332305  0.00036416  1
  Na  Na5  1  -0.00064505  0.33299350  0.25047821  1
  Na  Na6  1  -0.00059520  0.33213407  0.49935601  1
  Na  Na7  1  0.00405881  0.33372470  0.75103548  1
  Na  Na8  1  0.00026747  0.66617889  -0.00065392  1
  Na  Na9  1  -0.00214268  0.66682623  0.24990839  1
  Na  Na10  1  -0.00217056  0.66609895  0.50029679  1
  Na  Na11  1  0.00074821  0.66639700  0.74964557  1
  Na  Na12  1  0.50072998  0.00034266  -0.00026753  1
  Na  Na13  1  0.50273699  0.00077183  0.24965347  1
  Na  Na14  1  0.50241599  0.00085464  0.50044975  1
  Na  Na15  1  0.50024446  0.00022019  0.75085663  1
  Na  Na16  1  0.49632153  0.33207922  -0.00008863  1
  Na  Na17  1  0.49949036  0.33341205  0.24887126  1
  Na  Na18  1  0.50151281  0.33380093  0.50000259  1
  Na  Na19  1  0.49804256  0.33279485  0.75032168  1
  Na  Na20  1  0.50012984  0.66598476  0.00063532  1
  Na  Na21  1  0.50257790  0.66643908  0.25003134  1
  Na  Na22  1  0.50297954  0.66698315  0.49942928  1
  Na  Na23  1  0.50014253  0.66616950  0.75031887  1
  Na  Na24  1  0.24903377  -0.00036019  0.12524930  1
  Na  Na25  1  0.24880535  -0.00010674  0.37381664  1
  Na  Na26  1  0.25094608  0.00076943  0.62554837  1
  Na  Na27  1  0.25096144  0.00044873  0.87620180  1
  Na  Na28  1  0.25080947  0.33305620  0.12444243  1
  Na  Na29  1  0.24852361  0.33241610  0.37500276  1
  Na  Na30  1  0.24853013  0.33256393  0.62558390  1
  Na  Na31  1  0.25135584  0.33381956  0.87522477  1
  Na  Na32  1  0.24996374  0.66607163  0.12485971  1
  Na  Na33  1  0.25025778  0.66640669  0.37389960  1
  Na  Na34  1  0.24949581  0.66616462  0.62448543  1
  Na  Na35  1  0.24892895  0.66581473  0.87525207  1
  Na  Na36  1  0.74689904  -0.00023278  0.12464181  1
  Na  Na37  1  0.74858947  0.00024785  0.37517756  1
  Na  Na38  1  0.74859686  0.00010164  0.62477107  1
  Na  Na39  1  0.74905707  0.00107339  0.87552868  1
  Na  Na40  1  0.75147431  0.33387217  0.12505126  1
  Na  Na41  1  0.75078516  0.33307547  0.37562687  1
  Na  Na42  1  0.75033250  0.33296701  0.62454951  1
  Na  Na43  1  0.74837085  0.33175214  0.87458933  1
  Na  Na44  1  0.74952361  0.66621193  0.12452899  1
  Na  Na45  1  0.75015082  0.66625937  0.37465163  1
  Na  Na46  1  0.74977217  0.66655148  0.62629095  1
  Na  Na47  1  0.74936953  0.66605675  0.87510987  1
  Na  Na48  1  0.00183975  0.16590110  -0.00035711  1
  Na  Na49  1  0.00197300  0.16624299  0.24888809  1
  Na  Na50  1  0.00047400  0.16687941  0.50089481  1
  Na  Na51  1  0.00026276  0.16723678  0.75143724  1
  Na  Na52  1  0.00251946  0.49937219  -0.00021940  1
  Na  Na53  1  -0.00304186  0.50132718  0.24972906  1
  Na  Na54  1  0.00086526  0.49872813  0.49990968  1
  Na  Na55  1  0.00178830  0.50002270  0.75014735  1
  Na  Na56  1  0.00004829  0.83315697  -0.00034228  1
  Na  Na57  1  -0.00296318  0.83402011  0.25001307  1
  Na  Na58  1  -0.00341409  0.83386000  0.49967314  1
  Na  Na59  1  -0.00070279  0.83379728  0.74971412  1
  Na  Na60  1  0.50008436  0.16644598  -0.00013870  1
  Na  Na61  1  0.50274590  0.16593200  0.24968297  1
  Na  Na62  1  0.50235494  0.16622984  0.50024759  1
  Na  Na63  1  0.50033937  0.16647115  0.74992202  1
  Na  Na64  1  0.49755749  0.50004140  0.00021595  1
  Na  Na65  1  0.50015515  0.49986022  0.24951755  1
  Na  Na66  1  0.50193292  0.49925521  0.49881517  1
  Na  Na67  1  0.49749700  0.50061285  0.75093432  1
  Na  Na68  1  0.50076561  0.83399252  0.00059644  1
  Na  Na69  1  0.50159847  0.83366067  0.24943088  1
  Na  Na70  1  0.50216694  0.83352015  0.50082910  1
  Na  Na71  1  0.50087489  0.83393289  0.75048973  1
  Na  Na72  1  0.24770446  0.16730140  0.12474853  1
  Na  Na73  1  0.24693268  0.16749958  0.37359939  1
  Na  Na74  1  0.24913255  0.16613913  0.62522172  1
  Na  Na75  1  0.24753675  0.16738622  0.87605333  1
  Na  Na76  1  0.25165033  0.49975561  0.12483304  1
  Na  Na77  1  0.25101059  0.49932496  0.37529096  1
  Na  Na78  1  0.24993697  0.49937449  0.62507072  1
  Na  Na79  1  0.25091696  0.49988132  0.87539023  1
  Na  Na80  1  0.25053945  0.83408382  0.12505971  1
  Na  Na81  1  0.24986408  0.83412966  0.37388204  1
  Na  Na82  1  0.25068930  0.83348469  0.62502017  1
  Na  Na83  1  0.25166526  0.83348439  0.87544481  1
  Na  Na84  1  0.74842045  0.16686740  0.12532759  1
  Na  Na85  1  0.74956754  0.16714258  0.37570777  1
  Na  Na86  1  0.75014578  0.16680952  0.62512193  1
  Na  Na87  1  0.74966807  0.16609356  0.87484296  1
  Na  Na88  1  0.74884635  0.50043023  0.12462195  1
  Na  Na89  1  0.74905779  0.50011590  0.37473858  1
  Na  Na90  1  0.74848992  0.50050384  0.62493028  1
  Na  Na91  1  0.75050446  0.49925815  0.87494656  1
  Na  Na92  1  0.75000411  0.83357865  0.12453853  1
  Na  Na93  1  0.75116517  0.83308606  0.37497465  1
  Na  Na94  1  0.75024140  0.83324445  0.62556608  1
  Na  Na95  1  0.74773151  0.83471422  0.87507338  1
  Mn  Mn96  1  0.14178666  0.58360391  0.49677892  1
  Mn  Mn97  1  0.60851120  0.74995770  0.62283778  1
  Mn  Mn98  1  0.10619066  0.75045850  0.37274112  1
  Mn  Mn99  1  0.39238041  0.58351843  0.62661079  1
  Mn  Mn100  1  0.14263130  0.91654739  0.74819720  1
  Mn  Mn101  1  0.10739326  0.75045168  0.12310857  1
  Mn  Mn102  1  0.14130463  0.91645615  0.24748944  1
  Mn  Mn103  1  0.64174432  0.58263891  0.74858532  1
  Mn  Mn104  1  0.35731221  0.08363630  0.00240192  1
  Mn  Mn105  1  0.60616264  0.41639620  0.87274017  1
  Mn  Mn106  1  0.89231782  0.58188191  0.62764694  1
  Mn  Mn107  1  0.85736143  0.75054420  0.75311444  1
  Mn  Mn108  1  0.64263432  0.91593200  0.49744250  1
  Mn  Mn109  1  0.10781199  0.08328396  0.62356057  1
  Mn  Mn110  1  0.35755481  0.08392498  0.25213909  1
  Mn  Mn111  1  0.35787905  0.41609430  0.50170157  1
  Mn  Mn112  1  0.10781067  0.75010308  0.62208873  1
  Mn  Mn113  1  0.10696799  0.41694231  0.37194932  1
  Mn  Mn114  1  0.35788333  0.08352713  0.50115136  1
  Mn  Mn115  1  0.10794045  0.75030559  0.87251783  1
  Mn  Mn116  1  0.64124653  0.25047363  0.99764876  1
  Mn  Mn117  1  0.85780124  0.41724290  0.50274906  1
  Mn  Mn118  1  0.85837244  0.41620520  0.00156142  1
  Mn  Mn119  1  0.85807591  0.08315864  0.50220534  1
  Mn  Mn120  1  0.85684288  0.75045567  0.00142246  1
  Mn  Mn121  1  0.39404335  0.58380463  0.37704972  1
  Mn  Mn122  1  0.89136882  0.91773479  0.62817408  1
  Mn  Mn123  1  0.35831429  0.74991617  0.75274255  1
  Mn  Mn124  1  0.89280885  0.24979648  0.12687990  1
  Mn  Mn125  1  0.14187076  0.58290887  0.24806033  1
  Mn  Mn126  1  0.35876267  0.74963729  0.25274310  1
  Mn  Mn127  1  0.10816452  0.41692989  0.12326952  1
  Mn  Mn128  1  0.60749038  0.41633585  0.62363181  1
  Mn  Mn129  1  0.89166681  0.58307121  0.12610440  1
  Mn  Mn130  1  0.14142324  0.91682761  0.49736655  1
  Mn  Mn131  1  0.60825368  0.75021062  0.12249678  1
  Mn  Mn132  1  0.39273849  0.24945703  0.37693622  1
  Mn  Mn133  1  0.39273162  0.91690552  0.62706685  1
  Mn  Mn134  1  0.39361124  0.91685746  0.37709073  1
  Mn  Mn135  1  0.89307737  0.25053399  0.87725809  1
  Mn  Mn136  1  0.35890020  0.75018570  0.50139272  1
  Mn  Mn137  1  0.35818590  0.75003329  0.00246336  1
  Mn  Mn138  1  0.60701563  0.41600030  0.12252374  1
  Mn  Mn139  1  0.64260156  0.25082843  0.49766355  1
  Mn  Mn140  1  0.85870119  0.41592175  0.75257836  1
  Mn  Mn141  1  0.39164695  0.24950511  0.62692610  1
  Mn  Mn142  1  0.85728092  0.08364665  0.25201611  1
  Mn  Mn143  1  0.89168789  0.91703796  0.12643730  1
  Fe  Fe144  1  0.14290996  0.91629077  0.99771580  1
  Fe  Fe145  1  0.60703710  0.08388821  0.12319708  1
  Fe  Fe146  1  0.10737377  0.08267374  0.12242561  1
  Fe  Fe147  1  0.60738256  0.08384650  0.62414787  1
  Fe  Fe148  1  0.85644356  0.08358063  0.00137780  1
  Fe  Fe149  1  0.89369378  0.58313748  0.87651447  1
  Fe  Fe150  1  0.64213561  0.24971850  0.74830682  1
  Fe  Fe151  1  0.35788330  0.08377883  0.75233693  1
  Fe  Fe152  1  0.64360255  0.58286703  0.24804611  1
  Fe  Fe153  1  0.39364547  0.91683797  0.87697092  1
  Fe  Fe154  1  0.14221572  0.25061389  0.24803283  1
  Fe  Fe155  1  0.14171809  0.24963867  0.49808729  1
  Fe  Fe156  1  0.89185669  0.91680524  0.87712167  1
  Fe  Fe157  1  0.60932833  0.75008104  0.37255816  1
  Fe  Fe158  1  0.39174463  0.58398803  0.87706386  1
  Fe  Fe159  1  0.60679312  0.75011991  0.87389271  1
  Fe  Fe160  1  0.89292215  0.24955456  0.37619030  1
  Fe  Fe161  1  0.64179873  0.58319035  0.99750697  1
  Fe  Fe162  1  0.35744808  0.41629822  0.25185099  1
  Fe  Fe163  1  0.39199579  0.24930800  0.12736435  1
  Fe  Fe164  1  0.60698084  0.08369959  0.87276654  1
  Fe  Fe165  1  0.64198136  0.91664814  0.99760125  1
  Fe  Fe166  1  0.60853704  0.08375467  0.37276725  1
  Fe  Fe167  1  0.85676643  0.41662167  0.25172805  1
  Fe  Fe168  1  0.10798773  0.41648254  0.62322116  1
  Fe  Fe169  1  0.89101017  0.58320513  0.37704813  1
  Fe  Fe170  1  0.35653811  0.41665324  0.00157573  1
  Fe  Fe171  1  0.64252929  0.91753620  0.74904325  1
  Fe  Fe172  1  0.85639385  0.08362642  0.75209552  1
  Fe  Fe173  1  0.10665442  0.08290937  0.37349953  1
  Fe  Fe174  1  0.85652549  0.74956161  0.50166944  1
  Fe  Fe175  1  0.64290329  0.58328164  0.49817967  1
  Fe  Fe176  1  0.14358288  0.24994134  0.74853825  1
  Fe  Fe177  1  0.39342671  0.91691125  0.12674751  1
  Fe  Fe178  1  0.14333134  0.58352005  0.99818852  1
  Fe  Fe179  1  0.14342665  0.25044159  0.99823473  1
  Fe  Fe180  1  0.60825624  0.41619319  0.37204577  1
  Fe  Fe181  1  0.85654241  0.74967706  0.25165677  1
  Fe  Fe182  1  0.64310677  0.91660437  0.24825488  1
  Fe  Fe183  1  0.10903921  0.41663868  0.87332974  1
  Fe  Fe184  1  0.10672711  0.08282615  0.87301374  1
  Fe  Fe185  1  0.89154759  0.91741047  0.37620697  1
  Fe  Fe186  1  0.39274360  0.58356542  0.12717109  1
  Fe  Fe187  1  0.39198910  0.24925284  0.87637134  1
  Fe  Fe188  1  0.89343536  0.25012874  0.62742939  1
  Fe  Fe189  1  0.64295134  0.25050501  0.24832524  1
  Fe  Fe190  1  0.14323892  0.58308548  0.74848756  1
  Fe  Fe191  1  0.35648810  0.41618265  0.75156999  1
  P  P192  1  0.05566791  0.24953683  0.11033707  1
  P  P193  1  0.05372133  0.24910508  0.36036782  1
  P  P194  1  0.05469074  0.25045811  0.61116289  1
  P  P195  1  0.05643779  0.24976951  0.86131451  1
  P  P196  1  0.05381698  0.58353154  0.10919178  1
  P  P197  1  0.05063560  0.58362470  0.35974412  1
  P  P198  1  0.05484307  0.58229559  0.61098685  1
  P  P199  1  0.05509260  0.58268929  0.86056100  1
  P  P200  1  0.05352292  0.91713649  0.10869682  1
  P  P201  1  0.05088155  0.91731419  0.35981591  1
  P  P202  1  0.05262133  0.91702050  0.61007500  1
  P  P203  1  0.05284746  0.91741248  0.86109387  1
  P  P204  1  0.55270046  0.24974406  0.11107359  1
  P  P205  1  0.55451892  0.25047514  0.35902247  1
  P  P206  1  0.55435399  0.24936631  0.61128941  1
  P  P207  1  0.55211491  0.24944909  0.85958763  1
  P  P208  1  0.55421725  0.58272699  0.11066126  1
  P  P209  1  0.55665146  0.58294360  0.36009704  1
  P  P210  1  0.55414234  0.58282755  0.60923350  1
  P  P211  1  0.55234370  0.58359183  0.86163102  1
  P  P212  1  0.55468989  0.91762763  0.11058871  1
  P  P213  1  0.55520431  0.91662750  0.35922333  1
  P  P214  1  0.55531441  0.91803137  0.61168943  1
  P  P215  1  0.55428607  0.91701861  0.86117145  1
  P  P216  1  0.44743863  0.08317459  0.13972070  1
  P  P217  1  0.44911134  0.08352924  0.38966647  1
  P  P218  1  0.44722474  0.08343475  0.64073513  1
  P  P219  1  0.44635616  0.08359922  0.88898665  1
  P  P220  1  0.44387956  0.41658489  0.13897031  1
  P  P221  1  0.44753706  0.41627989  0.38850516  1
  P  P222  1  0.44572201  0.41651247  0.64071110  1
  P  P223  1  0.44331435  0.41625207  0.88928891  1
  P  P224  1  0.44701469  0.75005179  0.13998130  1
  P  P225  1  0.45003642  0.75023278  0.38979883  1
  P  P226  1  0.44757003  0.75001620  0.64032150  1
  P  P227  1  0.44782522  0.75045478  0.89028885  1
  P  P228  1  0.94653839  0.08340082  0.13825584  1
  P  P229  1  0.94736007  0.08387623  0.38949906  1
  P  P230  1  0.94588960  0.08475837  0.64150969  1
  P  P231  1  0.94524222  0.08309597  0.88950757  1
  P  P232  1  0.94614547  0.41647639  0.14061301  1
  P  P233  1  0.94454399  0.41642204  0.38863280  1
  P  P234  1  0.94859775  0.41517965  0.64039571  1
  P  P235  1  0.94925391  0.41715375  0.88991535  1
  P  P236  1  0.94509523  0.75006008  0.14022066  1
  P  P237  1  0.94319020  0.74996125  0.38916143  1
  P  P238  1  0.94502807  0.74966242  0.63926766  1
  P  P239  1  0.94638752  0.74978679  0.88971767  1
  P  P240  1  0.19405769  0.08407860  0.23522940  1
  P  P241  1  0.19565075  0.08397756  0.48406336  1
  P  P242  1  0.19697873  0.08369015  0.73698220  1
  P  P243  1  0.19443138  0.08285918  0.98586681  1
  P  P244  1  0.19785984  0.41609079  0.23487920  1
  P  P245  1  0.19504605  0.41553881  0.48569918  1
  P  P246  1  0.19602632  0.41651861  0.73621043  1
  P  P247  1  0.19729504  0.41681598  0.98500822  1
  P  P248  1  0.19680455  0.74988404  0.23470621  1
  P  P249  1  0.19710421  0.75033128  0.48377235  1
  P  P250  1  0.19696809  0.74937954  0.73493314  1
  P  P251  1  0.19675580  0.75036848  0.98532537  1
  P  P252  1  0.69465370  0.08391736  0.23550698  1
  P  P253  1  0.69520686  0.08376379  0.48573300  1
  P  P254  1  0.69538045  0.08360497  0.73600306  1
  P  P255  1  0.69479439  0.08323809  0.98544899  1
  P  P256  1  0.69669717  0.41614426  0.23582182  1
  P  P257  1  0.69605803  0.41729032  0.48448981  1
  P  P258  1  0.69676530  0.41552102  0.73525360  1
  P  P259  1  0.69626966  0.41697440  0.98461335  1
  P  P260  1  0.69689266  0.74995187  0.23585912  1
  P  P261  1  0.69739748  0.74917664  0.48449095  1
  P  P262  1  0.69497059  0.75083780  0.73698688  1
  P  P263  1  0.69522301  0.75000279  0.98425748  1
  P  P264  1  0.30403425  0.25010048  0.01422090  1
  P  P265  1  0.30322517  0.25048053  0.26384416  1
  P  P266  1  0.30157018  0.24953264  0.51470643  1
  P  P267  1  0.30285283  0.24961106  0.76551698  1
  P  P268  1  0.30429728  0.58297397  0.01440522  1
  P  P269  1  0.30495660  0.58220572  0.26409466  1
  P  P270  1  0.30347975  0.58312925  0.51458519  1
  P  P271  1  0.30292132  0.58252292  0.76529692  1
  P  P272  1  0.30444614  0.91708010  0.01465241  1
  P  P273  1  0.30472388  0.91721840  0.26386226  1
  P  P274  1  0.30331629  0.91713336  0.51477175  1
  P  P275  1  0.30463155  0.91767669  0.76613433  1
  P  P276  1  0.80321634  0.24894535  0.01481509  1
  P  P277  1  0.80285894  0.25028676  0.26529148  1
  P  P278  1  0.80571124  0.24990468  0.51483485  1
  P  P279  1  0.80327972  0.24914370  0.76402096  1
  P  P280  1  0.80282403  0.58314718  0.01324066  1
  P  P281  1  0.80278689  0.58295346  0.26475849  1
  P  P282  1  0.80294927  0.58395718  0.51432095  1
  P  P283  1  0.80407620  0.58276834  0.76613413  1
  P  P284  1  0.80255263  0.91795847  0.01345248  1
  P  P285  1  0.80237012  0.91681167  0.26481825  1
  P  P286  1  0.80447732  0.91616050  0.51394714  1
  P  P287  1  0.80224450  0.91823529  0.76596355  1
  O  O288  1  0.05901527  0.25079497  0.18718230  1
  O  O289  1  0.05779586  0.24983567  0.43711950  1
  O  O290  1  0.05972243  0.24967865  0.68790164  1
  O  O291  1  0.06022774  0.25010677  0.93812990  1
  O  O292  1  0.05647424  0.58353640  0.18600764  1
  O  O293  1  0.05497042  0.58330666  0.43644991  1
  O  O294  1  0.05935644  0.58313436  0.68775455  1
  O  O295  1  0.05995872  0.58324086  0.93729427  1
  O  O296  1  0.05602487  0.91644476  0.18554124  1
  O  O297  1  0.05450415  0.91654359  0.43650411  1
  O  O298  1  0.05641106  0.91692729  0.68686952  1
  O  O299  1  0.05809177  0.91661067  0.93768160  1
  O  O300  1  0.55828290  0.25077749  0.18759515  1
  O  O301  1  0.55714907  0.25080740  0.43589054  1
  O  O302  1  0.55821690  0.25014979  0.68804311  1
  O  O303  1  0.55552495  0.25015856  0.93634362  1
  O  O304  1  0.55992373  0.58252798  0.18732394  1
  O  O305  1  0.56014351  0.58309609  0.43691944  1
  O  O306  1  0.55673251  0.58270454  0.68610536  1
  O  O307  1  0.55716051  0.58258278  0.93832252  1
  O  O308  1  0.55967107  0.91662116  0.18723876  1
  O  O309  1  0.55749730  0.91630956  0.43607661  1
  O  O310  1  0.55885990  0.91739703  0.68848541  1
  O  O311  1  0.55830325  0.91714186  0.93796672  1
  O  O312  1  0.44365275  0.08339051  0.06301032  1
  O  O313  1  0.44449375  0.08372066  0.31303194  1
  O  O314  1  0.44363088  0.08363815  0.56399749  1
  O  O315  1  0.44174699  0.08384843  0.81233087  1
  O  O316  1  0.43979172  0.41642629  0.06212854  1
  O  O317  1  0.44219291  0.41610573  0.31185344  1
  O  O318  1  0.44332718  0.41633213  0.56383086  1
  O  O319  1  0.43958285  0.41641979  0.81247874  1
  O  O320  1  0.44402064  0.74995898  0.06322717  1
  O  O321  1  0.44567134  0.74993747  0.31309847  1
  O  O322  1  0.44476435  0.75003589  0.56351595  1
  O  O323  1  0.44453730  0.75023753  0.81356331  1
  O  O324  1  0.94122528  0.08347760  0.06166632  1
  O  O325  1  0.94398527  0.08403455  0.31275721  1
  O  O326  1  0.94318525  0.08372854  0.56469795  1
  O  O327  1  0.94024872  0.08367376  0.81285609  1
  O  O328  1  0.94354852  0.41624630  0.06375972  1
  O  O329  1  0.94026598  0.41678110  0.31186373  1
  O  O330  1  0.94439713  0.41591935  0.56368691  1
  O  O331  1  0.94527306  0.41632850  0.81324796  1
  O  O332  1  0.94207534  0.74989650  0.06341920  1
  O  O333  1  0.93931599  0.74985625  0.31227017  1
  O  O334  1  0.94035919  0.74952602  0.56248789  1
  O  O335  1  0.94367449  0.75001608  0.81290451  1
  O  O336  1  0.19106630  0.08255756  0.06271167  1
  O  O337  1  0.18975159  0.08296098  0.31199688  1
  O  O338  1  0.19304687  0.08304241  0.56091236  1
  O  O339  1  0.19185320  0.08266080  0.81360465  1
  O  O340  1  0.19409643  0.41683168  0.06167999  1
  O  O341  1  0.19369816  0.41668476  0.31159636  1
  O  O342  1  0.19137292  0.41616171  0.56252372  1
  O  O343  1  0.19223614  0.41682370  0.81300260  1
  O  O344  1  0.19381084  0.75052080  0.06203659  1
  O  O345  1  0.19275148  0.75014918  0.31143777  1
  O  O346  1  0.19382421  0.75029130  0.56059700  1
  O  O347  1  0.19373973  0.75022642  0.81174503  1
  O  O348  1  0.69016828  0.08403341  0.06220073  1
  O  O349  1  0.69145418  0.08402608  0.31238099  1
  O  O350  1  0.69121524  0.08397674  0.56248835  1
  O  O351  1  0.69091437  0.08393753  0.81277983  1
  O  O352  1  0.69306575  0.41651783  0.06141667  1
  O  O353  1  0.69261489  0.41583528  0.31250716  1
  O  O354  1  0.69288739  0.41627567  0.56126506  1
  O  O355  1  0.69291884  0.41578300  0.81198617  1
  O  O356  1  0.69321878  0.75000158  0.06121516  1
  O  O357  1  0.69303578  0.75013743  0.31254316  1
  O  O358  1  0.69411258  0.74998108  0.56129723  1
  O  O359  1  0.69049823  0.75005421  0.81369688  1
  O  O360  1  0.30817617  0.24921558  0.18711793  1
  O  O361  1  0.30584111  0.24952921  0.43798953  1
  O  O362  1  0.30595189  0.24903619  0.68877865  1
  O  O363  1  0.30861537  0.24882368  0.93755727  1
  O  O364  1  0.30899803  0.58344078  0.18727638  1
  O  O365  1  0.30751792  0.58320607  0.43779877  1
  O  O366  1  0.30645964  0.58333527  0.68860617  1
  O  O367  1  0.30882247  0.58421641  0.93764741  1
  O  O368  1  0.30971903  0.91743741  0.18709986  1
  O  O369  1  0.30687760  0.91717644  0.43795696  1
  O  O370  1  0.30747293  0.91722158  0.68931607  1
  O  O371  1  0.31006524  0.91703603  0.93798629  1
  O  O372  1  0.80672911  0.24941881  0.18857036  1
  O  O373  1  0.81005433  0.24953654  0.43807181  1
  O  O374  1  0.80837375  0.25026133  0.68740150  1
  O  O375  1  0.80667542  0.24942164  0.93804844  1
  O  O376  1  0.80592151  0.58292744  0.18800565  1
  O  O377  1  0.80729120  0.58286371  0.43761372  1
  O  O378  1  0.80712172  0.58262297  0.68927759  1
  O  O379  1  0.80863591  0.58269839  0.93669513  1
  O  O380  1  0.80566961  0.91778258  0.18804297  1
  O  O381  1  0.80834832  0.91765378  0.43716621  1
  O  O382  1  0.80568952  0.91750960  0.68917912  1
  O  O383  1  0.80763967  0.91753222  0.93681887  1
  O  O384  1  0.23347156  0.24992522  0.03750200  1
  O  O385  1  0.23281644  0.25032323  0.28728669  1
  O  O386  1  0.23159314  0.24939643  0.53928502  1
  O  O387  1  0.23280169  0.25036491  0.79033121  1
  O  O388  1  0.23381346  0.58319075  0.03786306  1
  O  O389  1  0.23500147  0.58258852  0.28857138  1
  O  O390  1  0.23368364  0.58279527  0.53918322  1
  O  O391  1  0.23277903  0.58271147  0.78979446  1
  O  O392  1  0.23384632  0.91702192  0.03744851  1
  O  O393  1  0.23441943  0.91713801  0.28719480  1
  O  O394  1  0.23368062  0.91725929  0.53999329  1
  O  O395  1  0.23486420  0.91708122  0.79123486  1
  O  O396  1  0.73349396  0.24991057  0.03979438  1
  O  O397  1  0.73273417  0.24991072  0.28966125  1
  O  O398  1  0.73545764  0.25024121  0.53833821  1
  O  O399  1  0.73289900  0.24886178  0.78776522  1
  O  O400  1  0.73236964  0.58359462  0.03666510  1
  O  O401  1  0.73265431  0.58290649  0.28936151  1
  O  O402  1  0.73277922  0.58353721  0.53856199  1
  O  O403  1  0.73415777  0.58255728  0.79063226  1
  O  O404  1  0.73214839  0.91696931  0.03702599  1
  O  O405  1  0.73229825  0.91709636  0.28946980  1
  O  O406  1  0.73460075  0.91635956  0.53855183  1
  O  O407  1  0.73211040  0.91807185  0.79030911  1
  O  O408  1  0.26419831  0.08363243  0.21116197  1
  O  O409  1  0.26520690  0.08380371  0.45832466  1
  O  O410  1  0.26731394  0.08364888  0.71317681  1
  O  O411  1  0.26453301  0.08348615  0.96166671  1
  O  O412  1  0.26775227  0.41609058  0.21014537  1
  O  O413  1  0.26492282  0.41590238  0.46097880  1
  O  O414  1  0.26633582  0.41601740  0.71199409  1
  O  O415  1  0.26746457  0.41671637  0.96046001  1
  O  O416  1  0.26663313  0.74990786  0.21007145  1
  O  O417  1  0.26673242  0.75032919  0.45844411  1
  O  O418  1  0.26668784  0.74967082  0.70989871  1
  O  O419  1  0.26644474  0.75004373  0.96001605  1
  O  O420  1  0.76458358  0.08355296  0.21076548  1
  O  O421  1  0.76525536  0.08373159  0.46156919  1
  O  O422  1  0.76568254  0.08349613  0.71199267  1
  O  O423  1  0.76516195  0.08364459  0.96177886  1
  O  O424  1  0.76692366  0.41664746  0.21149898  1
  O  O425  1  0.76591918  0.41657282  0.45987449  1
  O  O426  1  0.76649803  0.41650713  0.71022552  1
  O  O427  1  0.76596666  0.41587538  0.95946323  1
  O  O428  1  0.76701244  0.74975100  0.21117655  1
  O  O429  1  0.76730676  0.74972610  0.45966876  1
  O  O430  1  0.76497730  0.75020687  0.71273114  1
  O  O431  1  0.76474089  0.75028507  0.95863125  1
  O  O432  1  0.01696400  0.08331451  0.16155784  1
  O  O433  1  0.01719028  0.08362403  0.41482820  1
  O  O434  1  0.01557238  0.08384869  0.66669978  1
  O  O435  1  0.01584767  0.08362650  0.91255390  1
  O  O436  1  0.01580214  0.41705663  0.16586567  1
  O  O437  1  0.01455662  0.41587668  0.41293229  1
  O  O438  1  0.01864559  0.41585627  0.66481142  1
  O  O439  1  0.01940804  0.41635571  0.91423799  1
  O  O440  1  0.01477751  0.75050678  0.16532317  1
  O  O441  1  0.01317335  0.74986268  0.41372850  1
  O  O442  1  0.01509064  0.75011165  0.66325113  1
  O  O443  1  0.01600716  0.74992322  0.91509543  1
  O  O444  1  0.51759901  0.08341501  0.16404370  1
  O  O445  1  0.51935719  0.08362042  0.41355587  1
  O  O446  1  0.51730528  0.08350960  0.66525911  1
  O  O447  1  0.51672896  0.08346728  0.91278497  1
  O  O448  1  0.51407204  0.41670538  0.16288211  1
  O  O449  1  0.51797750  0.41643239  0.41176488  1
  O  O450  1  0.51527081  0.41655252  0.66630106  1
  O  O451  1  0.51332873  0.41593732  0.91386614  1
  O  O452  1  0.51683431  0.74996332  0.16499101  1
  O  O453  1  0.52021865  0.75021068  0.41385163  1
  O  O454  1  0.51714754  0.74994898  0.66571595  1
  O  O455  1  0.51770639  0.75039780  0.91549223  1
  O  O456  1  0.48221119  0.24954099  0.08772279  1
  O  O457  1  0.48487013  0.24998884  0.33360786  1
  O  O458  1  0.48454324  0.24968526  0.58640666  1
  O  O459  1  0.48193344  0.24962224  0.83530277  1
  O  O460  1  0.48351605  0.58282329  0.08807837  1
  O  O461  1  0.48667207  0.58296831  0.33551588  1
  O  O462  1  0.48463215  0.58300012  0.58365354  1
  O  O463  1  0.48196099  0.58339066  0.83791318  1
  O  O464  1  0.48423684  0.91708923  0.08707304  1
  O  O465  1  0.48567836  0.91702334  0.33345459  1
  O  O466  1  0.48560872  0.91755531  0.58658772  1
  O  O467  1  0.48395246  0.91730687  0.83718295  1
  O  O468  1  0.98574500  0.24970287  0.08566553  1
  O  O469  1  0.98342509  0.24975786  0.33621060  1
  O  O470  1  0.98433278  0.24978017  0.58752665  1
  O  O471  1  0.98631921  0.25008168  0.83714951  1
  O  O472  1  0.98412112  0.58284770  0.08399627  1
  O  O473  1  0.98043514  0.58383105  0.33578374  1
  O  O474  1  0.98477704  0.58220354  0.58687051  1
  O  O475  1  0.98469370  0.58334682  0.83689008  1
  O  O476  1  0.98381856  0.91692164  0.08348201  1
  O  O477  1  0.98085814  0.91745349  0.33493302  1
  O  O478  1  0.98274275  0.91746192  0.58566848  1
  O  O479  1  0.98236551  0.91716208  0.83762145  1
  O  O480  1  0.08964893  0.31447429  0.07723548  1
  O  O481  1  0.08762372  0.31387774  0.32677560  1
  O  O482  1  0.08778098  0.31562306  0.57781618  1
  O  O483  1  0.09040233  0.31460643  0.82825323  1
  O  O484  1  0.08776020  0.64867360  0.07672592  1
  O  O485  1  0.08450381  0.64854743  0.32699001  1
  O  O486  1  0.08801809  0.64735109  0.57740291  1
  O  O487  1  0.08877348  0.64748761  0.82694384  1
  O  O488  1  0.08784712  0.98220341  0.07660217  1
  O  O489  1  0.08502051  0.98235326  0.32749826  1
  O  O490  1  0.08658058  0.98223201  0.57777032  1
  O  O491  1  0.08592079  0.98273965  0.82789899  1
  O  O492  1  0.58540867  0.31476753  0.07692148  1
  O  O493  1  0.58863505  0.31550286  0.32626242  1
  O  O494  1  0.58823278  0.31422467  0.57807562  1
  O  O495  1  0.58613634  0.31426236  0.82652181  1
  O  O496  1  0.58735814  0.64787657  0.07725565  1
  O  O497  1  0.59047900  0.64801905  0.32719177  1
  O  O498  1  0.58888977  0.64775283  0.57707579  1
  O  O499  1  0.58570768  0.64873442  0.82875597  1
  O  O500  1  0.58773889  0.98286987  0.07742498  1
  O  O501  1  0.58980235  0.98171163  0.32729615  1
  O  O502  1  0.58896833  0.98327959  0.57923052  1
  O  O503  1  0.58791433  0.98206734  0.82802084  1
  O  O504  1  0.41407966  0.01792572  0.17244857  1
  O  O505  1  0.41570216  0.01843817  0.42268958  1
  O  O506  1  0.41331310  0.01851619  0.67362391  1
  O  O507  1  0.41311029  0.01854095  0.92237215  1
  O  O508  1  0.41039382  0.35143410  0.17208997  1
  O  O509  1  0.41436836  0.35121777  0.42213490  1
  O  O510  1  0.41115082  0.35151640  0.67290039  1
  O  O511  1  0.40948937  0.35105856  0.92200749  1
  O  O512  1  0.41318327  0.68483755  0.17242437  1
  O  O513  1  0.41633924  0.68518907  0.42270645  1
  O  O514  1  0.41338574  0.68490538  0.67261906  1
  O  O515  1  0.41366167  0.68547092  0.92282551  1
  O  O516  1  0.91323983  0.01843897  0.17177664  1
  O  O517  1  0.91308140  0.01885666  0.42192641  1
  O  O518  1  0.91080244  0.02027460  0.67419686  1
  O  O519  1  0.91205726  0.01797401  0.92295502  1
  O  O520  1  0.91206939  0.35137995  0.17305662  1
  O  O521  1  0.91103472  0.35116483  0.42133864  1
  O  O522  1  0.91520700  0.34990908  0.67326446  1
  O  O523  1  0.91515705  0.35226353  0.92284641  1
  O  O524  1  0.91102899  0.68490684  0.17262669  1
  O  O525  1  0.90942126  0.68487595  0.42220514  1
  O  O526  1  0.91181507  0.68449007  0.67243624  1
  O  O527  1  0.91245516  0.68442117  0.92183504  1
  O  O528  1  0.16006802  0.01934095  0.20172996  1
  O  O529  1  0.16098363  0.01921995  0.45131597  1
  O  O530  1  0.16364124  0.01893851  0.70304047  1
  O  O531  1  0.16101858  0.01771820  0.95259449  1
  O  O532  1  0.16389728  0.35103967  0.20232938  1
  O  O533  1  0.16142723  0.35017547  0.45325188  1
  O  O534  1  0.16232956  0.35135854  0.70339867  1
  O  O535  1  0.16353352  0.35176155  0.95215912  1
  O  O536  1  0.16287905  0.68472766  0.20226289  1
  O  O537  1  0.16281691  0.68525300  0.45144349  1
  O  O538  1  0.16303524  0.68401970  0.70297226  1
  O  O539  1  0.16258648  0.68520444  0.95312304  1
  O  O540  1  0.66058884  0.01891721  0.20279496  1
  O  O541  1  0.66153738  0.01878987  0.45266815  1
  O  O542  1  0.66190714  0.01840691  0.70310907  1
  O  O543  1  0.66150522  0.01804475  0.95238634  1
  O  O544  1  0.66349275  0.35093993  0.20243435  1
  O  O545  1  0.66168539  0.35254582  0.45144924  1
  O  O546  1  0.66326548  0.35014354  0.70270506  1
  O  O547  1  0.66160400  0.35210818  0.95232625  1
  O  O548  1  0.66325367  0.68485131  0.20293931  1
  O  O549  1  0.66358128  0.68405200  0.45207853  1
  O  O550  1  0.66131897  0.68585908  0.70374922  1
  O  O551  1  0.66070542  0.68497352  0.95224538  1
  O  O552  1  0.33723786  0.31531029  0.04707777  1
  O  O553  1  0.33649006  0.31569740  0.29682540  1
  O  O554  1  0.33538101  0.31456206  0.54753989  1
  O  O555  1  0.33713348  0.31464839  0.79772163  1
  O  O556  1  0.33793869  0.64763852  0.04821153  1
  O  O557  1  0.33892249  0.64700592  0.29741230  1
  O  O558  1  0.33724497  0.64835680  0.54714057  1
  O  O559  1  0.33695781  0.64736358  0.79863235  1
  O  O560  1  0.33747381  0.98221894  0.04824897  1
  O  O561  1  0.33783297  0.98233125  0.29731517  1
  O  O562  1  0.33743655  0.98228956  0.54713413  1
  O  O563  1  0.33865384  0.98283094  0.79853478  1
  O  O564  1  0.83787389  0.31378140  0.04713461  1
  O  O565  1  0.83669963  0.31540992  0.29776896  1
  O  O566  1  0.83939174  0.31485027  0.54810253  1
  O  O567  1  0.83654579  0.31406314  0.79794739  1
  O  O568  1  0.83601319  0.64827788  0.04664140  1
  O  O569  1  0.83648102  0.64806312  0.29749246  1
  O  O570  1  0.83622730  0.64920343  0.54705491  1
  O  O571  1  0.83806345  0.64786510  0.79862208  1
  O  O572  1  0.83523701  0.98326733  0.04696451  1
  O  O573  1  0.83636632  0.98167991  0.29800770  1
  O  O574  1  0.83803806  0.98109255  0.54739966  1
  O  O575  1  0.83614267  0.98333461  0.79843624  1
  O  O576  1  0.41355721  0.14814027  0.17266757  1
  O  O577  1  0.41550560  0.14856455  0.42278603  1
  O  O578  1  0.41310920  0.14838515  0.67359635  1
  O  O579  1  0.41305899  0.14868929  0.92236694  1
  O  O580  1  0.41048710  0.48171814  0.17206144  1
  O  O581  1  0.41431037  0.48130619  0.42193423  1
  O  O582  1  0.41122493  0.48146361  0.67289202  1
  O  O583  1  0.40974668  0.48137928  0.92237190  1
  O  O584  1  0.41327531  0.81538545  0.17218869  1
  O  O585  1  0.41636248  0.81534488  0.42253309  1
  O  O586  1  0.41347481  0.81509980  0.67267510  1
  O  O587  1  0.41409411  0.81572243  0.92275533  1
  O  O588  1  0.91354564  0.14835531  0.17211202  1
  O  O589  1  0.91365781  0.14901726  0.42226944  1
  O  O590  1  0.91215888  0.15022886  0.67357732  1
  O  O591  1  0.91196716  0.14804731  0.92326116  1
  O  O592  1  0.91125191  0.48132603  0.17255293  1
  O  O593  1  0.91140465  0.48171851  0.42198694  1
  O  O594  1  0.91449179  0.48001549  0.67328442  1
  O  O595  1  0.91574398  0.48244846  0.92249184  1
  O  O596  1  0.91044083  0.81494396  0.17245954  1
  O  O597  1  0.90953228  0.81527400  0.42170502  1
  O  O598  1  0.91121501  0.81469422  0.67230724  1
  O  O599  1  0.91199933  0.81485975  0.92196233  1
  O  O600  1  0.08953167  0.18440933  0.07791250  1
  O  O601  1  0.08708455  0.18391158  0.32755103  1
  O  O602  1  0.08828091  0.18553314  0.57763477  1
  O  O603  1  0.08969811  0.18438860  0.82834972  1
  O  O604  1  0.08865453  0.51870831  0.07700021  1
  O  O605  1  0.08423687  0.51849676  0.32671906  1
  O  O606  1  0.08825497  0.51689257  0.57841627  1
  O  O607  1  0.08829490  0.51739691  0.82751588  1
  O  O608  1  0.08797611  0.85220667  0.07621091  1
  O  O609  1  0.08456334  0.85227110  0.32670927  1
  O  O610  1  0.08617131  0.85199394  0.57706973  1
  O  O611  1  0.08618482  0.85257234  0.82732446  1
  O  O612  1  0.58607916  0.18465355  0.07793963  1
  O  O613  1  0.58917098  0.18548229  0.32703402  1
  O  O614  1  0.58812950  0.18413511  0.57883138  1
  O  O615  1  0.58620448  0.18436750  0.82720529  1
  O  O616  1  0.58716258  0.51783695  0.07668709  1
  O  O617  1  0.59022384  0.51772303  0.32710223  1
  O  O618  1  0.58851382  0.51786588  0.57693491  1
  O  O619  1  0.58544827  0.51860009  0.82782532  1
  O  O620  1  0.58829270  0.85275808  0.07693895  1
  O  O621  1  0.58952490  0.85156037  0.32678188  1
  O  O622  1  0.58939229  0.85312979  0.57867708  1
  O  O623  1  0.58764410  0.85189840  0.82813252  1
  O  O624  1  0.33720949  0.18529061  0.04837906  1
  O  O625  1  0.33635617  0.18553391  0.29768483  1
  O  O626  1  0.33551104  0.18451919  0.54746114  1
  O  O627  1  0.33655103  0.18468091  0.79884114  1
  O  O628  1  0.33752530  0.51764078  0.04707706  1
  O  O629  1  0.33838689  0.51670084  0.29644105  1
  O  O630  1  0.33738676  0.51799825  0.54713005  1
  O  O631  1  0.33666572  0.51736568  0.79780959  1
  O  O632  1  0.33789207  0.85221575  0.04820337  1
  O  O633  1  0.33812943  0.85214241  0.29706763  1
  O  O634  1  0.33756062  0.85205391  0.54711261  1
  O  O635  1  0.33919824  0.85275634  0.79865645  1
  O  O636  1  0.83665836  0.18350864  0.04732441  1
  O  O637  1  0.83688562  0.18539791  0.29847560  1
  O  O638  1  0.83901689  0.18494452  0.54829286  1
  O  O639  1  0.83667663  0.18403927  0.79713416  1
  O  O640  1  0.83578137  0.51806860  0.04699005  1
  O  O641  1  0.83663951  0.51799185  0.29769894  1
  O  O642  1  0.83656479  0.51902842  0.54786971  1
  O  O643  1  0.83859796  0.51793276  0.79863579  1
  O  O644  1  0.83617792  0.85303798  0.04671365  1
  O  O645  1  0.83626201  0.85165056  0.29699020  1
  O  O646  1  0.83777604  0.85068175  0.54629280  1
  O  O647  1  0.83627930  0.85334020  0.79895995  1
  O  O648  1  0.16072758  0.14950730  0.20266297  1
  O  O649  1  0.16120583  0.14925408  0.45231291  1
  O  O650  1  0.16373624  0.14904675  0.70405826  1
  O  O651  1  0.16044388  0.14788887  0.95327359  1
  O  O652  1  0.16405481  0.48116504  0.20206664  1
  O  O653  1  0.16109907  0.48035412  0.45238230  1
  O  O654  1  0.16273976  0.48156888  0.70288093  1
  O  O655  1  0.16352481  0.48186485  0.95216817  1
  O  O656  1  0.16282317  0.81498625  0.20206603  1
  O  O657  1  0.16276563  0.81546004  0.45158212  1
  O  O658  1  0.16281164  0.81443879  0.70239162  1
  O  O659  1  0.16286604  0.81557739  0.95265468  1
  O  O660  1  0.66094742  0.14912573  0.20262654  1
  O  O661  1  0.66155328  0.14870178  0.45246701  1
  O  O662  1  0.66182897  0.14853385  0.70257031  1
  O  O663  1  0.66111898  0.14801594  0.95178217  1
  O  O664  1  0.66294034  0.48114400  0.20288429  1
  O  O665  1  0.66240788  0.48256792  0.45216846  1
  O  O666  1  0.66229738  0.48052476  0.70299028  1
  O  O667  1  0.66248744  0.48222432  0.95224778  1
  O  O668  1  0.66354438  0.81515304  0.20277427  1
  O  O669  1  0.66325895  0.81402334  0.45149747  1
  O  O670  1  0.66211129  0.81644531  0.70423106  1
  O  O671  1  0.66061727  0.81508604  0.95242520  1
