# generated using pymatgen
data_Na2MnFe(PO4)2
_symmetry_space_group_name_H-M   'P 1'
_cell_length_a   21.08924931
_cell_length_b   18.94259200
_cell_length_c   20.04817211
_cell_angle_alpha   90.00005250
_cell_angle_beta   89.99889203
_cell_angle_gamma   90.00062794
_symmetry_Int_Tables_number   1
_chemical_formula_structural   Na2MnFe(PO4)2
_chemical_formula_sum   'Na96 Mn48 Fe48 P96 O384'
_cell_volume   8008.94494095
_cell_formula_units_Z   48
loop_
 _symmetry_equiv_pos_site_id
 _symmetry_equiv_pos_as_xyz
  1  'x, y, z'
loop_
 _atom_site_type_symbol
 _atom_site_label
 _atom_site_symmetry_multiplicity
 _atom_site_fract_x
 _atom_site_fract_y
 _atom_site_fract_z
 _atom_site_occupancy
  Na  Na0  1  0.00078676  0.00034964  0.00088510  1
  Na  Na1  1  0.00094088  0.00104301  0.24863010  1
  Na  Na2  1  -0.00070091  0.00005663  0.50023114  1
  Na  Na3  1  0.00110939  0.00094977  0.75029134  1
  Na  Na4  1  -0.00032026  0.33323361  -0.00137530  1
  Na  Na5  1  -0.00024535  0.33286706  0.24908096  1
  Na  Na6  1  -0.00183253  0.33264191  0.50076768  1
  Na  Na7  1  -0.00186404  0.33276718  0.75126604  1
  Na  Na8  1  -0.00243541  0.66529730  0.00115391  1
  Na  Na9  1  0.00006294  0.66588326  0.24943016  1
  Na  Na10  1  -0.00057643  0.66583603  0.49962759  1
  Na  Na11  1  -0.00206026  0.66576875  0.75038995  1
  Na  Na12  1  0.49791422  0.00018393  0.00009145  1
  Na  Na13  1  0.49797398  0.00020784  0.24965568  1
  Na  Na14  1  0.49833192  -0.00023875  0.49930123  1
  Na  Na15  1  0.49951903  0.00044300  0.75046764  1
  Na  Na16  1  0.49917045  0.33282429  0.00042219  1
  Na  Na17  1  0.49952170  0.33310250  0.24974316  1
  Na  Na18  1  0.50033254  0.33302708  0.49877905  1
  Na  Na19  1  0.49866253  0.33219469  0.75096942  1
  Na  Na20  1  0.50039786  0.66617862  -0.00075389  1
  Na  Na21  1  0.50007963  0.66715269  0.24997296  1
  Na  Na22  1  0.49909339  0.66575635  0.50103295  1
  Na  Na23  1  0.50154193  0.66671952  0.74956312  1
  Na  Na24  1  0.25063628  0.00095403  0.12618366  1
  Na  Na25  1  0.24943896  -0.00012922  0.37465889  1
  Na  Na26  1  0.24898194  -0.00007735  0.62485776  1
  Na  Na27  1  0.24985904  0.00071647  0.87462092  1
  Na  Na28  1  0.25101298  0.33318565  0.12473563  1
  Na  Na29  1  0.25244376  0.33405280  0.37477061  1
  Na  Na30  1  0.25175816  0.33327984  0.62478837  1
  Na  Na31  1  0.25072483  0.33298152  0.87550466  1
  Na  Na32  1  0.24981439  0.66565542  0.12404533  1
  Na  Na33  1  0.25020836  0.66579638  0.37497653  1
  Na  Na34  1  0.25107824  0.66600004  0.62497600  1
  Na  Na35  1  0.25284515  0.66748448  0.87533454  1
  Na  Na36  1  0.74955497  0.00024240  0.12512912  1
  Na  Na37  1  0.75186107  0.00129895  0.37508955  1
  Na  Na38  1  0.75107075  0.00067995  0.62449155  1
  Na  Na39  1  0.75013640  0.00078528  0.87604501  1
  Na  Na40  1  0.75000735  0.33293430  0.12537762  1
  Na  Na41  1  0.74828851  0.33196275  0.37434057  1
  Na  Na42  1  0.75133582  0.33360964  0.62535543  1
  Na  Na43  1  0.75188961  0.33380422  0.87488180  1
  Na  Na44  1  0.75179554  0.66683766  0.12589283  1
  Na  Na45  1  0.75051293  0.66695981  0.37507276  1
  Na  Na46  1  0.74853580  0.66583680  0.62453117  1
  Na  Na47  1  0.75011272  0.66637495  0.87453543  1
  Na  Na48  1  0.00024876  0.16764402  0.00006752  1
  Na  Na49  1  -0.00062043  0.16702253  0.24899463  1
  Na  Na50  1  -0.00172674  0.16748395  0.50113263  1
  Na  Na51  1  0.00007235  0.16740772  0.75008403  1
  Na  Na52  1  -0.00230802  0.50006817  -0.00001670  1
  Na  Na53  1  0.00010913  0.49994546  0.24964635  1
  Na  Na54  1  -0.00038282  0.50025372  0.49980063  1
  Na  Na55  1  -0.00312717  0.50122140  0.75008167  1
  Na  Na56  1  0.00039189  0.83368244  0.00065989  1
  Na  Na57  1  0.00118193  0.83347194  0.24850482  1
  Na  Na58  1  -0.00068684  0.83377911  0.49993062  1
  Na  Na59  1  -0.00072573  0.83362243  0.75157485  1
  Na  Na60  1  0.49915115  0.16736765  0.00080401  1
  Na  Na61  1  0.49915721  0.16752635  0.24964293  1
  Na  Na62  1  0.49957968  0.16723008  0.49872307  1
  Na  Na63  1  0.49912983  0.16807076  0.75116834  1
  Na  Na64  1  0.49877874  0.49954602  -0.00009075  1
  Na  Na65  1  0.49852115  0.50000713  0.24890924  1
  Na  Na66  1  0.50072330  0.49891821  0.50043874  1
  Na  Na67  1  0.49979733  0.49932658  0.75027406  1
  Na  Na68  1  0.50045363  0.83273539  -0.00071936  1
  Na  Na69  1  0.49788157  0.83403577  0.25011234  1
  Na  Na70  1  0.49989950  0.83214658  0.50041939  1
  Na  Na71  1  0.50082438  0.83238855  0.74957738  1
  Na  Na72  1  0.25209662  0.16631492  0.12579657  1
  Na  Na73  1  0.25149298  0.16702337  0.37465680  1
  Na  Na74  1  0.25036194  0.16734334  0.62521751  1
  Na  Na75  1  0.25008227  0.16762980  0.87452208  1
  Na  Na76  1  0.25042896  0.49949501  0.12381232  1
  Na  Na77  1  0.24904418  0.50027912  0.37530408  1
  Na  Na78  1  0.25028993  0.49999083  0.62473039  1
  Na  Na79  1  0.25304499  0.49829807  0.87610434  1
  Na  Na80  1  0.24907653  0.83443916  0.12537650  1
  Na  Na81  1  0.25078321  0.83328792  0.37451398  1
  Na  Na82  1  0.25211741  0.83203982  0.62448701  1
  Na  Na83  1  0.24915605  0.83414890  0.87519340  1
  Na  Na84  1  0.74971126  0.16747573  0.12449916  1
  Na  Na85  1  0.74993387  0.16746756  0.37411115  1
  Na  Na86  1  0.75124215  0.16731937  0.62525065  1
  Na  Na87  1  0.75144104  0.16695281  0.87558658  1
  Na  Na88  1  0.75135968  0.49918813  0.12550022  1
  Na  Na89  1  0.75058022  0.49996142  0.37488921  1
  Na  Na90  1  0.75118033  0.49964528  0.62477965  1
  Na  Na91  1  0.75046663  0.49993057  0.87506880  1
  Na  Na92  1  0.75110639  0.83234959  0.12621867  1
  Na  Na93  1  0.74910183  0.83360564  0.37576642  1
  Na  Na94  1  0.74814722  0.83340938  0.62420762  1
  Na  Na95  1  0.74961571  0.83259921  0.87481147  1
  Mn  Mn96  1  0.64264106  0.25032794  0.74827697  1
  Mn  Mn97  1  0.10772615  0.41557215  0.37256514  1
  Mn  Mn98  1  0.35823996  0.75102895  0.00218285  1
  Mn  Mn99  1  0.35757833  0.08354014  0.75232385  1
  Mn  Mn100  1  0.85763383  0.41620539  0.50175407  1
  Mn  Mn101  1  0.10743575  0.74952605  0.87289779  1
  Mn  Mn102  1  0.64178873  0.91664073  0.74766815  1
  Mn  Mn103  1  0.35737830  0.74936459  0.25252662  1
  Mn  Mn104  1  0.64202350  0.91698436  0.99822726  1
  Mn  Mn105  1  0.85790715  0.41615436  0.25243649  1
  Mn  Mn106  1  0.60804490  0.08357275  0.62245465  1
  Mn  Mn107  1  0.64200707  0.58251238  0.49706809  1
  Mn  Mn108  1  0.10731149  0.41676426  0.87262582  1
  Mn  Mn109  1  0.64205057  0.58299322  0.24830407  1
  Mn  Mn110  1  0.14273634  0.25045603  0.24816948  1
  Mn  Mn111  1  0.85764520  0.08324929  0.25200706  1
  Mn  Mn112  1  0.89228591  0.91709646  0.87824463  1
  Mn  Mn113  1  0.89174935  0.91614539  0.62769639  1
  Mn  Mn114  1  0.85842427  0.08343096  0.75314102  1
  Mn  Mn115  1  0.10864844  0.08485877  0.12231150  1
  Mn  Mn116  1  0.10726990  0.41717622  0.62400804  1
  Mn  Mn117  1  0.35771656  0.08308490  0.50210622  1
  Mn  Mn118  1  0.60767561  0.75081515  0.12256148  1
  Mn  Mn119  1  0.60742047  0.08285131  0.37226937  1
  Mn  Mn120  1  0.14190840  0.25045305  0.49774226  1
  Mn  Mn121  1  0.85810176  0.75050102  0.25319700  1
  Mn  Mn122  1  0.85691299  0.74987788  0.75210830  1
  Mn  Mn123  1  0.60716817  0.41633345  0.12237336  1
  Mn  Mn124  1  0.85766285  0.75050194  0.50212408  1
  Mn  Mn125  1  0.14244271  0.91611984  0.74768377  1
  Mn  Mn126  1  0.64202258  0.91788660  0.49705049  1
  Mn  Mn127  1  0.14208715  0.91607043  0.49725389  1
  Mn  Mn128  1  0.10812267  0.75074898  0.37261754  1
  Mn  Mn129  1  0.60809218  0.41592359  0.62327916  1
  Mn  Mn130  1  0.64305680  0.58268017  0.99787159  1
  Mn  Mn131  1  0.10739553  0.08367792  0.62252899  1
  Mn  Mn132  1  0.14235204  0.58317309  0.99684371  1
  Mn  Mn133  1  0.64123413  0.91740590  0.24805847  1
  Mn  Mn134  1  0.39208787  0.91647456  0.87766764  1
  Mn  Mn135  1  0.10830742  0.74937887  0.62324305  1
  Mn  Mn136  1  0.39181211  0.58343072  0.12749368  1
  Mn  Mn137  1  0.10778093  0.74916158  0.12246589  1
  Mn  Mn138  1  0.39228148  0.58241000  0.62795218  1
  Mn  Mn139  1  0.60754631  0.08356814  0.87338132  1
  Mn  Mn140  1  0.35841520  0.41713214  0.50219413  1
  Mn  Mn141  1  0.14255916  0.58273159  0.74872069  1
  Mn  Mn142  1  0.89255659  0.91696766  0.12734884  1
  Mn  Mn143  1  0.39227765  0.91721316  0.62739680  1
  Fe  Fe144  1  0.89191625  0.24955707  0.37658789  1
  Fe  Fe145  1  0.14256487  0.58290410  0.24850789  1
  Fe  Fe146  1  0.60789823  0.74901627  0.87312323  1
  Fe  Fe147  1  0.85713172  0.41644701  0.00218006  1
  Fe  Fe148  1  0.60672720  0.41705445  0.37299250  1
  Fe  Fe149  1  0.64226732  0.24966083  0.24782288  1
  Fe  Fe150  1  0.39277113  0.24943267  0.12690014  1
  Fe  Fe151  1  0.35847245  0.74919362  0.75194069  1
  Fe  Fe152  1  0.14321089  0.25081637  0.74859307  1
  Fe  Fe153  1  0.89311607  0.58249080  0.12718053  1
  Fe  Fe154  1  0.35700693  0.41670974  0.25163706  1
  Fe  Fe155  1  0.85778769  0.08364287  0.50098680  1
  Fe  Fe156  1  0.35704432  0.08387148  0.00156255  1
  Fe  Fe157  1  0.35731260  0.08377616  0.25218726  1
  Fe  Fe158  1  0.39367622  0.25028970  0.37660154  1
  Fe  Fe159  1  0.39213493  0.58315467  0.37641132  1
  Fe  Fe160  1  0.85714396  0.41706292  0.75213053  1
  Fe  Fe161  1  0.39172279  0.91714696  0.12659739  1
  Fe  Fe162  1  0.64318745  0.25035176  0.99858418  1
  Fe  Fe163  1  0.64292174  0.58272823  0.74866700  1
  Fe  Fe164  1  0.89219125  0.25068268  0.62731945  1
  Fe  Fe165  1  0.60661910  0.74991989  0.62288211  1
  Fe  Fe166  1  0.60610383  0.74944150  0.37396191  1
  Fe  Fe167  1  0.14314598  0.91762604  0.99866626  1
  Fe  Fe168  1  0.85758046  0.08367470  0.00200639  1
  Fe  Fe169  1  0.64288139  0.24975655  0.49832442  1
  Fe  Fe170  1  0.14343899  0.24971192  0.99831547  1
  Fe  Fe171  1  0.14313192  0.91673616  0.24883596  1
  Fe  Fe172  1  0.89291994  0.25059967  0.12609419  1
  Fe  Fe173  1  0.39282278  0.24982193  0.62647803  1
  Fe  Fe174  1  0.10659568  0.08374127  0.37378434  1
  Fe  Fe175  1  0.89336208  0.24989693  0.87770043  1
  Fe  Fe176  1  0.89342124  0.58347709  0.37671031  1
  Fe  Fe177  1  0.10769417  0.08380813  0.87428708  1
  Fe  Fe178  1  0.35747046  0.41584962  0.00182616  1
  Fe  Fe179  1  0.89232116  0.58337842  0.62658645  1
  Fe  Fe180  1  0.14248649  0.58340712  0.49828580  1
  Fe  Fe181  1  0.39194782  0.91612495  0.37690260  1
  Fe  Fe182  1  0.39230372  0.25057978  0.87751892  1
  Fe  Fe183  1  0.60600337  0.08336582  0.12325413  1
  Fe  Fe184  1  0.89122868  0.58336101  0.87725469  1
  Fe  Fe185  1  0.60728330  0.41668979  0.87374624  1
  Fe  Fe186  1  0.35803238  0.41669610  0.75223632  1
  Fe  Fe187  1  0.85722674  0.75006977  0.00140537  1
  Fe  Fe188  1  0.39383807  0.58267048  0.87590918  1
  Fe  Fe189  1  0.89313427  0.91696931  0.37596632  1
  Fe  Fe190  1  0.35764290  0.74963839  0.50128952  1
  Fe  Fe191  1  0.10747648  0.41638165  0.12318141  1
  P  P192  1  0.05351846  0.25136422  0.10908489  1
  P  P193  1  0.05147668  0.24894238  0.36009625  1
  P  P194  1  0.05302574  0.25104465  0.61164327  1
  P  P195  1  0.05458265  0.24936590  0.86102687  1
  P  P196  1  0.05391157  0.58172449  0.11098226  1
  P  P197  1  0.05418687  0.58324571  0.36039584  1
  P  P198  1  0.05263012  0.58305577  0.60981219  1
  P  P199  1  0.05111056  0.58299619  0.86025026  1
  P  P200  1  0.05598998  0.91726922  0.11059296  1
  P  P201  1  0.05277370  0.91799729  0.35918186  1
  P  P202  1  0.05325595  0.91624984  0.61002668  1
  P  P203  1  0.05487001  0.91796081  0.86183626  1
  P  P204  1  0.55391596  0.24909054  0.11065650  1
  P  P205  1  0.55440594  0.25057203  0.36026090  1
  P  P206  1  0.55286714  0.25012035  0.60932096  1
  P  P207  1  0.55361048  0.25115513  0.86208561  1
  P  P208  1  0.55313197  0.58316990  0.10967431  1
  P  P209  1  0.55153909  0.58309093  0.36016270  1
  P  P210  1  0.55467774  0.58306649  0.61137276  1
  P  P211  1  0.55373099  0.58209621  0.85989895  1
  P  P212  1  0.55129204  0.91806203  0.11013285  1
  P  P213  1  0.55127806  0.91581807  0.36009948  1
  P  P214  1  0.55326963  0.91628251  0.60967016  1
  P  P215  1  0.55323004  0.91619161  0.86021864  1
  P  P216  1  0.44483825  0.08374780  0.13909558  1
  P  P217  1  0.44517891  0.08360705  0.38834780  1
  P  P218  1  0.44692866  0.08465121  0.64007505  1
  P  P219  1  0.44562488  0.08467356  0.89096693  1
  P  P220  1  0.44430378  0.41523324  0.13928615  1
  P  P221  1  0.44637061  0.41678022  0.38822000  1
  P  P222  1  0.44632648  0.41527625  0.64080382  1
  P  P223  1  0.44598219  0.41657763  0.88950702  1
  P  P224  1  0.44636347  0.75092493  0.13990801  1
  P  P225  1  0.44636591  0.74940195  0.39043893  1
  P  P226  1  0.44592586  0.74953267  0.63947498  1
  P  P227  1  0.44718239  0.74848582  0.88853027  1
  P  P228  1  0.94570087  0.08482908  0.13854414  1
  P  P229  1  0.94695530  0.08334420  0.38996323  1
  P  P230  1  0.94510704  0.08414920  0.63918999  1
  P  P231  1  0.94758528  0.08444989  0.89107176  1
  P  P232  1  0.94630776  0.41605538  0.13843031  1
  P  P233  1  0.94660999  0.41630753  0.38975167  1
  P  P234  1  0.94527615  0.41701049  0.64065103  1
  P  P235  1  0.94422801  0.41662473  0.88933286  1
  P  P236  1  0.94515280  0.74922561  0.13883883  1
  P  P237  1  0.94707614  0.75039727  0.38963871  1
  P  P238  1  0.94668839  0.74906064  0.64033221  1
  P  P239  1  0.94556987  0.74929410  0.89110209  1
  P  P240  1  0.19641169  0.08345056  0.23662179  1
  P  P241  1  0.19586785  0.08378759  0.48399688  1
  P  P242  1  0.19516042  0.08479548  0.73624993  1
  P  P243  1  0.19765027  0.08421542  0.98515678  1
  P  P244  1  0.19711890  0.41699367  0.23427263  1
  P  P245  1  0.19652596  0.41717772  0.48527938  1
  P  P246  1  0.19834089  0.41591484  0.73555778  1
  P  P247  1  0.19658406  0.41538766  0.98617758  1
  P  P248  1  0.19648157  0.74951742  0.23502644  1
  P  P249  1  0.19806519  0.74892073  0.48489368  1
  P  P250  1  0.19870344  0.74913014  0.73521345  1
  P  P251  1  0.19683358  0.75081689  0.98493840  1
  P  P252  1  0.69539974  0.08425117  0.23417092  1
  P  P253  1  0.69804425  0.08477131  0.48457308  1
  P  P254  1  0.69702911  0.08391132  0.73509161  1
  P  P255  1  0.69654112  0.08460164  0.98677053  1
  P  P256  1  0.69496871  0.41596729  0.23609107  1
  P  P257  1  0.69589662  0.41541711  0.48418960  1
  P  P258  1  0.69690861  0.41724184  0.73651699  1
  P  P259  1  0.69729544  0.41563690  0.98473211  1
  P  P260  1  0.69500720  0.74993365  0.23659210  1
  P  P261  1  0.69443517  0.74985191  0.48514227  1
  P  P262  1  0.69420851  0.74865954  0.73518947  1
  P  P263  1  0.69739460  0.74970354  0.98481213  1
  P  P264  1  0.30436342  0.24981002  0.01446744  1
  P  P265  1  0.30565512  0.25043139  0.26413951  1
  P  P266  1  0.30524355  0.25009777  0.51441034  1
  P  P267  1  0.30452085  0.25096770  0.76462753  1
  P  P268  1  0.30518521  0.58255843  0.01336249  1
  P  P269  1  0.30242480  0.58193857  0.26519118  1
  P  P270  1  0.30387998  0.58385089  0.51389200  1
  P  P271  1  0.30447135  0.58261940  0.76574089  1
  P  P272  1  0.30266741  0.91821673  0.01554554  1
  P  P273  1  0.30408692  0.91753755  0.26430996  1
  P  P274  1  0.30448791  0.91582637  0.51375721  1
  P  P275  1  0.30364839  0.91593822  0.76500773  1
  P  P276  1  0.80444574  0.25042016  0.01429698  1
  P  P277  1  0.80370481  0.24987775  0.26404776  1
  P  P278  1  0.80420739  0.24936936  0.51423623  1
  P  P279  1  0.80560585  0.25099360  0.76508861  1
  P  P280  1  0.80523380  0.58304888  0.01475372  1
  P  P281  1  0.80533691  0.58297071  0.26493395  1
  P  P282  1  0.80507122  0.58330647  0.51425771  1
  P  P283  1  0.80372855  0.58280773  0.76427907  1
  P  P284  1  0.80327437  0.91652039  0.01536087  1
  P  P285  1  0.80346329  0.91701483  0.26612448  1
  P  P286  1  0.80465949  0.91765363  0.51353331  1
  P  P287  1  0.80278690  0.91650946  0.76567048  1
  O  O288  1  0.05729395  0.25047371  0.18593228  1
  O  O289  1  0.05525343  0.24976008  0.43671526  1
  O  O290  1  0.05839970  0.25116342  0.68825209  1
  O  O291  1  0.05963549  0.25017518  0.93764725  1
  O  O292  1  0.05902125  0.58237825  0.18766236  1
  O  O293  1  0.05912572  0.58332495  0.43705316  1
  O  O294  1  0.05668560  0.58313325  0.68653771  1
  O  O295  1  0.05564653  0.58268028  0.93690938  1
  O  O296  1  0.06045328  0.91730864  0.18739045  1
  O  O297  1  0.05616474  0.91689097  0.43592566  1
  O  O298  1  0.05672472  0.91618474  0.68683992  1
  O  O299  1  0.05934232  0.91736706  0.93858170  1
  O  O300  1  0.55841490  0.24999685  0.18730375  1
  O  O301  1  0.55899781  0.24973559  0.43692590  1
  O  O302  1  0.55687207  0.25011448  0.68606506  1
  O  O303  1  0.55883228  0.25061047  0.93869240  1
  O  O304  1  0.55644207  0.58299498  0.18640950  1
  O  O305  1  0.55516606  0.58263276  0.43686739  1
  O  O306  1  0.55888427  0.58226488  0.68812533  1
  O  O307  1  0.55703587  0.58210613  0.93660803  1
  O  O308  1  0.55493195  0.91758456  0.18680391  1
  O  O309  1  0.55543070  0.91684452  0.43676595  1
  O  O310  1  0.55619666  0.91710218  0.68644234  1
  O  O311  1  0.55623335  0.91690377  0.93702149  1
  O  O312  1  0.44052800  0.08376643  0.06242644  1
  O  O313  1  0.44141289  0.08364539  0.31146984  1
  O  O314  1  0.44390346  0.08384310  0.56331082  1
  O  O315  1  0.44274486  0.08419891  0.81420871  1
  O  O316  1  0.44042459  0.41584040  0.06248860  1
  O  O317  1  0.44178649  0.41709711  0.31160051  1
  O  O318  1  0.44365904  0.41637827  0.56395064  1
  O  O319  1  0.44182844  0.41607945  0.81281623  1
  O  O320  1  0.44361964  0.75008029  0.06312851  1
  O  O321  1  0.44280168  0.74952706  0.31365693  1
  O  O322  1  0.44106564  0.74925765  0.56280581  1
  O  O323  1  0.44250206  0.74941626  0.81185861  1
  O  O324  1  0.94113875  0.08399664  0.06169384  1
  O  O325  1  0.94383344  0.08359051  0.31319248  1
  O  O326  1  0.94104629  0.08367021  0.56246723  1
  O  O327  1  0.94424537  0.08372939  0.81433798  1
  O  O328  1  0.94175096  0.41603516  0.06182874  1
  O  O329  1  0.94414043  0.41621895  0.31283297  1
  O  O330  1  0.94290704  0.41654438  0.56396044  1
  O  O331  1  0.94044063  0.41697070  0.81256674  1
  O  O332  1  0.94094273  0.75018281  0.06216298  1
  O  O333  1  0.94469019  0.75027915  0.31282801  1
  O  O334  1  0.94368916  0.74985532  0.56359424  1
  O  O335  1  0.94243360  0.75000056  0.81433206  1
  O  O336  1  0.19466022  0.08447622  0.06154391  1
  O  O337  1  0.19115666  0.08419051  0.31341111  1
  O  O338  1  0.19274584  0.08402537  0.56080826  1
  O  O339  1  0.19134466  0.08436424  0.81301621  1
  O  O340  1  0.19168898  0.41614022  0.06275091  1
  O  O341  1  0.19331623  0.41616305  0.31102272  1
  O  O342  1  0.19321234  0.41633275  0.56195704  1
  O  O343  1  0.19417205  0.41635569  0.81227489  1
  O  O344  1  0.19358460  0.74961345  0.06169929  1
  O  O345  1  0.19392757  0.74953006  0.31182050  1
  O  O346  1  0.19463085  0.74937202  0.56156104  1
  O  O347  1  0.19415264  0.74929456  0.81188390  1
  O  O348  1  0.69109924  0.08381630  0.06336741  1
  O  O349  1  0.69252597  0.08357871  0.31076255  1
  O  O350  1  0.69441659  0.08404648  0.56134544  1
  O  O351  1  0.69340497  0.08411902  0.81186042  1
  O  O352  1  0.69330840  0.41609652  0.06145373  1
  O  O353  1  0.69046456  0.41689073  0.31275672  1
  O  O354  1  0.69339643  0.41632266  0.56104437  1
  O  O355  1  0.69195994  0.41658822  0.81309878  1
  O  O356  1  0.69366261  0.74961917  0.06159282  1
  O  O357  1  0.68976958  0.74983541  0.31328733  1
  O  O358  1  0.69007720  0.74970302  0.56193999  1
  O  O359  1  0.69041377  0.74925484  0.81204137  1
  O  O360  1  0.30902507  0.24995144  0.18740152  1
  O  O361  1  0.30993217  0.25034470  0.43762899  1
  O  O362  1  0.30894396  0.25014090  0.68798403  1
  O  O363  1  0.30853232  0.25017459  0.93766652  1
  O  O364  1  0.30606607  0.58275539  0.18850481  1
  O  O365  1  0.30878554  0.58293328  0.43713422  1
  O  O366  1  0.30667044  0.58261854  0.68914958  1
  O  O367  1  0.30996166  0.58305298  0.93669380  1
  O  O368  1  0.30849860  0.91710139  0.18763743  1
  O  O369  1  0.30857819  0.91650905  0.43692439  1
  O  O370  1  0.30661164  0.91660459  0.68821110  1
  O  O371  1  0.30645191  0.91723385  0.93880190  1
  O  O372  1  0.80887921  0.25035681  0.18740361  1
  O  O373  1  0.80865635  0.24996842  0.43747567  1
  O  O374  1  0.80930923  0.25039740  0.68823669  1
  O  O375  1  0.80901587  0.24992173  0.93765848  1
  O  O376  1  0.80969609  0.58263041  0.18815179  1
  O  O377  1  0.80985894  0.58351730  0.43753146  1
  O  O378  1  0.80810771  0.58344362  0.68758412  1
  O  O379  1  0.80821318  0.58315887  0.93787478  1
  O  O380  1  0.80705876  0.91671252  0.18927649  1
  O  O381  1  0.80929164  0.91686750  0.43687701  1
  O  O382  1  0.80582965  0.91640729  0.68884274  1
  O  O383  1  0.80598179  0.91676508  0.93864597  1
  O  O384  1  0.23411129  0.24970172  0.03854274  1
  O  O385  1  0.23566107  0.25059897  0.28884052  1
  O  O386  1  0.23510993  0.25016285  0.53808920  1
  O  O387  1  0.23422560  0.25061917  0.78861181  1
  O  O388  1  0.23504625  0.58262119  0.03719210  1
  O  O389  1  0.23229759  0.58260970  0.28952855  1
  O  O390  1  0.23361080  0.58327143  0.53774675  1
  O  O391  1  0.23496889  0.58255174  0.79190964  1
  O  O392  1  0.23260025  0.91786411  0.03995492  1
  O  O393  1  0.23367227  0.91675337  0.28806029  1
  O  O394  1  0.23459885  0.91636122  0.53821105  1
  O  O395  1  0.23401831  0.91677228  0.79021334  1
  O  O396  1  0.73406389  0.25054696  0.03812981  1
  O  O397  1  0.73324492  0.24959211  0.28717236  1
  O  O398  1  0.73393724  0.25031927  0.53826653  1
  O  O399  1  0.73559013  0.25019340  0.78931532  1
  O  O400  1  0.73536593  0.58269940  0.03974183  1
  O  O401  1  0.73523414  0.58315903  0.28878219  1
  O  O402  1  0.73481562  0.58277003  0.53765130  1
  O  O403  1  0.73346089  0.58314360  0.78833229  1
  O  O404  1  0.73372112  0.91646099  0.04109626  1
  O  O405  1  0.73367041  0.91766283  0.29067610  1
  O  O406  1  0.73459071  0.91714997  0.53760420  1
  O  O407  1  0.73321595  0.91664761  0.79092895  1
  O  O408  1  0.26690155  0.08390525  0.21339924  1
  O  O409  1  0.26565906  0.08355557  0.45933482  1
  O  O410  1  0.26505061  0.08399630  0.71160537  1
  O  O411  1  0.26767175  0.08434322  0.95997559  1
  O  O412  1  0.26722439  0.41640157  0.21002787  1
  O  O413  1  0.26627862  0.41711152  0.46029498  1
  O  O414  1  0.26833560  0.41650195  0.71105803  1
  O  O415  1  0.26706091  0.41549182  0.96273977  1
  O  O416  1  0.26605355  0.74956783  0.20936475  1
  O  O417  1  0.26790496  0.74936036  0.45971318  1
  O  O418  1  0.26884510  0.74879580  0.71109047  1
  O  O419  1  0.26662491  0.75092424  0.96012394  1
  O  O420  1  0.76520942  0.08378355  0.20923374  1
  O  O421  1  0.76798190  0.08456388  0.45976261  1
  O  O422  1  0.76679679  0.08407247  0.71044481  1
  O  O423  1  0.76706272  0.08438937  0.96339241  1
  O  O424  1  0.76511033  0.41600787  0.21211538  1
  O  O425  1  0.76550260  0.41590434  0.45892679  1
  O  O426  1  0.76715097  0.41685955  0.71251805  1
  O  O427  1  0.76751700  0.41636497  0.96084362  1
  O  O428  1  0.76525461  0.74964839  0.21327292  1
  O  O429  1  0.76462440  0.75007607  0.46155573  1
  O  O430  1  0.76418159  0.74952926  0.71082036  1
  O  O431  1  0.76748603  0.74958214  0.96048357  1
  O  O432  1  0.01562293  0.08450332  0.16227347  1
  O  O433  1  0.01684346  0.08364591  0.41523259  1
  O  O434  1  0.01503537  0.08410853  0.66363734  1
  O  O435  1  0.01758000  0.08418676  0.91577474  1
  O  O436  1  0.01642636  0.41615899  0.16279193  1
  O  O437  1  0.01604504  0.41620495  0.41552954  1
  O  O438  1  0.01479660  0.41703424  0.66659290  1
  O  O439  1  0.01433073  0.41649208  0.91347335  1
  O  O440  1  0.01520524  0.74946341  0.16296169  1
  O  O441  1  0.01659352  0.75017437  0.41539564  1
  O  O442  1  0.01615966  0.74932908  0.66609155  1
  O  O443  1  0.01528020  0.74933721  0.91625797  1
  O  O444  1  0.51510952  0.08410937  0.16320177  1
  O  O445  1  0.51497933  0.08351388  0.41296171  1
  O  O446  1  0.51638138  0.08447576  0.66578363  1
  O  O447  1  0.51532200  0.08419399  0.91604713  1
  O  O448  1  0.51439106  0.41605316  0.16318838  1
  O  O449  1  0.51657971  0.41623466  0.41248445  1
  O  O450  1  0.51597386  0.41573316  0.66604609  1
  O  O451  1  0.51623532  0.41646862  0.91375387  1
  O  O452  1  0.51587832  0.75087623  0.16542151  1
  O  O453  1  0.51641749  0.74915938  0.41507500  1
  O  O454  1  0.51640254  0.74963449  0.66275475  1
  O  O455  1  0.51751029  0.74875446  0.91242743  1
  O  O456  1  0.48340765  0.24955419  0.08733928  1
  O  O457  1  0.48390560  0.25034400  0.33673161  1
  O  O458  1  0.48280680  0.25030875  0.58496663  1
  O  O459  1  0.48310433  0.25075810  0.83885068  1
  O  O460  1  0.48340696  0.58293444  0.08486174  1
  O  O461  1  0.48152229  0.58347279  0.33523762  1
  O  O462  1  0.48473352  0.58241363  0.58723194  1
  O  O463  1  0.48374284  0.58236517  0.83503066  1
  O  O464  1  0.48130815  0.91734905  0.08536674  1
  O  O465  1  0.48108991  0.91636714  0.33585468  1
  O  O466  1  0.48365196  0.91621161  0.58442844  1
  O  O467  1  0.48357814  0.91638336  0.83494995  1
  O  O468  1  0.98336342  0.25071913  0.08488261  1
  O  O469  1  0.98148758  0.24940542  0.33529171  1
  O  O470  1  0.98252018  0.25090140  0.58845104  1
  O  O471  1  0.98398843  0.25017043  0.83800616  1
  O  O472  1  0.98343977  0.58216190  0.08775767  1
  O  O473  1  0.98371932  0.58313901  0.33700045  1
  O  O474  1  0.98245195  0.58281956  0.58570612  1
  O  O475  1  0.98086306  0.58303850  0.83659802  1
  O  O476  1  0.98564565  0.91721437  0.08719798  1
  O  O477  1  0.98283352  0.91731251  0.33423310  1
  O  O478  1  0.98354553  0.91655912  0.58527702  1
  O  O479  1  0.98480910  0.91752095  0.83771971  1
  O  O480  1  0.08710464  0.31654198  0.07656682  1
  O  O481  1  0.08560650  0.31380328  0.32708211  1
  O  O482  1  0.08596803  0.31608204  0.57799635  1
  O  O483  1  0.08806430  0.31413956  0.82711190  1
  O  O484  1  0.08709350  0.64667396  0.07729350  1
  O  O485  1  0.08745021  0.64821355  0.32686017  1
  O  O486  1  0.08646017  0.64799288  0.57678144  1
  O  O487  1  0.08477522  0.64799418  0.82739825  1
  O  O488  1  0.08936292  0.98223921  0.07744755  1
  O  O489  1  0.08655825  0.98337884  0.32703871  1
  O  O490  1  0.08738664  0.98121188  0.57755401  1
  O  O491  1  0.08803888  0.98339292  0.82919051  1
  O  O492  1  0.58752859  0.31376985  0.07681013  1
  O  O493  1  0.58757989  0.31571516  0.32706277  1
  O  O494  1  0.58689557  0.31508370  0.57658847  1
  O  O495  1  0.58654039  0.31633449  0.82856016  1
  O  O496  1  0.58707763  0.64826168  0.07730088  1
  O  O497  1  0.58559161  0.64820593  0.32790472  1
  O  O498  1  0.58784212  0.64835843  0.57846010  1
  O  O499  1  0.58802447  0.64691784  0.82729025  1
  O  O500  1  0.58482627  0.98337272  0.07756528  1
  O  O501  1  0.58508852  0.98069731  0.32702036  1
  O  O502  1  0.58719550  0.98141139  0.57697715  1
  O  O503  1  0.58720029  0.98139862  0.82788942  1
  O  O504  1  0.41136540  0.01870569  0.17231221  1
  O  O505  1  0.41138260  0.01857467  0.42107583  1
  O  O506  1  0.41255562  0.01970178  0.67252804  1
  O  O507  1  0.41105847  0.01980807  0.92342058  1
  O  O508  1  0.41120286  0.34992601  0.17214978  1
  O  O509  1  0.41285850  0.35167189  0.42127940  1
  O  O510  1  0.41231726  0.34998218  0.67270093  1
  O  O511  1  0.41213041  0.35180288  0.92304014  1
  O  O512  1  0.41226476  0.68586424  0.17251730  1
  O  O513  1  0.41236689  0.68435780  0.42301045  1
  O  O514  1  0.41284593  0.68456055  0.67305320  1
  O  O515  1  0.41406122  0.68325404  0.92138967  1
  O  O516  1  0.91204913  0.02000765  0.17195028  1
  O  O517  1  0.91305956  0.01811785  0.42233444  1
  O  O518  1  0.91172840  0.01905993  0.67248047  1
  O  O519  1  0.91314213  0.01980404  0.92400816  1
  O  O520  1  0.91289310  0.35078478  0.17151939  1
  O  O521  1  0.91221442  0.35122843  0.42169006  1
  O  O522  1  0.91070976  0.35219154  0.67313149  1
  O  O523  1  0.91075052  0.35133313  0.92221519  1
  O  O524  1  0.91186238  0.68390986  0.17151330  1
  O  O525  1  0.91263805  0.68540688  0.42177066  1
  O  O526  1  0.91245584  0.68368080  0.67207623  1
  O  O527  1  0.91119926  0.68418218  0.92308601  1
  O  O528  1  0.16349329  0.01839704  0.20344598  1
  O  O529  1  0.16155817  0.01881996  0.45162513  1
  O  O530  1  0.16114073  0.01996668  0.70325343  1
  O  O531  1  0.16355480  0.01917298  0.95247553  1
  O  O532  1  0.16294841  0.35209488  0.20135137  1
  O  O533  1  0.16273173  0.35216312  0.45218046  1
  O  O534  1  0.16466450  0.35079186  0.70285573  1
  O  O535  1  0.16353087  0.35018332  0.95303505  1
  O  O536  1  0.16242274  0.68427611  0.20285336  1
  O  O537  1  0.16407250  0.68386668  0.45253906  1
  O  O538  1  0.16490252  0.68402111  0.70257223  1
  O  O539  1  0.16301591  0.68577612  0.95198963  1
  O  O540  1  0.66079922  0.01941507  0.20152893  1
  O  O541  1  0.66400612  0.01989605  0.45161607  1
  O  O542  1  0.66322355  0.01879588  0.70250827  1
  O  O543  1  0.66338532  0.01963800  0.95312191  1
  O  O544  1  0.66161517  0.35074214  0.20318894  1
  O  O545  1  0.66176908  0.35016497  0.45238624  1
  O  O546  1  0.66362624  0.35222301  0.70293494  1
  O  O547  1  0.66369411  0.35055083  0.95186774  1
  O  O548  1  0.66174000  0.68503077  0.20305011  1
  O  O549  1  0.66108735  0.68474656  0.45186344  1
  O  O550  1  0.66095665  0.68322158  0.70261161  1
  O  O551  1  0.66353441  0.68469582  0.95195223  1
  O  O552  1  0.33805762  0.31466749  0.04767180  1
  O  O553  1  0.33938742  0.31568192  0.29675485  1
  O  O554  1  0.33897838  0.31492438  0.54764912  1
  O  O555  1  0.33790043  0.31613402  0.79781863  1
  O  O556  1  0.33836671  0.64767717  0.04678700  1
  O  O557  1  0.33670500  0.64668861  0.29816818  1
  O  O558  1  0.33707262  0.64904076  0.54678036  1
  O  O559  1  0.33919655  0.64759590  0.79785622  1
  O  O560  1  0.33628365  0.98350168  0.04791987  1
  O  O561  1  0.33717927  0.98268086  0.29750978  1
  O  O562  1  0.33819755  0.98080140  0.54688435  1
  O  O563  1  0.33796467  0.98089899  0.79740602  1
  O  O564  1  0.83770022  0.31570724  0.04745948  1
  O  O565  1  0.83688383  0.31469059  0.29796644  1
  O  O566  1  0.83806993  0.31418414  0.54762456  1
  O  O567  1  0.83892823  0.31629683  0.79772491  1
  O  O568  1  0.83900691  0.64806639  0.04749585  1
  O  O569  1  0.83913956  0.64777910  0.29809654  1
  O  O570  1  0.83822023  0.64830888  0.54784890  1
  O  O571  1  0.83729014  0.64764283  0.79785051  1
  O  O572  1  0.83753362  0.98174091  0.04753452  1
  O  O573  1  0.83800433  0.98197500  0.29817236  1
  O  O574  1  0.83777630  0.98310993  0.54624008  1
  O  O575  1  0.83707296  0.98148865  0.79802936  1
  O  O576  1  0.41122469  0.14877015  0.17233169  1
  O  O577  1  0.41175544  0.14891941  0.42102447  1
  O  O578  1  0.41273214  0.14986544  0.67205676  1
  O  O579  1  0.41158725  0.14979669  0.92333467  1
  O  O580  1  0.41017017  0.47989398  0.17257136  1
  O  O581  1  0.41330889  0.48187279  0.42179639  1
  O  O582  1  0.41173166  0.47990977  0.67348484  1
  O  O583  1  0.41253165  0.48184687  0.92225278  1
  O  O584  1  0.41196045  0.81600096  0.17169482  1
  O  O585  1  0.41252902  0.81450755  0.42305418  1
  O  O586  1  0.41261526  0.81450926  0.67286447  1
  O  O587  1  0.41370093  0.81338802  0.92215675  1
  O  O588  1  0.91241755  0.15021937  0.17116946  1
  O  O589  1  0.91253966  0.14820070  0.42257415  1
  O  O590  1  0.91161572  0.14936165  0.67195420  1
  O  O591  1  0.91355475  0.14966840  0.92333254  1
  O  O592  1  0.91260349  0.48087861  0.17177674  1
  O  O593  1  0.91241278  0.48143774  0.42175408  1
  O  O594  1  0.91086513  0.48229513  0.67252785  1
  O  O595  1  0.91044364  0.48145444  0.92250178  1
  O  O596  1  0.91170683  0.81425156  0.17223283  1
  O  O597  1  0.91298169  0.81567967  0.42161701  1
  O  O598  1  0.91225265  0.81386472  0.67299655  1
  O  O599  1  0.91141601  0.81427205  0.92387021  1
  O  O600  1  0.08782362  0.18670906  0.07622027  1
  O  O601  1  0.08526883  0.18387472  0.32742107  1
  O  O602  1  0.08615992  0.18614814  0.57793051  1
  O  O603  1  0.08741677  0.18405186  0.82788616  1
  O  O604  1  0.08676820  0.51655823  0.07756515  1
  O  O605  1  0.08749163  0.51821017  0.32691374  1
  O  O606  1  0.08653933  0.51806161  0.57707531  1
  O  O607  1  0.08469621  0.51801685  0.82711053  1
  O  O608  1  0.08937552  0.85227074  0.07737509  1
  O  O609  1  0.08745797  0.85332918  0.32640795  1
  O  O610  1  0.08708514  0.85107050  0.57752013  1
  O  O611  1  0.08834017  0.85288490  0.82849842  1
  O  O612  1  0.58704484  0.18388208  0.07752401  1
  O  O613  1  0.58766848  0.18570216  0.32652533  1
  O  O614  1  0.58679548  0.18525973  0.57624103  1
  O  O615  1  0.58682530  0.18629214  0.82832097  1
  O  O616  1  0.58715119  0.51812482  0.07711335  1
  O  O617  1  0.58528507  0.51807285  0.32724380  1
  O  O618  1  0.58844114  0.51820022  0.57808834  1
  O  O619  1  0.58751958  0.51682773  0.82730554  1
  O  O620  1  0.58569647  0.85328637  0.07747007  1
  O  O621  1  0.58457309  0.85049573  0.32763109  1
  O  O622  1  0.58742622  0.85109925  0.57779067  1
  O  O623  1  0.58728947  0.85098156  0.82830494  1
  O  O624  1  0.33786287  0.18471983  0.04749090  1
  O  O625  1  0.33949413  0.18554744  0.29724789  1
  O  O626  1  0.33867001  0.18508772  0.54768414  1
  O  O627  1  0.33819602  0.18625066  0.79834160  1
  O  O628  1  0.33839061  0.51732499  0.04634465  1
  O  O629  1  0.33603058  0.51671040  0.29780009  1
  O  O630  1  0.33751647  0.51906640  0.54739310  1
  O  O631  1  0.33909927  0.51750262  0.79779785  1
  O  O632  1  0.33684443  0.85343909  0.04854983  1
  O  O633  1  0.33773874  0.85258502  0.29763828  1
  O  O634  1  0.33793597  0.85046147  0.54612525  1
  O  O635  1  0.33736702  0.85059667  0.79719907  1
  O  O636  1  0.83800720  0.18565086  0.04794089  1
  O  O637  1  0.83708965  0.18492929  0.29740439  1
  O  O638  1  0.83749666  0.18421130  0.54722007  1
  O  O639  1  0.83984071  0.18639321  0.79842376  1
  O  O640  1  0.83918824  0.51775804  0.04722446  1
  O  O641  1  0.83887476  0.51789636  0.29802219  1
  O  O642  1  0.83864866  0.51837356  0.54744587  1
  O  O643  1  0.83712919  0.51778464  0.79750759  1
  O  O644  1  0.83740721  0.85129997  0.04746023  1
  O  O645  1  0.83740657  0.85214796  0.29897891  1
  O  O646  1  0.83807985  0.85268977  0.54710865  1
  O  O647  1  0.83691226  0.85143524  0.79785144  1
  O  O648  1  0.16337517  0.14844961  0.20286860  1
  O  O649  1  0.16179292  0.14879749  0.45135539  1
  O  O650  1  0.16206999  0.15035571  0.70355946  1
  O  O651  1  0.16346449  0.14920319  0.95230600  1
  O  O652  1  0.16334375  0.48210787  0.20171865  1
  O  O653  1  0.16250209  0.48233839  0.45313798  1
  O  O654  1  0.16428048  0.48091295  0.70292644  1
  O  O655  1  0.16338164  0.48021964  0.95221683  1
  O  O656  1  0.16224785  0.81470870  0.20322280  1
  O  O657  1  0.16398492  0.81393061  0.45212996  1
  O  O658  1  0.16520310  0.81419715  0.70216475  1
  O  O659  1  0.16290204  0.81613735  0.95318377  1
  O  O660  1  0.66140408  0.14943250  0.20181643  1
  O  O661  1  0.66414409  0.14988624  0.45231835  1
  O  O662  1  0.66310301  0.14898849  0.70250011  1
  O  O663  1  0.66362749  0.14980492  0.95338880  1
  O  O664  1  0.66169259  0.48091721  0.20254277  1
  O  O665  1  0.66126038  0.48015390  0.45144944  1
  O  O666  1  0.66375771  0.48233237  0.70321388  1
  O  O667  1  0.66320709  0.48042524  0.95168896  1
  O  O668  1  0.66216211  0.81532046  0.20327358  1
  O  O669  1  0.66059856  0.81467531  0.45201405  1
  O  O670  1  0.65997185  0.81336581  0.70207862  1
  O  O671  1  0.66332941  0.81464332  0.95225731  1
