# generated using pymatgen
data_Na2MnFe(PO4)2
_symmetry_space_group_name_H-M   'P 1'
_cell_length_a   21.08513468
_cell_length_b   18.93781434
_cell_length_c   20.04417284
_cell_angle_alpha   89.99954136
_cell_angle_beta   89.99784141
_cell_angle_gamma   89.99994003
_symmetry_Int_Tables_number   1
_chemical_formula_structural   Na2MnFe(PO4)2
_chemical_formula_sum   'Na96 Mn48 Fe48 P96 O384'
_cell_volume   8003.76581083
_cell_formula_units_Z   48
loop_
 _symmetry_equiv_pos_site_id
 _symmetry_equiv_pos_as_xyz
  1  'x, y, z'
loop_
 _atom_site_type_symbol
 _atom_site_label
 _atom_site_symmetry_multiplicity
 _atom_site_fract_x
 _atom_site_fract_y
 _atom_site_fract_z
 _atom_site_occupancy
  Na  Na0  1  -0.00107473  -0.00035118  0.00073955  1
  Na  Na1  1  0.00156584  0.00064139  0.24908447  1
  Na  Na2  1  0.00049979  -0.00048799  0.49991721  1
  Na  Na3  1  0.00136544  0.00075637  0.75059159  1
  Na  Na4  1  0.00132779  0.33355873  0.00005644  1
  Na  Na5  1  0.00128918  0.33356307  0.24994931  1
  Na  Na6  1  -0.00098597  0.33334830  0.49965290  1
  Na  Na7  1  -0.00022368  0.33368238  0.75068697  1
  Na  Na8  1  -0.00104402  0.66753167  0.00005864  1
  Na  Na9  1  -0.00074506  0.66733421  0.24916004  1
  Na  Na10  1  -0.00024557  0.66774387  0.49976071  1
  Na  Na11  1  -0.00267475  0.66664351  0.74940750  1
  Na  Na12  1  0.50119085  -0.00053727  -0.00115880  1
  Na  Na13  1  0.50151299  0.00016146  0.25050787  1
  Na  Na14  1  0.50114315  -0.00003210  0.50039976  1
  Na  Na15  1  0.50110568  -0.00048642  0.75043891  1
  Na  Na16  1  0.50027516  0.33333428  0.00046768  1
  Na  Na17  1  0.49962053  0.33346607  0.24888612  1
  Na  Na18  1  0.49786373  0.33213754  0.49925109  1
  Na  Na19  1  0.49949655  0.33316929  0.75117326  1
  Na  Na20  1  0.49935532  0.66601676  0.00061072  1
  Na  Na21  1  0.49997631  0.66687852  0.25092067  1
  Na  Na22  1  0.49979089  0.66582979  0.49988796  1
  Na  Na23  1  0.50009082  0.66581349  0.74928829  1
  Na  Na24  1  0.25073634  -0.00002859  0.12484684  1
  Na  Na25  1  0.24872365  -0.00147024  0.37427407  1
  Na  Na26  1  0.25122041  0.00000032  0.62618805  1
  Na  Na27  1  0.25002658  -0.00051883  0.87510356  1
  Na  Na28  1  0.25239455  0.33401756  0.12522513  1
  Na  Na29  1  0.25098087  0.33294015  0.37572208  1
  Na  Na30  1  0.24983069  0.33329122  0.62515903  1
  Na  Na31  1  0.24925073  0.33277279  0.87328199  1
  Na  Na32  1  0.25044357  0.66653723  0.12437893  1
  Na  Na33  1  0.25150196  0.66720187  0.37537923  1
  Na  Na34  1  0.25085281  0.66721038  0.62575392  1
  Na  Na35  1  0.25003728  0.66637844  0.87422396  1
  Na  Na36  1  0.74937609  0.00040519  0.12487919  1
  Na  Na37  1  0.74866520  -0.00051326  0.37484241  1
  Na  Na38  1  0.74821474  -0.00040083  0.62552626  1
  Na  Na39  1  0.74778729  -0.00050706  0.87473052  1
  Na  Na40  1  0.74645692  0.33182889  0.12362257  1
  Na  Na41  1  0.74961247  0.33363130  0.37483642  1
  Na  Na42  1  0.75240785  0.33476239  0.62653914  1
  Na  Na43  1  0.74971835  0.33347859  0.87604395  1
  Na  Na44  1  0.74968705  0.66695767  0.12345525  1
  Na  Na45  1  0.74881943  0.66642634  0.37475185  1
  Na  Na46  1  0.75063735  0.66653913  0.62538753  1
  Na  Na47  1  0.75261729  0.66815952  0.87637157  1
  Na  Na48  1  0.00059685  0.16679148  0.00124864  1
  Na  Na49  1  0.00248042  0.16630314  0.24819668  1
  Na  Na50  1  0.00178212  0.16612427  0.49981207  1
  Na  Na51  1  -0.00172435  0.16757340  0.75103268  1
  Na  Na52  1  -0.00055577  0.50009316  -0.00025711  1
  Na  Na53  1  0.00012635  0.49989804  0.25033674  1
  Na  Na54  1  -0.00092862  0.49976521  0.49974032  1
  Na  Na55  1  -0.00018761  0.49932318  0.74977584  1
  Na  Na56  1  -0.00108687  0.83350790  -0.00018562  1
  Na  Na57  1  -0.00107941  0.83311731  0.24966699  1
  Na  Na58  1  -0.00146948  0.83363355  0.50005838  1
  Na  Na59  1  -0.00016204  0.83303330  0.74971388  1
  Na  Na60  1  0.50196145  0.16542659  -0.00050309  1
  Na  Na61  1  0.49953061  0.16713128  0.24918432  1
  Na  Na62  1  0.49912307  0.16664546  0.50031230  1
  Na  Na63  1  0.50014399  0.16661794  0.75098144  1
  Na  Na64  1  0.50061427  0.49973848  0.00125044  1
  Na  Na65  1  0.50026550  0.50007266  0.24952393  1
  Na  Na66  1  0.50037767  0.50029170  0.49964130  1
  Na  Na67  1  0.50002791  0.50036042  0.74946237  1
  Na  Na68  1  0.50065904  0.83309751  -0.00041731  1
  Na  Na69  1  0.49941429  0.83410036  0.25097537  1
  Na  Na70  1  0.49998876  0.83370265  0.49984519  1
  Na  Na71  1  0.49992830  0.83415322  0.75026931  1
  Na  Na72  1  0.24875441  0.16777468  0.12589421  1
  Na  Na73  1  0.25030297  0.16691082  0.37441468  1
  Na  Na74  1  0.25148773  0.16556929  0.62537828  1
  Na  Na75  1  0.24932566  0.16699286  0.87419650  1
  Na  Na76  1  0.25225667  0.49958501  0.12435153  1
  Na  Na77  1  0.25271408  0.49940291  0.37632297  1
  Na  Na78  1  0.25007151  0.50027336  0.62545742  1
  Na  Na79  1  0.25043817  0.49981798  0.87373323  1
  Na  Na80  1  0.25140122  0.83288160  0.12449816  1
  Na  Na81  1  0.24900663  0.83374136  0.37446351  1
  Na  Na82  1  0.25038932  0.83327825  0.62633856  1
  Na  Na83  1  0.24969005  0.83401425  0.87461846  1
  Na  Na84  1  0.74775940  0.16704667  0.12370519  1
  Na  Na85  1  0.74777670  0.16699352  0.37583731  1
  Na  Na86  1  0.74960959  0.16647224  0.62578804  1
  Na  Na87  1  0.74968818  0.16623188  0.87547757  1
  Na  Na88  1  0.74677080  0.50090205  0.12340430  1
  Na  Na89  1  0.74867909  0.50000002  0.37414956  1
  Na  Na90  1  0.74983805  0.49993597  0.62591433  1
  Na  Na91  1  0.74963868  0.49974170  0.87636131  1
  Na  Na92  1  0.75083156  0.83330798  0.12483423  1
  Na  Na93  1  0.75142169  0.83302808  0.37432463  1
  Na  Na94  1  0.75212207  0.83267875  0.62552649  1
  Na  Na95  1  0.74981000  0.83420347  0.87542702  1
  Mn  Mn96  1  0.85710271  0.08394695  0.25237207  1
  Mn  Mn97  1  0.35791673  0.08301108  0.25188448  1
  Mn  Mn98  1  0.14328120  0.58310673  0.24832901  1
  Mn  Mn99  1  0.39276158  0.58394082  0.12778195  1
  Mn  Mn100  1  0.64217556  0.91636835  0.24695877  1
  Mn  Mn101  1  0.35803587  0.08260393  0.50243168  1
  Mn  Mn102  1  0.10664131  0.74954821  0.62283896  1
  Mn  Mn103  1  0.35816925  0.74974846  0.00195002  1
  Mn  Mn104  1  0.85633289  0.41665701  0.25116431  1
  Mn  Mn105  1  0.89122606  0.58316641  0.37677262  1
  Mn  Mn106  1  0.60826876  0.74990619  0.37290160  1
  Mn  Mn107  1  0.89199833  0.24959008  0.37610761  1
  Mn  Mn108  1  0.89096438  0.58341489  0.62736243  1
  Mn  Mn109  1  0.89186482  0.24947696  0.62706259  1
  Mn  Mn110  1  0.35775378  0.41631422  0.75220792  1
  Mn  Mn111  1  0.89214415  0.91747832  0.87728483  1
  Mn  Mn112  1  0.64207021  0.58403308  0.99686622  1
  Mn  Mn113  1  0.10805869  0.41689491  0.37239918  1
  Mn  Mn114  1  0.85789158  0.08335543  0.50206324  1
  Mn  Mn115  1  0.14237122  0.58265543  0.99685857  1
  Mn  Mn116  1  0.89192928  0.25003962  0.12746984  1
  Mn  Mn117  1  0.89268799  0.91745289  0.37684308  1
  Mn  Mn118  1  0.14156500  0.58388659  0.74779272  1
  Mn  Mn119  1  0.10802114  0.08300336  0.12224413  1
  Mn  Mn120  1  0.35814928  0.08421574  0.00210072  1
  Mn  Mn121  1  0.89165771  0.58316363  0.12765124  1
  Mn  Mn122  1  0.14248486  0.24974770  0.49777114  1
  Mn  Mn123  1  0.60813180  0.41570052  0.62306263  1
  Mn  Mn124  1  0.10813552  0.08360959  0.62299104  1
  Mn  Mn125  1  0.10947385  0.41731881  0.12278662  1
  Mn  Mn126  1  0.85719316  0.08326597  0.75293078  1
  Mn  Mn127  1  0.64265877  0.25048985  0.74780954  1
  Mn  Mn128  1  0.60779137  0.08402356  0.37296609  1
  Mn  Mn129  1  0.85729606  0.41606464  0.00266242  1
  Mn  Mn130  1  0.60824091  0.74915025  0.87240156  1
  Mn  Mn131  1  0.14178246  0.91633700  0.49847312  1
  Mn  Mn132  1  0.14234672  0.58368362  0.49774855  1
  Mn  Mn133  1  0.14230412  0.91710892  0.99752678  1
  Mn  Mn134  1  0.35814539  0.75053868  0.75250282  1
  Mn  Mn135  1  0.60838807  0.75032337  0.62268632  1
  Mn  Mn136  1  0.10756328  0.74981547  0.12289543  1
  Mn  Mn137  1  0.35791810  0.75040384  0.50257001  1
  Mn  Mn138  1  0.39265478  0.25022568  0.87814136  1
  Mn  Mn139  1  0.64163409  0.25046609  0.49822934  1
  Mn  Mn140  1  0.14193795  0.24913482  0.74764516  1
  Mn  Mn141  1  0.60767930  0.41610589  0.37284401  1
  Mn  Mn142  1  0.35827779  0.41673596  0.50295058  1
  Mn  Mn143  1  0.39189199  0.91690878  0.37749719  1
  Fe  Fe144  1  0.85726937  0.75126491  0.00183491  1
  Fe  Fe145  1  0.89195609  0.91746801  0.62702543  1
  Fe  Fe146  1  0.14303559  0.91676913  0.74865795  1
  Fe  Fe147  1  0.10827513  0.08287986  0.37293809  1
  Fe  Fe148  1  0.64266219  0.58365701  0.49874955  1
  Fe  Fe149  1  0.39349390  0.58332481  0.62686261  1
  Fe  Fe150  1  0.14397621  0.25039929  0.24845879  1
  Fe  Fe151  1  0.64319661  0.91587546  0.49916521  1
  Fe  Fe152  1  0.89196590  0.91708852  0.12684744  1
  Fe  Fe153  1  0.35845586  0.41711905  0.25186445  1
  Fe  Fe154  1  0.64257340  0.91565198  0.74783992  1
  Fe  Fe155  1  0.85636076  0.08313751  0.00131547  1
  Fe  Fe156  1  0.35807114  0.08270671  0.75203383  1
  Fe  Fe157  1  0.35784307  0.74976907  0.25161252  1
  Fe  Fe158  1  0.60662655  0.08357418  0.62400600  1
  Fe  Fe159  1  0.14316686  0.25053202  0.99839861  1
  Fe  Fe160  1  0.60621572  0.41641980  0.12313476  1
  Fe  Fe161  1  0.89316581  0.25012324  0.87739963  1
  Fe  Fe162  1  0.10647417  0.75016983  0.87344561  1
  Fe  Fe163  1  0.64194147  0.24934620  0.99782371  1
  Fe  Fe164  1  0.10715565  0.41684171  0.87336173  1
  Fe  Fe165  1  0.39312901  0.24903282  0.12610647  1
  Fe  Fe166  1  0.35769067  0.41633914  0.00074215  1
  Fe  Fe167  1  0.64327625  0.58361001  0.74918422  1
  Fe  Fe168  1  0.39329882  0.58322869  0.37688892  1
  Fe  Fe169  1  0.60697600  0.41672400  0.87349606  1
  Fe  Fe170  1  0.39332083  0.91688411  0.62731153  1
  Fe  Fe171  1  0.39369049  0.91614132  0.87677352  1
  Fe  Fe172  1  0.39251010  0.25002493  0.37639934  1
  Fe  Fe173  1  0.64088746  0.25034640  0.24776885  1
  Fe  Fe174  1  0.60724219  0.08287713  0.12299878  1
  Fe  Fe175  1  0.39349850  0.91679147  0.12616323  1
  Fe  Fe176  1  0.39260150  0.24940359  0.62683199  1
  Fe  Fe177  1  0.85648487  0.74956145  0.25147628  1
  Fe  Fe178  1  0.39302702  0.58336972  0.87610370  1
  Fe  Fe179  1  0.60737534  0.08331937  0.87290213  1
  Fe  Fe180  1  0.64267762  0.91686394  0.99887322  1
  Fe  Fe181  1  0.60739698  0.75068379  0.12375078  1
  Fe  Fe182  1  0.64183172  0.58330321  0.24823646  1
  Fe  Fe183  1  0.85723786  0.74979293  0.50084031  1
  Fe  Fe184  1  0.10711702  0.75026723  0.37261137  1
  Fe  Fe185  1  0.85761729  0.41725084  0.75290468  1
  Fe  Fe186  1  0.85712660  0.41702414  0.50142640  1
  Fe  Fe187  1  0.10628964  0.41687439  0.62327482  1
  Fe  Fe188  1  0.85692309  0.74984260  0.75225614  1
  Fe  Fe189  1  0.14295478  0.91601534  0.24773708  1
  Fe  Fe190  1  0.10707927  0.08327478  0.87375985  1
  Fe  Fe191  1  0.89260624  0.58286696  0.87622676  1
  P  P192  1  0.05592306  0.25058103  0.11035006  1
  P  P193  1  0.05439788  0.24927938  0.35896688  1
  P  P194  1  0.05320374  0.25094390  0.61010005  1
  P  P195  1  0.05384813  0.24982756  0.86184479  1
  P  P196  1  0.05347348  0.58356817  0.10966187  1
  P  P197  1  0.05293560  0.58454040  0.35972988  1
  P  P198  1  0.05252581  0.58266870  0.60992834  1
  P  P199  1  0.05183224  0.58372051  0.85999823  1
  P  P200  1  0.05313158  0.91608829  0.11075234  1
  P  P201  1  0.05441480  0.91628911  0.35915868  1
  P  P202  1  0.05273679  0.91654348  0.61143189  1
  P  P203  1  0.05383841  0.91688034  0.85978747  1
  P  P204  1  0.55372142  0.24966794  0.11033670  1
  P  P205  1  0.55219251  0.25024822  0.35912466  1
  P  P206  1  0.55188476  0.24924070  0.61060157  1
  P  P207  1  0.55483228  0.25011809  0.86144960  1
  P  P208  1  0.55495092  0.58402288  0.11151978  1
  P  P209  1  0.55436106  0.58310515  0.36062010  1
  P  P210  1  0.55449337  0.58312675  0.61072927  1
  P  P211  1  0.55280406  0.58238715  0.85945102  1
  P  P212  1  0.55304733  0.91633339  0.10954287  1
  P  P213  1  0.55478665  0.91647644  0.36134567  1
  P  P214  1  0.55415866  0.91723588  0.61092935  1
  P  P215  1  0.55490982  0.91680201  0.86067413  1
  P  P216  1  0.44806245  0.08269811  0.13924093  1
  P  P217  1  0.44658816  0.08403221  0.38985044  1
  P  P218  1  0.44710459  0.08283029  0.64088804  1
  P  P219  1  0.44699488  0.08228070  0.88872358  1
  P  P220  1  0.44574656  0.41576257  0.13881803  1
  P  P221  1  0.44541789  0.41677123  0.38841337  1
  P  P222  1  0.44691079  0.41649764  0.64029102  1
  P  P223  1  0.44738365  0.41764954  0.89053013  1
  P  P224  1  0.44758048  0.75110546  0.14056501  1
  P  P225  1  0.44576788  0.74928449  0.38918280  1
  P  P226  1  0.44702120  0.75016607  0.63991169  1
  P  P227  1  0.44715306  0.74971553  0.88972297  1
  P  P228  1  0.94488634  0.08280978  0.13865153  1
  P  P229  1  0.94852132  0.08362930  0.38947647  1
  P  P230  1  0.94653425  0.08260771  0.64043802  1
  P  P231  1  0.94702844  0.08419238  0.89104782  1
  P  P232  1  0.94731069  0.41645352  0.14030685  1
  P  P233  1  0.94558384  0.41645379  0.39011381  1
  P  P234  1  0.94520558  0.41660483  0.63975494  1
  P  P235  1  0.94636077  0.41661329  0.88916023  1
  P  P236  1  0.94400597  0.75119471  0.13931865  1
  P  P237  1  0.94563516  0.75013199  0.38905571  1
  P  P238  1  0.94349278  0.75106409  0.63924702  1
  P  P239  1  0.94531704  0.74972360  0.88915384  1
  P  P240  1  0.19558043  0.08293970  0.23594453  1
  P  P241  1  0.19657038  0.08291045  0.48422961  1
  P  P242  1  0.19674814  0.08214600  0.73654321  1
  P  P243  1  0.19649512  0.08442108  0.98428910  1
  P  P244  1  0.19922494  0.41646542  0.23537789  1
  P  P245  1  0.19566281  0.41675259  0.48641352  1
  P  P246  1  0.19429430  0.41672936  0.73517373  1
  P  P247  1  0.19793366  0.41568744  0.98383086  1
  P  P248  1  0.19715595  0.75026974  0.23576004  1
  P  P249  1  0.19591991  0.75012563  0.48447431  1
  P  P250  1  0.19492505  0.75095145  0.73642270  1
  P  P251  1  0.19612464  0.74994988  0.98385903  1
  P  P252  1  0.69533697  0.08429231  0.23404618  1
  P  P253  1  0.69509642  0.08239109  0.48681860  1
  P  P254  1  0.69436039  0.08276596  0.73582292  1
  P  P255  1  0.69499543  0.08280532  0.98564130  1
  P  P256  1  0.69482955  0.41658506  0.23386479  1
  P  P257  1  0.69752144  0.41738280  0.48530320  1
  P  P258  1  0.69684988  0.41784095  0.73715704  1
  P  P259  1  0.69384152  0.41577676  0.98558510  1
  P  P260  1  0.69692424  0.74934787  0.23410424  1
  P  P261  1  0.69786207  0.75031460  0.48527257  1
  P  P262  1  0.69781314  0.74942270  0.73567284  1
  P  P263  1  0.69656310  0.75153798  0.98629496  1
  P  P264  1  0.30304400  0.25073587  0.01527451  1
  P  P265  1  0.30501050  0.25046542  0.26404136  1
  P  P266  1  0.30514755  0.24954881  0.51493439  1
  P  P267  1  0.30512917  0.24885644  0.76382929  1
  P  P268  1  0.30507889  0.58235336  0.01334753  1
  P  P269  1  0.30487956  0.58360329  0.26564412  1
  P  P270  1  0.30525793  0.58368899  0.51526773  1
  P  P271  1  0.30519288  0.58340625  0.76441458  1
  P  P272  1  0.30548748  0.91684592  0.01444546  1
  P  P273  1  0.30396168  0.91586030  0.26334557  1
  P  P274  1  0.30369320  0.91643542  0.51643645  1
  P  P275  1  0.30490074  0.91745133  0.76488346  1
  P  P276  1  0.80315700  0.24892737  0.01357013  1
  P  P277  1  0.80052185  0.24999776  0.26459201  1
  P  P278  1  0.80285392  0.25071466  0.51508211  1
  P  P279  1  0.80429279  0.25069946  0.76646450  1
  P  P280  1  0.80484999  0.58381014  0.01346783  1
  P  P281  1  0.80113333  0.58383966  0.26422255  1
  P  P282  1  0.80184308  0.58317737  0.51435291  1
  P  P283  1  0.80285979  0.58334525  0.76663325  1
  P  P284  1  0.80286391  0.91763958  0.01504721  1
  P  P285  1  0.80421176  0.91626641  0.26365089  1
  P  P286  1  0.80312067  0.91631897  0.51534996  1
  P  P287  1  0.80285213  0.91628478  0.76412993  1
  O  O288  1  0.06097734  0.25088018  0.18706388  1
  O  O289  1  0.05707599  0.25008835  0.43575172  1
  O  O290  1  0.05589503  0.25012990  0.68705352  1
  O  O291  1  0.05852573  0.24997708  0.93844312  1
  O  O292  1  0.05737209  0.58349589  0.18639487  1
  O  O293  1  0.05608429  0.58402660  0.43651282  1
  O  O294  1  0.05547688  0.58349850  0.68651101  1
  O  O295  1  0.05543989  0.58377920  0.93671261  1
  O  O296  1  0.05855662  0.91593902  0.18737123  1
  O  O297  1  0.05662245  0.91605251  0.43598352  1
  O  O298  1  0.05803873  0.91663477  0.68801745  1
  O  O299  1  0.05640109  0.91670311  0.93661791  1
  O  O300  1  0.55749873  0.24991318  0.18704418  1
  O  O301  1  0.55615347  0.25025346  0.43589246  1
  O  O302  1  0.55603225  0.25037725  0.68723713  1
  O  O303  1  0.55847470  0.24970332  0.93827749  1
  O  O304  1  0.55839399  0.58419520  0.18825299  1
  O  O305  1  0.55944572  0.58336935  0.43737049  1
  O  O306  1  0.55968702  0.58334718  0.68734181  1
  O  O307  1  0.55630563  0.58353030  0.93630563  1
  O  O308  1  0.55622761  0.91639075  0.18628839  1
  O  O309  1  0.55934250  0.91591157  0.43808027  1
  O  O310  1  0.55900323  0.91566175  0.68763837  1
  O  O311  1  0.55947941  0.91605449  0.93735403  1
  O  O312  1  0.44468729  0.08289814  0.06248381  1
  O  O313  1  0.44363566  0.08309342  0.31317246  1
  O  O314  1  0.44388699  0.08259365  0.56411286  1
  O  O315  1  0.44229357  0.08290321  0.81214829  1
  O  O316  1  0.44130645  0.41633255  0.06213978  1
  O  O317  1  0.44210990  0.41700007  0.31172834  1
  O  O318  1  0.44436414  0.41659165  0.56315400  1
  O  O319  1  0.44356859  0.41679073  0.81396009  1
  O  O320  1  0.44393512  0.75004787  0.06385233  1
  O  O321  1  0.44166981  0.75017344  0.31242679  1
  O  O322  1  0.44436864  0.75025795  0.56322875  1
  O  O323  1  0.44433199  0.74993994  0.81297436  1
  O  O324  1  0.94016702  0.08346367  0.06197323  1
  O  O325  1  0.94419871  0.08387843  0.31277961  1
  O  O326  1  0.94363733  0.08277443  0.56366160  1
  O  O327  1  0.94313821  0.08349043  0.81431796  1
  O  O328  1  0.94351867  0.41620227  0.06354120  1
  O  O329  1  0.94200059  0.41671072  0.31333965  1
  O  O330  1  0.94026449  0.41697867  0.56310008  1
  O  O331  1  0.94170770  0.41665264  0.81241553  1
  O  O332  1  0.93993807  0.75083836  0.06246524  1
  O  O333  1  0.94042289  0.74953289  0.31237830  1
  O  O334  1  0.93953906  0.75013939  0.56248366  1
  O  O335  1  0.94053119  0.75044509  0.81238503  1
  O  O336  1  0.19366456  0.08333401  0.06109149  1
  O  O337  1  0.19205544  0.08275980  0.31275178  1
  O  O338  1  0.19372495  0.08307491  0.56109703  1
  O  O339  1  0.19144702  0.08310434  0.81312866  1
  O  O340  1  0.19499341  0.41681641  0.06059138  1
  O  O341  1  0.19513516  0.41686328  0.31206990  1
  O  O342  1  0.19099780  0.41695929  0.56290963  1
  O  O343  1  0.18971729  0.41685187  0.81203483  1
  O  O344  1  0.19311884  0.74987732  0.06068193  1
  O  O345  1  0.19212118  0.74997269  0.31237891  1
  O  O346  1  0.19243754  0.74997810  0.56127149  1
  O  O347  1  0.19027811  0.74994490  0.81313870  1
  O  O348  1  0.69042222  0.08298911  0.06236653  1
  O  O349  1  0.69264477  0.08358979  0.31089046  1
  O  O350  1  0.69080831  0.08346090  0.56357061  1
  O  O351  1  0.69047757  0.08344984  0.81266495  1
  O  O352  1  0.68918871  0.41621609  0.06231487  1
  O  O353  1  0.69275924  0.41637946  0.31055535  1
  O  O354  1  0.69414553  0.41652478  0.56215437  1
  O  O355  1  0.69164911  0.41688920  0.81370600  1
  O  O356  1  0.69149835  0.75077318  0.06288023  1
  O  O357  1  0.69350586  0.75010791  0.31078127  1
  O  O358  1  0.69457900  0.75030299  0.56225963  1
  O  O359  1  0.69438859  0.74993651  0.81225478  1
  O  O360  1  0.30988258  0.24956473  0.18731688  1
  O  O361  1  0.30925322  0.24971866  0.43815595  1
  O  O362  1  0.30941812  0.24943972  0.68709191  1
  O  O363  1  0.30663992  0.24967696  0.93851334  1
  O  O364  1  0.30731462  0.58370324  0.18873640  1
  O  O365  1  0.30970753  0.58345326  0.43853995  1
  O  O366  1  0.30993618  0.58347085  0.68767176  1
  O  O367  1  0.30931547  0.58317971  0.93661193  1
  O  O368  1  0.30922608  0.91660828  0.18669940  1
  O  O369  1  0.30671325  0.91645226  0.43958804  1
  O  O370  1  0.30982107  0.91676756  0.68820633  1
  O  O371  1  0.31004929  0.91671008  0.93770152  1
  O  O372  1  0.80471174  0.24967817  0.18787429  1
  O  O373  1  0.80571509  0.24974377  0.43832630  1
  O  O374  1  0.80712793  0.24992171  0.68964766  1
  O  O375  1  0.80881040  0.24972586  0.93701135  1
  O  O376  1  0.80478179  0.58327154  0.18746552  1
  O  O377  1  0.80503616  0.58307983  0.43803021  1
  O  O378  1  0.80572925  0.58282621  0.68913939  1
  O  O379  1  0.80941207  0.58296415  0.93684792  1
  O  O380  1  0.80797158  0.91732020  0.18690733  1
  O  O381  1  0.80662984  0.91736044  0.43860364  1
  O  O382  1  0.80761548  0.91738302  0.68748713  1
  O  O383  1  0.80627509  0.91767866  0.93834094  1
  O  O384  1  0.23309097  0.25058921  0.03992730  1
  O  O385  1  0.23455603  0.24982394  0.28761410  1
  O  O386  1  0.23522191  0.24954240  0.53915221  1
  O  O387  1  0.23493697  0.24945612  0.78767495  1
  O  O388  1  0.23511429  0.58296910  0.03769980  1
  O  O389  1  0.23536016  0.58325114  0.29133763  1
  O  O390  1  0.23523382  0.58393182  0.53924554  1
  O  O391  1  0.23493744  0.58333022  0.78778686  1
  O  O392  1  0.23527646  0.91679035  0.03806609  1
  O  O393  1  0.23358822  0.91611441  0.28693883  1
  O  O394  1  0.23400682  0.91645188  0.54143985  1
  O  O395  1  0.23447513  0.91678395  0.78833358  1
  O  O396  1  0.73244034  0.24918695  0.03619600  1
  O  O397  1  0.73045274  0.25021876  0.28898243  1
  O  O398  1  0.73334970  0.25067922  0.54101404  1
  O  O399  1  0.73443579  0.25018333  0.79115978  1
  O  O400  1  0.73454839  0.58354563  0.03700929  1
  O  O401  1  0.73112426  0.58349137  0.28891629  1
  O  O402  1  0.73204074  0.58352328  0.54005377  1
  O  O403  1  0.73308487  0.58383054  0.79149934  1
  O  O404  1  0.73273829  0.91724225  0.03965532  1
  O  O405  1  0.73430618  0.91623086  0.28816793  1
  O  O406  1  0.73307918  0.91629980  0.54017138  1
  O  O407  1  0.73247997  0.91638888  0.78783915  1
  O  O408  1  0.26541824  0.08331814  0.21107654  1
  O  O409  1  0.26619398  0.08264810  0.45899318  1
  O  O410  1  0.26707318  0.08239378  0.71290478  1
  O  O411  1  0.26622895  0.08364997  0.95924932  1
  O  O412  1  0.26934506  0.41707429  0.21097312  1
  O  O413  1  0.26601701  0.41633341  0.46262613  1
  O  O414  1  0.26457010  0.41672948  0.71186464  1
  O  O415  1  0.26785414  0.41601609  0.95870040  1
  O  O416  1  0.26749713  0.74976359  0.21185971  1
  O  O417  1  0.26580836  0.75048296  0.46000527  1
  O  O418  1  0.26510912  0.75056271  0.71265534  1
  O  O419  1  0.26594717  0.75005545  0.95906892  1
  O  O420  1  0.76496167  0.08378882  0.20880118  1
  O  O421  1  0.76496911  0.08290631  0.46208100  1
  O  O422  1  0.76447155  0.08338348  0.71192888  1
  O  O423  1  0.76538682  0.08294919  0.96179694  1
  O  O424  1  0.76426639  0.41657697  0.20754288  1
  O  O425  1  0.76730923  0.41714234  0.46010405  1
  O  O426  1  0.76729348  0.41739367  0.71367160  1
  O  O427  1  0.76413476  0.41637977  0.96233400  1
  O  O428  1  0.76694056  0.74987053  0.20943437  1
  O  O429  1  0.76769804  0.74996574  0.46019593  1
  O  O430  1  0.76777086  0.74934018  0.71078285  1
  O  O431  1  0.76697820  0.75157895  0.96272597  1
  O  O432  1  0.01512561  0.08328496  0.16213117  1
  O  O433  1  0.01860101  0.08293818  0.41375965  1
  O  O434  1  0.01613649  0.08378210  0.66584963  1
  O  O435  1  0.01718711  0.08319932  0.91532793  1
  O  O436  1  0.01709266  0.41661687  0.16497598  1
  O  O437  1  0.01551071  0.41656083  0.41455482  1
  O  O438  1  0.01544992  0.41662164  0.66343260  1
  O  O439  1  0.01678867  0.41661313  0.91289441  1
  O  O440  1  0.01413044  0.75029602  0.16318424  1
  O  O441  1  0.01603086  0.75085092  0.41247266  1
  O  O442  1  0.01346157  0.74984663  0.66335681  1
  O  O443  1  0.01578112  0.75071417  0.91269906  1
  O  O444  1  0.51806550  0.08318078  0.16408384  1
  O  O445  1  0.51613909  0.08366319  0.41534782  1
  O  O446  1  0.51715126  0.08293136  0.66565923  1
  O  O447  1  0.51737999  0.08263212  0.91239864  1
  O  O448  1  0.51621779  0.41658976  0.16240606  1
  O  O449  1  0.51507801  0.41639857  0.41371377  1
  O  O450  1  0.51642645  0.41653732  0.66573026  1
  O  O451  1  0.51746162  0.41676648  0.91506297  1
  O  O452  1  0.51764772  0.75073168  0.16516454  1
  O  O453  1  0.51567805  0.74949244  0.41367744  1
  O  O454  1  0.51675589  0.75017556  0.66544400  1
  O  O455  1  0.51676413  0.74946645  0.91513041  1
  O  O456  1  0.48338416  0.24927308  0.08607391  1
  O  O457  1  0.48213640  0.25042044  0.33479228  1
  O  O458  1  0.48184008  0.24923621  0.58610787  1
  O  O459  1  0.48487757  0.25015594  0.83711375  1
  O  O460  1  0.48497757  0.58337833  0.08692028  1
  O  O461  1  0.48397093  0.58314328  0.33720436  1
  O  O462  1  0.48403287  0.58317967  0.58738946  1
  O  O463  1  0.48276589  0.58310045  0.83501656  1
  O  O464  1  0.48311443  0.91632788  0.08453020  1
  O  O465  1  0.48473121  0.91702907  0.33740562  1
  O  O466  1  0.48374647  0.91687634  0.58742386  1
  O  O467  1  0.48445221  0.91648194  0.83714099  1
  O  O468  1  0.98559281  0.25024294  0.08714102  1
  O  O469  1  0.98472817  0.24989389  0.33346568  1
  O  O470  1  0.98373218  0.24996488  0.58460464  1
  O  O471  1  0.98353582  0.25020603  0.83780650  1
  O  O472  1  0.98364133  0.58379898  0.08513514  1
  O  O473  1  0.98329124  0.58379915  0.33450749  1
  O  O474  1  0.98257055  0.58350803  0.58469604  1
  O  O475  1  0.98181279  0.58317615  0.83509381  1
  O  O476  1  0.98276460  0.91638776  0.08728920  1
  O  O477  1  0.98477990  0.91675244  0.33364667  1
  O  O478  1  0.98248683  0.91652182  0.58754157  1
  O  O479  1  0.98403974  0.91698397  0.83473222  1
  O  O480  1  0.08931145  0.31549138  0.07676416  1
  O  O481  1  0.08918715  0.31413809  0.32643818  1
  O  O482  1  0.08690077  0.31629191  0.57810998  1
  O  O483  1  0.08743706  0.31467582  0.82841951  1
  O  O484  1  0.08742241  0.64852427  0.07696598  1
  O  O485  1  0.08668006  0.64987646  0.32738910  1
  O  O486  1  0.08682167  0.64750972  0.57731191  1
  O  O487  1  0.08519594  0.64901889  0.82717793  1
  O  O488  1  0.08654342  0.98109415  0.07737658  1
  O  O489  1  0.08910247  0.98120169  0.32703339  1
  O  O490  1  0.08619376  0.98156336  0.57812684  1
  O  O491  1  0.08814742  0.98210626  0.82771767  1
  O  O492  1  0.58704015  0.31481420  0.07717625  1
  O  O493  1  0.58614227  0.31512957  0.32630052  1
  O  O494  1  0.58545865  0.31422834  0.57724619  1
  O  O495  1  0.58825386  0.31542394  0.82868696  1
  O  O496  1  0.58808351  0.64937593  0.07838897  1
  O  O497  1  0.58784255  0.64798445  0.32714397  1
  O  O498  1  0.58776836  0.64821635  0.57707802  1
  O  O499  1  0.58722263  0.64704158  0.82646449  1
  O  O500  1  0.58713304  0.98134277  0.07689765  1
  O  O501  1  0.58851061  0.98142581  0.32840155  1
  O  O502  1  0.58737098  0.98257681  0.57835216  1
  O  O503  1  0.58814291  0.98189876  0.82757332  1
  O  O504  1  0.41454468  0.01745953  0.17192317  1
  O  O505  1  0.41236398  0.01917767  0.42269106  1
  O  O506  1  0.41327552  0.01772754  0.67368510  1
  O  O507  1  0.41388860  0.01718111  0.92188489  1
  O  O508  1  0.41289605  0.35040139  0.17184387  1
  O  O509  1  0.41127658  0.35161824  0.42087398  1
  O  O510  1  0.41267583  0.35142393  0.67227755  1
  O  O511  1  0.41304390  0.35289102  0.92368268  1
  O  O512  1  0.41338756  0.68624978  0.17357016  1
  O  O513  1  0.41236676  0.68391235  0.42174537  1
  O  O514  1  0.41288682  0.68507127  0.67217377  1
  O  O515  1  0.41295768  0.68461025  0.92192255  1
  O  O516  1  0.91190769  0.01747266  0.17171564  1
  O  O517  1  0.91447989  0.01869372  0.42225347  1
  O  O518  1  0.91283390  0.01733903  0.67300203  1
  O  O519  1  0.91251098  0.01936452  0.92368122  1
  O  O520  1  0.91325896  0.35143551  0.17286155  1
  O  O521  1  0.91160648  0.35135211  0.42260780  1
  O  O522  1  0.91170559  0.35179170  0.67321248  1
  O  O523  1  0.91315509  0.35152104  0.92260854  1
  O  O524  1  0.91001639  0.68636365  0.17260259  1
  O  O525  1  0.91240731  0.68517467  0.42277971  1
  O  O526  1  0.90919812  0.68617574  0.67253507  1
  O  O527  1  0.91236263  0.68447182  0.92217025  1
  O  O528  1  0.16203898  0.01777738  0.20288647  1
  O  O529  1  0.16205174  0.01791492  0.45215237  1
  O  O530  1  0.16353221  0.01692274  0.70340634  1
  O  O531  1  0.16170682  0.01978711  0.95164033  1
  O  O532  1  0.16581926  0.35131598  0.20256716  1
  O  O533  1  0.16238712  0.35178006  0.45296993  1
  O  O534  1  0.16090496  0.35155306  0.70214982  1
  O  O535  1  0.16385805  0.35042273  0.95179594  1
  O  O536  1  0.16376212  0.68519354  0.20240814  1
  O  O537  1  0.16204263  0.68516695  0.45156420  1
  O  O538  1  0.16146172  0.68615072  0.70278117  1
  O  O539  1  0.16187288  0.68502768  0.95124202  1
  O  O540  1  0.66083078  0.01935900  0.20145816  1
  O  O541  1  0.66186171  0.01691752  0.45428525  1
  O  O542  1  0.66090222  0.01757667  0.70311776  1
  O  O543  1  0.66180283  0.01752445  0.95261550  1
  O  O544  1  0.66016307  0.35153279  0.20176193  1
  O  O545  1  0.66328842  0.35245479  0.45265768  1
  O  O546  1  0.66363596  0.35300886  0.70303003  1
  O  O547  1  0.66069327  0.35067318  0.95235574  1
  O  O548  1  0.66295318  0.68434065  0.20160818  1
  O  O549  1  0.66358240  0.68535385  0.45311003  1
  O  O550  1  0.66400344  0.68416051  0.70329843  1
  O  O551  1  0.66363112  0.68640696  0.95247144  1
  O  O552  1  0.33732796  0.31583666  0.04726798  1
  O  O553  1  0.33798772  0.31569838  0.29723346  1
  O  O554  1  0.33902680  0.31452507  0.54814604  1
  O  O555  1  0.33857633  0.31386040  0.79714224  1
  O  O556  1  0.33894932  0.64711250  0.04688070  1
  O  O557  1  0.33912432  0.64878755  0.29772840  1
  O  O558  1  0.33914235  0.64848998  0.54837318  1
  O  O559  1  0.33869908  0.64835620  0.79781212  1
  O  O560  1  0.33897700  0.98187402  0.04770818  1
  O  O561  1  0.33708815  0.98090219  0.29704831  1
  O  O562  1  0.33804567  0.98141200  0.54882553  1
  O  O563  1  0.33810851  0.98254370  0.79821601  1
  O  O564  1  0.83600511  0.31386418  0.04766851  1
  O  O565  1  0.83450450  0.31506426  0.29697503  1
  O  O566  1  0.83705167  0.31601267  0.54687628  1
  O  O567  1  0.83826296  0.31588842  0.79869274  1
  O  O568  1  0.83781814  0.64925023  0.04618427  1
  O  O569  1  0.83487540  0.64898966  0.29675330  1
  O  O570  1  0.83607962  0.64825391  0.54696468  1
  O  O571  1  0.83741531  0.64837813  0.79805490  1
  O  O572  1  0.83653794  0.98279611  0.04779428  1
  O  O573  1  0.83765207  0.98121594  0.29716038  1
  O  O574  1  0.83707182  0.98116538  0.54863689  1
  O  O575  1  0.83601935  0.98115292  0.79802230  1
  O  O576  1  0.41378521  0.14758429  0.17168583  1
  O  O577  1  0.41269825  0.14947009  0.42168646  1
  O  O578  1  0.41298373  0.14779233  0.67345545  1
  O  O579  1  0.41379321  0.14728079  0.92245322  1
  O  O580  1  0.41216793  0.48056506  0.17248952  1
  O  O581  1  0.41182090  0.48195606  0.42145923  1
  O  O582  1  0.41268109  0.48163391  0.67220090  1
  O  O583  1  0.41387918  0.48294086  0.92310049  1
  O  O584  1  0.41366610  0.81629184  0.17286263  1
  O  O585  1  0.41205012  0.81421072  0.42238083  1
  O  O586  1  0.41292122  0.81524604  0.67236621  1
  O  O587  1  0.41322399  0.81494887  0.92204975  1
  O  O588  1  0.91162819  0.14780213  0.17229280  1
  O  O589  1  0.91492253  0.14868511  0.42241971  1
  O  O590  1  0.91179096  0.14742073  0.67268759  1
  O  O591  1  0.91345190  0.14938123  0.92373960  1
  O  O592  1  0.91321166  0.48156314  0.17265757  1
  O  O593  1  0.91145482  0.48139429  0.42294748  1
  O  O594  1  0.91173775  0.48184253  0.67324996  1
  O  O595  1  0.91303539  0.48168551  0.92221624  1
  O  O596  1  0.91072870  0.81638880  0.17223765  1
  O  O597  1  0.91192600  0.81507399  0.42226174  1
  O  O598  1  0.91033951  0.81628771  0.67226847  1
  O  O599  1  0.91155528  0.81459618  0.92262995  1
  O  O600  1  0.08947601  0.18560984  0.07705431  1
  O  O601  1  0.08852458  0.18400552  0.32698943  1
  O  O602  1  0.08805237  0.18612251  0.57803236  1
  O  O603  1  0.08680764  0.18436818  0.82851824  1
  O  O604  1  0.08731149  0.51840554  0.07698254  1
  O  O605  1  0.08748437  0.51956991  0.32737169  1
  O  O606  1  0.08608493  0.51731832  0.57771952  1
  O  O607  1  0.08607115  0.51874179  0.82762710  1
  O  O608  1  0.08625617  0.85115044  0.07716403  1
  O  O609  1  0.08846204  0.85105871  0.32662773  1
  O  O610  1  0.08590056  0.85151781  0.57786650  1
  O  O611  1  0.08799315  0.85193028  0.82720334  1
  O  O612  1  0.58755900  0.18471860  0.07730402  1
  O  O613  1  0.58607374  0.18528841  0.32633069  1
  O  O614  1  0.58556139  0.18403037  0.57820892  1
  O  O615  1  0.58838114  0.18509477  0.82850013  1
  O  O616  1  0.58878793  0.51904761  0.07873332  1
  O  O617  1  0.58755380  0.51809554  0.32726426  1
  O  O618  1  0.58775168  0.51813331  0.57724748  1
  O  O619  1  0.58646793  0.51710807  0.82721379  1
  O  O620  1  0.58719052  0.85125948  0.07704667  1
  O  O621  1  0.58791257  0.85144191  0.32780395  1
  O  O622  1  0.58779994  0.85247429  0.57697929  1
  O  O623  1  0.58830504  0.85189104  0.82691467  1
  O  O624  1  0.33710094  0.18584760  0.04846412  1
  O  O625  1  0.33853190  0.18562723  0.29763950  1
  O  O626  1  0.33891579  0.18457300  0.54791010  1
  O  O627  1  0.33831784  0.18370309  0.79693890  1
  O  O628  1  0.33836975  0.51695513  0.04599777  1
  O  O629  1  0.33955984  0.51865601  0.29767547  1
  O  O630  1  0.33889581  0.51854445  0.54851249  1
  O  O631  1  0.33868447  0.51846645  0.79775432  1
  O  O632  1  0.33908875  0.85191753  0.04772829  1
  O  O633  1  0.33710537  0.85077823  0.29673154  1
  O  O634  1  0.33807943  0.85160054  0.54892997  1
  O  O635  1  0.33860441  0.85259849  0.79846067  1
  O  O636  1  0.83586595  0.18371801  0.04699010  1
  O  O637  1  0.83426567  0.18504634  0.29775224  1
  O  O638  1  0.83704627  0.18565214  0.54764285  1
  O  O639  1  0.83864109  0.18579618  0.79911283  1
  O  O640  1  0.83794497  0.51882890  0.04718014  1
  O  O641  1  0.83499938  0.51886008  0.29695518  1
  O  O642  1  0.83572109  0.51808175  0.54736761  1
  O  O643  1  0.83701759  0.51844439  0.79889317  1
  O  O644  1  0.83720062  0.85281155  0.04765588  1
  O  O645  1  0.83785085  0.85089567  0.29590461  1
  O  O646  1  0.83708410  0.85108228  0.54739352  1
  O  O647  1  0.83608690  0.85111795  0.79707904  1
  O  O648  1  0.16177447  0.14813776  0.20348052  1
  O  O649  1  0.16238348  0.14788962  0.45176008  1
  O  O650  1  0.16349797  0.14710410  0.70268905  1
  O  O651  1  0.16271645  0.14986784  0.95230418  1
  O  O652  1  0.16543158  0.48144232  0.20230816  1
  O  O653  1  0.16276879  0.48186568  0.45273544  1
  O  O654  1  0.16072260  0.48161561  0.70197124  1
  O  O655  1  0.16334434  0.48035605  0.95089110  1
  O  O656  1  0.16395228  0.81537500  0.20227385  1
  O  O657  1  0.16174004  0.81510100  0.45193697  1
  O  O658  1  0.16185095  0.81641683  0.70364146  1
  O  O659  1  0.16183548  0.81498452  0.95158082  1
  O  O660  1  0.66108832  0.14935207  0.20190249  1
  O  O661  1  0.66115746  0.14731231  0.45361328  1
  O  O662  1  0.66046861  0.14762219  0.70256639  1
  O  O663  1  0.66134272  0.14766996  0.95223127  1
  O  O664  1  0.66027524  0.48173237  0.20193221  1
  O  O665  1  0.66346434  0.48248099  0.45317431  1
  O  O666  1  0.66390618  0.48318978  0.70413270  1
  O  O667  1  0.66023150  0.48075157  0.95218761  1
  O  O668  1  0.66278535  0.81425806  0.20110641  1
  O  O669  1  0.66418533  0.81550772  0.45287678  1
  O  O670  1  0.66393441  0.81431361  0.70255191  1
  O  O671  1  0.66331640  0.81652831  0.95315130  1
