# generated using pymatgen
data_In2Te3
_symmetry_space_group_name_H-M   'P 1'
_cell_length_a   18.86105006
_cell_length_b   18.86142767
_cell_length_c   18.86886579
_cell_angle_alpha   89.94807348
_cell_angle_beta   90.11288165
_cell_angle_gamma   90.05372797
_symmetry_Int_Tables_number   1
_chemical_formula_structural   In2Te3
_chemical_formula_sum   'In72 Te108'
_cell_volume   6712.51105971
_cell_formula_units_Z   36
loop_
 _symmetry_equiv_pos_site_id
 _symmetry_equiv_pos_as_xyz
  1  'x, y, z'
loop_
 _atom_site_type_symbol
 _atom_site_label
 _atom_site_symmetry_multiplicity
 _atom_site_fract_x
 _atom_site_fract_y
 _atom_site_fract_z
 _atom_site_occupancy
  In  In0  1  -0.03394835  0.68026545  -0.01846376  1
  In  In1  1  0.15992425  0.33977014  0.49454887  1
  In  In2  1  0.33021927  0.51451827  0.17229457  1
  In  In3  1  0.15442914  0.64554337  0.82654455  1
  In  In4  1  0.82764215  0.66638228  0.85168552  1
  In  In5  1  0.29659582  0.47087841  0.84547386  1
  In  In6  1  0.50952556  0.68753689  0.19712997  1
  In  In7  1  0.67313685  0.34545692  0.34492911  1
  In  In8  1  0.68736897  0.15756523  0.13621896  1
  In  In9  1  0.67970433  0.52697181  0.19738112  1
  In  In10  1  0.33960599  0.66962879  0.01115844  1
  In  In11  1  0.16773432  0.17474321  0.31198998  1
  In  In12  1  -0.00397865  0.32087583  0.00188136  1
  In  In13  1  0.67313665  0.16175732  0.48983746  1
  In  In14  1  0.83178022  0.83840337  0.34768137  1
  In  In15  1  0.82626196  0.30899166  0.83534600  1
  In  In16  1  0.83199442  0.82918111  0.67108054  1
  In  In17  1  0.21326319  0.79678073  0.62796288  1
  In  In18  1  0.63419908  0.55722481  0.48389774  1
  In  In19  1  0.50320239  0.32195654  0.16840858  1
  In  In20  1  0.16476428  0.83771751  0.02644936  1
  In  In21  1  0.63414848  0.69724951  0.65138540  1
  In  In22  1  0.53410318  0.88208807  -0.03710486  1
  In  In23  1  0.34221412  0.83708935  0.84353104  1
  In  In24  1  0.01013130  0.71219936  0.34181839  1
  In  In25  1  0.50334511  0.48964787  -0.00625267  1
  In  In26  1  0.16567772  0.52126951  0.66241414  1
  In  In27  1  0.17181613  0.67443677  0.17203010  1
  In  In28  1  0.31195740  0.18376932  0.14633146  1
  In  In29  1  0.32606907  0.32790420  0.67444696  1
  In  In30  1  0.49970361  0.66942677  0.81680667  1
  In  In31  1  0.83433582  0.15823440  0.68244286  1
  In  In32  1  0.33883460  0.14752186  0.50117509  1
  In  In33  1  0.47851021  -0.02841757  0.52465256  1
  In  In34  1  0.81287424  0.51629630  0.01447226  1
  In  In35  1  0.68277983  -0.02746890  0.70139264  1
  In  In36  1  0.34512909  0.15105762  0.83236627  1
  In  In37  1  -0.00965757  0.64599809  0.63420277  1
  In  In38  1  0.82566115  0.15266996  0.32229915  1
  In  In39  1  -0.01719468  0.80472904  0.82593599  1
  In  In40  1  0.65804895  0.34095342  0.67246672  1
  In  In41  1  0.32727421  -0.01253935  0.34439789  1
  In  In42  1  0.83100347  0.68518017  0.48515629  1
  In  In43  1  0.84494650  0.36898388  0.51028183  1
  In  In44  1  -0.01200836  0.14927999  0.50712757  1
  In  In45  1  0.32836386  0.83019506  0.17364869  1
  In  In46  1  0.14344693  0.17337121  -0.00219844  1
  In  In47  1  0.84473006  0.01682508  0.16451305  1
  In  In48  1  0.00579148  0.31825546  0.32260939  1
  In  In49  1  0.52338643  0.33421266  0.50779662  1
  In  In50  1  0.00158473  0.50436903  0.16802990  1
  In  In51  1  0.32567931  0.68562485  0.32625482  1
  In  In52  1  0.51296118  0.13891451  -0.02657610  1
  In  In53  1  0.49232078  0.33983069  0.82847513  1
  In  In54  1  0.84543459  0.34785864  0.13772096  1
  In  In55  1  0.50181941  0.13857169  0.69239276  1
  In  In56  1  0.67857935  0.68748510  0.03332891  1
  In  In57  1  0.19124342  0.16124860  0.66285228  1
  In  In58  1  -0.01191345  0.52781280  0.49389250  1
  In  In59  1  0.34271115  0.35914028  0.32114816  1
  In  In60  1  -0.00750224  0.01064004  0.01285040  1
  In  In61  1  0.83199582  0.48543901  0.65215786  1
  In  In62  1  0.52038958  -0.00327102  0.14926568  1
  In  In63  1  0.65391430  0.00624267  0.33688920  1
  In  In64  1  0.52000839  0.80740811  0.33523158  1
  In  In65  1  0.00879466  0.47750627  0.83195680  1
  In  In66  1  0.83721539  0.15581059  -0.01238042  1
  In  In67  1  0.00281174  -0.01877840  0.67498205  1
  In  In68  1  0.16372190  -0.00544050  0.83665830  1
  In  In69  1  0.17647431  0.01084830  0.51685797  1
  In  In70  1  0.34793245  0.54832264  0.49407360  1
  In  In71  1  -0.00262067  -0.05129947  0.30498517  1
  Te  Te72  1  0.09959304  0.06976233  0.09299918  1
  Te  Te73  1  0.09320918  0.08820528  0.41535947  1
  Te  Te74  1  0.08461982  0.08798886  0.74578969  1
  Te  Te75  1  0.07957586  0.42121615  0.07311485  1
  Te  Te76  1  0.07076729  0.42582273  0.40926900  1
  Te  Te77  1  0.11489048  0.41487731  0.75153734  1
  Te  Te78  1  0.06473572  0.74179674  0.08561112  1
  Te  Te79  1  0.09468408  0.73946627  0.45675565  1
  Te  Te80  1  0.07876696  0.73515087  0.72878970  1
  Te  Te81  1  0.42047384  0.09091937  0.08381049  1
  Te  Te82  1  0.43411507  0.07324815  0.41167814  1
  Te  Te83  1  0.41656391  0.04081157  0.76247451  1
  Te  Te84  1  0.41125097  0.41452204  0.08848462  1
  Te  Te85  1  0.42318360  0.42173467  0.43394195  1
  Te  Te86  1  0.41020998  0.43367148  0.74175228  1
  Te  Te87  1  0.43283773  0.76187884  0.08640891  1
  Te  Te88  1  0.40441267  0.76682717  0.42282167  1
  Te  Te89  1  0.43398995  0.78057953  0.73683684  1
  Te  Te90  1  0.74469637  0.04902432  0.05021208  1
  Te  Te91  1  0.76708680  0.06028654  0.42737816  1
  Te  Te92  1  0.73672020  0.09540253  0.77127413  1
  Te  Te93  1  0.72219548  0.42208845  0.09144666  1
  Te  Te94  1  0.73579435  0.44605409  0.43813240  1
  Te  Te95  1  0.74884413  0.42460579  0.76173354  1
  Te  Te96  1  0.78668339  0.78073262  0.06888314  1
  Te  Te97  1  0.72373602  0.75051505  0.40433778  1
  Te  Te98  1  0.73810599  0.74524206  0.75592111  1
  Te  Te99  1  0.10118307  0.27007250  0.22244975  1
  Te  Te100  1  0.08685775  0.23976593  0.58299712  1
  Te  Te101  1  0.05107824  0.23287274  0.89813319  1
  Te  Te102  1  0.07924499  0.59500012  0.26308036  1
  Te  Te103  1  0.11361646  0.60833270  0.53908564  1
  Te  Te104  1  0.06853352  0.57745506  0.93085106  1
  Te  Te105  1  0.11312948  0.90188085  0.23335517  1
  Te  Te106  1  0.10069883  0.90151007  0.59328365  1
  Te  Te107  1  0.07313520  0.89493316  0.91152821  1
  Te  Te108  1  0.40710138  0.23932653  0.25359601  1
  Te  Te109  1  0.42592663  0.24363983  0.59350302  1
  Te  Te110  1  0.41675885  0.24897698  0.92373333  1
  Te  Te111  1  0.43208463  0.57803546  0.27189638  1
  Te  Te112  1  0.44359343  0.61798577  0.58858333  1
  Te  Te113  1  0.40608360  0.57672511  0.91108722  1
  Te  Te114  1  0.43647173  0.91239188  0.25352387  1
  Te  Te115  1  0.42076382  0.86078938  0.60260260  1
  Te  Te116  1  0.39390914  0.92849191  0.94691995  1
  Te  Te117  1  0.75048698  0.25959990  0.24305351  1
  Te  Te118  1  0.74953223  0.26118085  0.57826672  1
  Te  Te119  1  0.73696961  0.25144061  0.93613804  1
  Te  Te120  1  0.77858657  0.59004444  0.28203979  1
  Te  Te121  1  0.75450609  0.60040227  0.58867499  1
  Te  Te122  1  0.71763305  0.58826829  0.92165170  1
  Te  Te123  1  0.75281235  0.93168182  0.25136179  1
  Te  Te124  1  0.72957506  0.89336397  0.58652368  1
  Te  Te125  1  0.69860438  0.93256405  0.85213273  1
  Te  Te126  1  0.24392471  0.27701002  0.04905378  1
  Te  Te127  1  0.25946538  0.24857234  0.41964765  1
  Te  Te128  1  0.24316642  0.25093229  0.77460419  1
  Te  Te129  1  0.23422436  0.57876220  0.07080076  1
  Te  Te130  1  0.25451429  0.56844127  0.38019916  1
  Te  Te131  1  0.27047063  0.59166474  0.74664766  1
  Te  Te132  1  0.26882966  0.92750816  0.07855519  1
  Te  Te133  1  0.24964718  0.90791307  0.43992915  1
  Te  Te134  1  0.23545800  0.89217355  0.74893294  1
  Te  Te135  1  0.58277963  0.24316505  0.06540991  1
  Te  Te136  1  0.57745127  0.24000625  0.40121390  1
  Te  Te137  1  0.58973229  0.23942687  0.76396110  1
  Te  Te138  1  0.56999010  0.58659290  0.09359664  1
  Te  Te139  1  0.55635627  0.59982172  0.36620226  1
  Te  Te140  1  0.59223219  0.58616426  0.73929020  1
  Te  Te141  1  0.61092062  0.89900847  0.08751278  1
  Te  Te142  1  0.58381879  0.91061040  0.43026178  1
  Te  Te143  1  0.56096073  0.92508852  0.77665296  1
  Te  Te144  1  0.92133807  0.22539360  0.09584417  1
  Te  Te145  1  0.90216417  0.24944941  0.42475661  1
  Te  Te146  1  0.92181957  0.26439597  0.73377262  1
  Te  Te147  1  0.90371746  0.60131149  0.09855656  1
  Te  Te148  1  0.89534820  0.58668821  0.38694215  1
  Te  Te149  1  0.91830330  0.58415908  0.75624844  1
  Te  Te150  1  0.91720748  0.90947326  0.09207104  1
  Te  Te151  1  0.93036642  0.91514793  0.42927353  1
  Te  Te152  1  0.90165944  0.92233067  0.77109547  1
  Te  Te153  1  0.25521342  0.07299316  0.24167259  1
  Te  Te154  1  0.28855048  0.05667094  0.61179255  1
  Te  Te155  1  0.24779861  0.08150429  0.92612462  1
  Te  Te156  1  0.23703624  0.42253176  0.24256659  1
  Te  Te157  1  0.25796662  0.42504826  0.57518452  1
  Te  Te158  1  0.22574145  0.39720124  0.94906331  1
  Te  Te159  1  0.21474246  0.78947114  0.27004193  1
  Te  Te160  1  0.30687449  0.69705543  0.56433723  1
  Te  Te161  1  0.23734786  0.74183330  0.91915032  1
  Te  Te162  1  0.58888810  0.10160137  0.23841953  1
  Te  Te163  1  0.58397469  0.07708203  0.57956409  1
  Te  Te164  1  0.58742477  0.03529074  0.89436449  1
  Te  Te165  1  0.57692982  0.42190037  0.25651221  1
  Te  Te166  1  0.58841728  0.44537586  0.58682479  1
  Te  Te167  1  0.59286657  0.41140798  0.90897796  1
  Te  Te168  1  0.63245119  0.74570085  0.25781014  1
  Te  Te169  1  0.53837550  0.72883524  0.54187934  1
  Te  Te170  1  0.58137314  0.74219782  0.92520384  1
  Te  Te171  1  0.94415342  0.08788795  0.25758578  1
  Te  Te172  1  0.89987236  0.05684191  0.58983452  1
  Te  Te173  1  0.92505513  0.07650652  0.89979330  1
  Te  Te174  1  0.90743499  0.41586771  0.25688165  1
  Te  Te175  1  0.95896257  0.41963134  0.59925078  1
  Te  Te176  1  0.89724913  0.42520979  0.92630266  1
  Te  Te177  1  0.90823438  0.75920854  0.24827011  1
  Te  Te178  1  0.92778617  0.76802995  0.56864572  1
  Te  Te179  1  0.86391895  0.79321997  0.93480908  1
