# generated using pymatgen
data_In2Te3
_symmetry_space_group_name_H-M   'P 1'
_cell_length_a   18.99772996
_cell_length_b   18.98784670
_cell_length_c   18.97495126
_cell_angle_alpha   90.18058868
_cell_angle_beta   89.91344845
_cell_angle_gamma   90.03800811
_symmetry_Int_Tables_number   1
_chemical_formula_structural   In2Te3
_chemical_formula_sum   'In72 Te108'
_cell_volume   6844.71467557
_cell_formula_units_Z   36
loop_
 _symmetry_equiv_pos_site_id
 _symmetry_equiv_pos_as_xyz
  1  'x, y, z'
loop_
 _atom_site_type_symbol
 _atom_site_label
 _atom_site_symmetry_multiplicity
 _atom_site_fract_x
 _atom_site_fract_y
 _atom_site_fract_z
 _atom_site_occupancy
  In  In0  1  0.18437083  0.00958728  0.14858231  1
  In  In1  1  -0.01384327  0.80239400  0.83988827  1
  In  In2  1  0.17903761  0.15221921  0.31360659  1
  In  In3  1  0.46156697  0.32667165  0.49690716  1
  In  In4  1  0.67172609  -0.00006877  0.30992295  1
  In  In5  1  0.64672791  0.68699302  0.20171899  1
  In  In6  1  -0.03617491  0.63852488  0.02549015  1
  In  In7  1  0.16074145  0.65464479  0.50405218  1
  In  In8  1  0.67857994  0.19051950  0.52069696  1
  In  In9  1  0.32655855  0.32042379  0.66868847  1
  In  In10  1  0.18268940  0.65098304  0.82505933  1
  In  In11  1  0.15843675  0.83457552  0.64774810  1
  In  In12  1  0.66650782  0.32879057  0.69857102  1
  In  In13  1  0.33956725  0.85632681  0.82757473  1
  In  In14  1  0.49979860  0.53041053  0.29298701  1
  In  In15  1  0.48746297  -0.00557940  0.49249791  1
  In  In16  1  0.69211558  0.01931477  0.67110377  1
  In  In17  1  0.01307526  0.67346975  0.32144911  1
  In  In18  1  0.33040943  0.34127818  0.32123752  1
  In  In19  1  0.50596128  0.49133002  0.02078818  1
  In  In20  1  0.16015164  0.47982174  -0.01439793  1
  In  In21  1  0.02601858  0.15145525  0.50780633  1
  In  In22  1  0.63476277  0.51524656  0.50865054  1
  In  In23  1  -0.02115724  0.49038958  0.17541810  1
  In  In24  1  0.48861362  0.31371470  0.14460116  1
  In  In25  1  0.01433957  0.32935328  0.34651567  1
  In  In26  1  0.49746764  0.15792819  0.69465165  1
  In  In27  1  0.65758224  0.66575218  0.67702652  1
  In  In28  1  0.68406496  0.34940557  0.32005816  1
  In  In29  1  0.48420503  0.70244777  0.46478979  1
  In  In30  1  0.66112718  0.85470179  0.82582255  1
  In  In31  1  0.81408244  0.67344152  0.84493340  1
  In  In32  1  0.50609887  0.80648210  0.03044371  1
  In  In33  1  0.84197637  0.15580793  -0.00690444  1
  In  In34  1  0.49918222  0.65376468  0.83519575  1
  In  In35  1  -0.01672473  0.65562104  0.63981876  1
  In  In36  1  0.19839819  0.30454270  0.15367461  1
  In  In37  1  0.28431375  0.91960167  0.49084731  1
  In  In38  1  0.63956690  -0.01101463  0.01796886  1
  In  In39  1  0.03458780  -0.00196056  -0.00373507  1
  In  In40  1  0.81601656  0.35569902  0.51766293  1
  In  In41  1  -0.00235238  0.85188834  0.17686770  1
  In  In42  1  0.69656916  0.67456535  0.02019860  1
  In  In43  1  0.84160937  0.01028872  0.17295876  1
  In  In44  1  0.46630728  0.05146791  0.90187736  1
  In  In45  1  0.84479619  0.34263065  0.83473765  1
  In  In46  1  0.16726925  0.30357932  0.84871001  1
  In  In47  1  0.50881014  0.15161111  0.36159654  1
  In  In48  1  0.33326193  0.85360305  0.16053246  1
  In  In49  1  -0.01607477  0.84075969  0.46292320  1
  In  In50  1  0.17848954  0.81770168  0.01487204  1
  In  In51  1  0.51609646  0.84222403  0.63003111  1
  In  In52  1  0.33919449  0.70057042  0.32553327  1
  In  In53  1  0.33859310  0.52305341  0.50918660  1
  In  In54  1  0.00862938  0.31114661  0.66764531  1
  In  In55  1  -0.01053135  0.48841397  0.83532738  1
  In  In56  1  -0.00033844  0.31579526  -0.01128878  1
  In  In57  1  0.85571893  0.01725026  0.49673189  1
  In  In58  1  0.17396744  0.64564463  0.16068379  1
  In  In59  1  0.82804497  0.34136655  0.15770571  1
  In  In60  1  0.83780182  -0.01231552  0.84607769  1
  In  In61  1  0.02161473  0.01029592  0.69622747  1
  In  In62  1  0.00598702  0.48458720  0.49952059  1
  In  In63  1  0.65874757  0.34721402  0.01985182  1
  In  In64  1  0.33480155  0.65039560  0.69539867  1
  In  In65  1  0.29126389  0.09782181  -0.02412839  1
  In  In66  1  0.70749280  0.84327551  0.46238419  1
  In  In67  1  0.35874979  0.45883611  0.85666751  1
  In  In68  1  0.84966628  0.17976519  0.33049510  1
  In  In69  1  0.30250721  0.13374280  0.48197283  1
  In  In70  1  0.81815872  0.66078512  0.48395614  1
  In  In71  1  0.47434918  0.48331378  0.68010741  1
  Te  Te72  1  0.08586932  0.10161035  0.08783203  1
  Te  Te73  1  0.09792641  0.06513899  0.40885446  1
  Te  Te74  1  0.11132678  0.11850196  0.74560565  1
  Te  Te75  1  0.07818557  0.40682384  0.09056195  1
  Te  Te76  1  0.10558158  0.42062744  0.41404984  1
  Te  Te77  1  0.09118622  0.40459601  0.76400033  1
  Te  Te78  1  0.06820231  0.73925249  0.08707070  1
  Te  Te79  1  0.10109366  0.75858193  0.41193847  1
  Te  Te80  1  0.08353582  0.73133555  0.73891136  1
  Te  Te81  1  0.43080562  0.09401161  0.04517015  1
  Te  Te82  1  0.39490248  0.05493819  0.38946308  1
  Te  Te83  1  0.39904589  0.08655610  0.77449714  1
  Te  Te84  1  0.39961842  0.42085306  0.09589207  1
  Te  Te85  1  0.42665880  0.44431031  0.40834359  1
  Te  Te86  1  0.43457329  0.36403331  0.76540391  1
  Te  Te87  1  0.39397826  0.73486027  0.09467337  1
  Te  Te88  1  0.37954828  0.80375543  0.42882210  1
  Te  Te89  1  0.44021355  0.75804394  0.74052003  1
  Te  Te90  1  0.74491485  0.08272742  0.08297802  1
  Te  Te91  1  0.74625308  0.09855444  0.41942357  1
  Te  Te92  1  0.76343799  0.09257605  0.77464724  1
  Te  Te93  1  0.73090360  0.44467720  0.11087035  1
  Te  Te94  1  0.74171488  0.44613527  0.42171561  1
  Te  Te95  1  0.75511226  0.42789938  0.75692040  1
  Te  Te96  1  0.73624303  0.77615255  0.12074158  1
  Te  Te97  1  0.75371227  0.73568371  0.37530041  1
  Te  Te98  1  0.75114816  0.76622288  0.74140562  1
  Te  Te99  1  0.08653854  0.24786182  0.24083806  1
  Te  Te100  1  0.10868555  0.24540369  0.58196818  1
  Te  Te101  1  0.10864513  0.21599501  0.95862559  1
  Te  Te102  1  0.08921095  0.56120808  0.25313363  1
  Te  Te103  1  0.09496546  0.56199525  0.60258377  1
  Te  Te104  1  0.07125416  0.59508393  0.91793855  1
  Te  Te105  1  0.10803729  0.92402717  0.24701428  1
  Te  Te106  1  0.05341113  0.91558933  0.57719927  1
  Te  Te107  1  0.09124527  0.88540914  0.90941707  1
  Te  Te108  1  0.42869961  0.24326549  0.26690811  1
  Te  Te109  1  0.40705850  0.20996975  0.57275793  1
  Te  Te110  1  0.39326067  0.20339549  0.94478876  1
  Te  Te111  1  0.40369332  0.61562348  0.22196887  1
  Te  Te112  1  0.44286617  0.60579279  0.58516000  1
  Te  Te113  1  0.40937894  0.58108618  0.92850259  1
  Te  Te114  1  0.44448559  0.90626492  0.24268389  1
  Te  Te115  1  0.39952914  0.93253553  0.59804796  1
  Te  Te116  1  0.44502055  0.89913217  0.92590802  1
  Te  Te117  1  0.74601412  0.23891297  0.23762191  1
  Te  Te118  1  0.77374027  0.25052960  0.61890543  1
  Te  Te119  1  0.75957886  0.26650329  0.93376420  1
  Te  Te120  1  0.72989649  0.56278884  0.21192428  1
  Te  Te121  1  0.74704280  0.57759452  0.59058239  1
  Te  Te122  1  0.75469717  0.57350073  0.93209197  1
  Te  Te123  1  0.75173919  0.90523570  0.22850306  1
  Te  Te124  1  0.76599544  0.92522769  0.57762734  1
  Te  Te125  1  0.74588355  0.90930565  0.93723182  1
  Te  Te126  1  0.28919314  0.20472687  0.08970651  1
  Te  Te127  1  0.24362712  0.25421729  0.40858349  1
  Te  Te128  1  0.24516242  0.22466916  0.74760996  1
  Te  Te129  1  0.24111066  0.58694308  0.04445564  1
  Te  Te130  1  0.25758291  0.59404575  0.40399005  1
  Te  Te131  1  0.26282223  0.53775265  0.76386988  1
  Te  Te132  1  0.26853980  0.93704635  0.04318230  1
  Te  Te133  1  0.19435269  0.94495649  0.37700626  1
  Te  Te134  1  0.22773453  0.91100087  0.75212956  1
  Te  Te135  1  0.57961129  0.23242860  0.06488798  1
  Te  Te136  1  0.59361437  0.27146984  0.42442195  1
  Te  Te137  1  0.60182176  0.22110454  0.77551923  1
  Te  Te138  1  0.57849804  0.60425652  0.08796525  1
  Te  Te139  1  0.58075691  0.60532418  0.39785146  1
  Te  Te140  1  0.58433487  0.55715429  0.75565488  1
  Te  Te141  1  0.56098584  0.90987164  0.12611814  1
  Te  Te142  1  0.58608431  0.91589778  0.40823821  1
  Te  Te143  1  0.57791824  0.93731284  0.73142526  1
  Te  Te144  1  0.92045533  0.23947586  0.09399309  1
  Te  Te145  1  0.91304560  0.25774460  0.44473170  1
  Te  Te146  1  0.94786783  0.25012089  0.78621920  1
  Te  Te147  1  0.87988168  0.59666171  0.14150343  1
  Te  Te148  1  0.93004273  0.58431388  0.41468200  1
  Te  Te149  1  0.91070380  0.59244018  0.75654334  1
  Te  Te150  1  0.92286643  0.92829881  0.07152517  1
  Te  Te151  1  0.90925690  0.93946243  0.38228682  1
  Te  Te152  1  0.92148428  0.90403787  0.75020091  1
  Te  Te153  1  0.28142393  0.09650805  0.22104787  1
  Te  Te154  1  0.23413497  0.03691644  0.56632803  1
  Te  Te155  1  0.17242212  0.08596789  0.88291040  1
  Te  Te156  1  0.26697541  0.42009256  0.21483717  1
  Te  Te157  1  0.26499045  0.41976361  0.58139487  1
  Te  Te158  1  0.26372016  0.37762156  0.94106179  1
  Te  Te159  1  0.23376101  0.76278353  0.23619794  1
  Te  Te160  1  0.25784496  0.73178903  0.59403448  1
  Te  Te161  1  0.26428221  0.74885494  0.90665423  1
  Te  Te162  1  0.58080464  0.09508128  0.24788550  1
  Te  Te163  1  0.58440908  0.08420370  0.57315235  1
  Te  Te164  1  0.61224197  0.07512529  0.90254606  1
  Te  Te165  1  0.57045388  0.40743606  0.24109071  1
  Te  Te166  1  0.56843478  0.40049790  0.58772088  1
  Te  Te167  1  0.57443381  0.41297982  0.91903292  1
  Te  Te168  1  0.54346302  0.78884827  0.24177833  1
  Te  Te169  1  0.61218214  0.75092662  0.55695800  1
  Te  Te170  1  0.59451371  0.74506504  0.91024424  1
  Te  Te171  1  0.93213002  0.07106272  0.27493058  1
  Te  Te172  1  0.92654984  0.09310282  0.60619711  1
  Te  Te173  1  0.94164106  0.08042838  0.90757137  1
  Te  Te174  1  0.90333788  0.40488253  0.27504628  1
  Te  Te175  1  0.91897597  0.42202761  0.60575848  1
  Te  Te176  1  0.91102214  0.43086927  0.94969201  1
  Te  Te177  1  0.91505941  0.75547805  0.25028732  1
  Te  Te178  1  0.90362127  0.75748803  0.56489450  1
  Te  Te179  1  0.89569042  0.75080979  0.94902087  1
