# generated using pymatgen
data_In2Te3
_symmetry_space_group_name_H-M   'P 1'
_cell_length_a   19.01690295
_cell_length_b   19.06239729
_cell_length_c   19.04062506
_cell_angle_alpha   89.86695666
_cell_angle_beta   89.87154991
_cell_angle_gamma   90.01072899
_symmetry_Int_Tables_number   1
_chemical_formula_structural   In2Te3
_chemical_formula_sum   'In72 Te108'
_cell_volume   6902.33824448
_cell_formula_units_Z   36
loop_
 _symmetry_equiv_pos_site_id
 _symmetry_equiv_pos_as_xyz
  1  'x, y, z'
loop_
 _atom_site_type_symbol
 _atom_site_label
 _atom_site_symmetry_multiplicity
 _atom_site_fract_x
 _atom_site_fract_y
 _atom_site_fract_z
 _atom_site_occupancy
  In  In0  1  0.17678351  0.18982763  -0.01422847  1
  In  In1  1  0.00558672  0.35987029  0.34496767  1
  In  In2  1  0.49438992  -0.03412509  0.82138366  1
  In  In3  1  0.85184177  0.01973879  0.16776951  1
  In  In4  1  0.85055081  0.21486410  0.65572025  1
  In  In5  1  -0.00321581  0.20442847  0.18861184  1
  In  In6  1  0.18168032  0.36465755  0.80398049  1
  In  In7  1  -0.01518858  0.35294978  -0.01578269  1
  In  In8  1  0.66923449  0.18564940  0.83047502  1
  In  In9  1  0.83472790  0.16190523  0.34328939  1
  In  In10  1  0.82013833  0.82393790  0.33623607  1
  In  In11  1  0.66747685  0.32765359  0.65035406  1
  In  In12  1  0.79896795  0.83271016  0.65472101  1
  In  In13  1  0.19003211  0.65585885  0.18472653  1
  In  In14  1  0.46471247  0.81535098  0.33172598  1
  In  In15  1  0.64076488  0.36010400  -0.00075365  1
  In  In16  1  0.83455655  0.67944139  0.18202831  1
  In  In17  1  0.02118143  0.16620841  0.48754687  1
  In  In18  1  0.17463657  0.33852722  0.15904766  1
  In  In19  1  0.36461802  0.34087492  0.01764204  1
  In  In20  1  0.49978435  0.81642703  0.67691123  1
  In  In21  1  0.49214868  0.30723694  0.48789136  1
  In  In22  1  0.33739564  0.52428109  0.49304153  1
  In  In23  1  0.49626868  0.15059609  0.33372216  1
  In  In24  1  0.18386411  0.54387431  0.64997414  1
  In  In25  1  0.37208253  0.66856674  0.00606209  1
  In  In26  1  -0.01081575  0.67282262  -0.00875188  1
  In  In27  1  0.20102058  0.64588713  0.85684453  1
  In  In28  1  0.83304034  0.86142077  0.01312442  1
  In  In29  1  0.15827606  -0.03577134  0.81416230  1
  In  In30  1  0.48782483  0.52098437  0.65351996  1
  In  In31  1  0.32737180  0.32489647  0.32646533  1
  In  In32  1  0.84504161  0.51106268  0.34707783  1
  In  In33  1  0.01719336  0.83319141  0.48899770  1
  In  In34  1  -0.01644131  0.82152489  0.80835346  1
  In  In35  1  0.80378018  0.63662696  0.82855425  1
  In  In36  1  0.66893873  0.50514759  0.48526286  1
  In  In37  1  0.34200075  -0.01244690  0.00259477  1
  In  In38  1  0.33686765  -0.00895913  0.66215681  1
  In  In39  1  0.85533073  0.18087724  -0.02541195  1
  In  In40  1  0.64128810  0.13828517  0.47631905  1
  In  In41  1  0.22591856  0.78869030  0.66910426  1
  In  In42  1  0.01898467  0.66962081  0.65636487  1
  In  In43  1  0.48886132  0.14225638  -0.00615203  1
  In  In44  1  0.48969450  0.53085697  0.31502893  1
  In  In45  1  0.65651591  0.16570279  0.19104581  1
  In  In46  1  0.56237366  0.38688560  0.79598753  1
  In  In47  1  0.83255275  0.36458933  0.78280118  1
  In  In48  1  0.20054684  0.84072189  0.33608406  1
  In  In49  1  0.20004454  -0.04220498  0.50574157  1
  In  In50  1  0.81934581  0.65947991  0.50330268  1
  In  In51  1  0.81552559  -0.01219217  0.50942391  1
  In  In52  1  0.65872411  -0.00603041  0.01883952  1
  In  In53  1  0.64505090  0.66194470  0.65903857  1
  In  In54  1  0.67480802  0.65960645  0.35195735  1
  In  In55  1  0.15385698  -0.00045447  0.19534060  1
  In  In56  1  0.18079513  0.14003804  0.35374121  1
  In  In57  1  0.17880616  0.49474535  0.35008926  1
  In  In58  1  0.80652661  0.00681934  0.83419293  1
  In  In59  1  0.50264411  -0.01767258  0.48320800  1
  In  In60  1  0.01678466  -0.00003899  0.02157148  1
  In  In61  1  0.16756643  0.80640823  0.01138869  1
  In  In62  1  -0.00686488  0.48505591  0.81749112  1
  In  In63  1  0.78370641  0.52507680  0.02107649  1
  In  In64  1  0.16502703  0.32580320  0.49911760  1
  In  In65  1  0.17432741  0.48047390  0.00768885  1
  In  In66  1  0.52187643  0.34840661  0.18057520  1
  In  In67  1  0.65470423  0.82910812  0.17375670  1
  In  In68  1  0.35303682  0.31636618  0.64991432  1
  In  In69  1  0.01655647  -0.00615449  0.64407045  1
  In  In70  1  0.56043163  0.64891261  -0.00296040  1
  In  In71  1  0.32277417  0.16864312  0.83699621  1
  Te  Te72  1  0.07453133  0.12706814  0.07920863  1
  Te  Te73  1  0.09437971  0.04673749  0.43277090  1
  Te  Te74  1  0.07590132  0.06799862  0.75468937  1
  Te  Te75  1  0.06650042  0.42165498  0.09410546  1
  Te  Te76  1  0.07724669  0.43853969  0.45141455  1
  Te  Te77  1  0.08785463  0.43841746  0.71045122  1
  Te  Te78  1  0.07710484  0.72738198  0.10041610  1
  Te  Te79  1  0.11941606  0.75072981  0.42524304  1
  Te  Te80  1  0.10081814  0.73194958  0.76963382  1
  Te  Te81  1  0.41217072  0.07373628  0.09636731  1
  Te  Te82  1  0.40158322  0.06549335  0.41024287  1
  Te  Te83  1  0.41496021  0.07889407  0.75861592  1
  Te  Te84  1  0.43073963  0.43957282  0.10558474  1
  Te  Te85  1  0.41509775  0.41713382  0.40941022  1
  Te  Te86  1  0.42128394  0.41456697  0.74026460  1
  Te  Te87  1  0.41165822  0.75624747  0.12192458  1
  Te  Te88  1  0.36757761  0.73168673  0.40913293  1
  Te  Te89  1  0.46190401  0.73361008  0.79509316  1
  Te  Te90  1  0.76658546  0.09005145  0.06461139  1
  Te  Te91  1  0.74071085  0.05686998  0.39733908  1
  Te  Te92  1  0.75768230  0.10868544  0.73811532  1
  Te  Te93  1  0.72642618  0.41837283  0.10068076  1
  Te  Te94  1  0.77094496  0.41742377  0.43266198  1
  Te  Te95  1  0.70296806  0.43477534  0.75531981  1
  Te  Te96  1  0.74998453  0.75563607  0.08141455  1
  Te  Te97  1  0.73128361  0.76572884  0.44389596  1
  Te  Te98  1  0.72894620  0.74667914  0.75651963  1
  Te  Te99  1  0.10841382  0.26211648  0.27599504  1
  Te  Te100  1  0.08375367  0.24682459  0.59018325  1
  Te  Te101  1  0.09357928  0.28416028  0.90293616  1
  Te  Te102  1  0.09618376  0.57177375  0.25805550  1
  Te  Te103  1  0.11530948  0.63010211  0.55185107  1
  Te  Te104  1  0.07829072  0.56784654  0.91684158  1
  Te  Te105  1  0.08268516  0.89749594  0.26757584  1
  Te  Te106  1  0.10871780  0.87769123  0.61049020  1
  Te  Te107  1  0.06700984  0.89007699  0.92063684  1
  Te  Te108  1  0.42437091  0.24877478  0.24113712  1
  Te  Te109  1  0.42613621  0.21071699  0.57751628  1
  Te  Te110  1  0.42491148  0.25137226  0.91075969  1
  Te  Te111  1  0.43536951  0.62134378  0.20873739  1
  Te  Te112  1  0.39555049  0.62013133  0.59144307  1
  Te  Te113  1  0.44622364  0.57629460  0.91727188  1
  Te  Te114  1  0.39503382  0.87918786  0.21575687  1
  Te  Te115  1  0.41621291  0.89724742  0.57621168  1
  Te  Te116  1  0.44368794  0.89683438  0.94284867  1
  Te  Te117  1  0.76311665  0.24540020  0.24647374  1
  Te  Te118  1  0.73343913  0.22911610  0.55906824  1
  Te  Te119  1  0.74581477  0.27266033  0.92505207  1
  Te  Te120  1  0.74468318  0.57849609  0.24852316  1
  Te  Te121  1  0.74933977  0.56787355  0.59864385  1
  Te  Te122  1  0.69633700  0.60316704  0.92783783  1
  Te  Te123  1  0.75943901  0.92053838  0.23675240  1
  Te  Te124  1  0.70817963  0.93060511  0.59336898  1
  Te  Te125  1  0.72774855  0.90573940  0.91415810  1
  Te  Te126  1  0.27109311  0.24543595  0.08867277  1
  Te  Te127  1  0.26703674  0.23595451  0.43301472  1
  Te  Te128  1  0.24540264  0.24655145  0.73404792  1
  Te  Te129  1  0.26085769  0.58296121  0.07222213  1
  Te  Te130  1  0.28152292  0.60269097  0.37921248  1
  Te  Te131  1  0.27916541  0.57929972  0.75443963  1
  Te  Te132  1  0.22335121  0.92952271  0.07744227  1
  Te  Te133  1  0.29420641  0.94293527  0.39164539  1
  Te  Te134  1  0.28060729  0.89029301  0.76473756  1
  Te  Te135  1  0.57997454  0.23896275  0.07568956  1
  Te  Te136  1  0.59375722  0.25378033  0.39128530  1
  Te  Te137  1  0.57004113  0.24851636  0.73685848  1
  Te  Te138  1  0.54134600  0.56284462  0.11730262  1
  Te  Te139  1  0.56103646  0.59614283  0.43175639  1
  Te  Te140  1  0.54923801  0.60606600  0.76091769  1
  Te  Te141  1  0.56486481  0.91982742  0.10153445  1
  Te  Te142  1  0.57123877  0.90306533  0.38080732  1
  Te  Te143  1  0.59643599  0.91764105  0.72798587  1
  Te  Te144  1  0.90639589  0.26994125  0.08527990  1
  Te  Te145  1  0.92205354  0.25824143  0.42137675  1
  Te  Te146  1  0.92845582  0.25101904  0.77701220  1
  Te  Te147  1  0.90743174  0.58712576  0.08469850  1
  Te  Te148  1  0.92712996  0.61260852  0.41692081  1
  Te  Te149  1  0.91629395  0.58968774  0.73871170  1
  Te  Te150  1  0.93865712  0.90510884  0.10982737  1
  Te  Te151  1  0.91188456  0.91469670  0.41799389  1
  Te  Te152  1  0.89996331  0.92478198  0.73622783  1
  Te  Te153  1  0.25330370  0.09694775  0.23521956  1
  Te  Te154  1  0.23559350  0.06852270  0.59249500  1
  Te  Te155  1  0.23232693  0.06986753  0.91014004  1
  Te  Te156  1  0.26377276  0.42948295  0.23824703  1
  Te  Te157  1  0.26341817  0.42081410  0.57730565  1
  Te  Te158  1  0.27125926  0.41137990  0.91645638  1
  Te  Te159  1  0.27212909  0.77869126  0.21548911  1
  Te  Te160  1  0.30215376  0.75043540  0.54988117  1
  Te  Te161  1  0.27825259  0.75681742  0.92283091  1
  Te  Te162  1  0.57480410  0.06075954  0.24670165  1
  Te  Te163  1  0.54775372  0.08796413  0.57732358  1
  Te  Te164  1  0.58974416  0.07531920  0.90107341  1
  Te  Te165  1  0.58912979  0.42979029  0.28076335  1
  Te  Te166  1  0.56673412  0.41500304  0.56823922  1
  Te  Te167  1  0.54165475  0.44501494  0.92952146  1
  Te  Te168  1  0.57956382  0.73399058  0.26155851  1
  Te  Te169  1  0.56476300  0.74182383  0.56793787  1
  Te  Te170  1  0.54716789  0.77208937  0.91441186  1
  Te  Te171  1  0.94440481  0.08625257  0.26634175  1
  Te  Te172  1  0.91543360  0.08290892  0.57301261  1
  Te  Te173  1  0.92382426  0.05973768  0.91641945  1
  Te  Te174  1  0.92209547  0.43084989  0.25092410  1
  Te  Te175  1  0.89250278  0.35864358  0.64763415  1
  Te  Te176  1  0.88544282  0.44639850  0.91811970  1
  Te  Te177  1  0.92245679  0.72931673  0.28870998  1
  Te  Te178  1  0.91477833  0.76175791  0.58656014  1
  Te  Te179  1  0.88972090  0.74939096  0.90564598  1
