# generated using pymatgen
data_In2Te3
_symmetry_space_group_name_H-M   'P 1'
_cell_length_a   18.95092643
_cell_length_b   18.92833493
_cell_length_c   18.93103431
_cell_angle_alpha   89.88051774
_cell_angle_beta   89.91508524
_cell_angle_gamma   89.99682677
_symmetry_Int_Tables_number   1
_chemical_formula_structural   In2Te3
_chemical_formula_sum   'In72 Te108'
_cell_volume   6790.71929124
_cell_formula_units_Z   36
loop_
 _symmetry_equiv_pos_site_id
 _symmetry_equiv_pos_as_xyz
  1  'x, y, z'
loop_
 _atom_site_type_symbol
 _atom_site_label
 _atom_site_symmetry_multiplicity
 _atom_site_fract_x
 _atom_site_fract_y
 _atom_site_fract_z
 _atom_site_occupancy
  In  In0  1  0.20028972  0.83571279  0.00229054  1
  In  In1  1  0.81929360  0.02001799  0.13941697  1
  In  In2  1  0.68668210  0.30879709  0.66585316  1
  In  In3  1  -0.00385291  0.31501863  0.67924791  1
  In  In4  1  -0.02781445  0.17983841  0.84924459  1
  In  In5  1  0.13290681  0.69216830  0.84146965  1
  In  In6  1  0.01796348  0.00229093  0.65225442  1
  In  In7  1  0.68051819  -0.00050501  0.32044929  1
  In  In8  1  0.85468830  0.00797773  0.51690767  1
  In  In9  1  -0.00557622  0.16989422  0.19272409  1
  In  In10  1  0.36221638  0.48352427  0.83843825  1
  In  In11  1  0.15455561  0.48305081  0.33974392  1
  In  In12  1  0.30933709  0.14178843  0.19725679  1
  In  In13  1  0.56957149  0.30868632  0.84025956  1
  In  In14  1  0.16338514  0.49506146  0.66598063  1
  In  In15  1  0.31481992  0.29240969  -0.00715479  1
  In  In16  1  -0.00574040  0.67699393  0.00092460  1
  In  In17  1  -0.00198389  0.82760273  0.52153264  1
  In  In18  1  0.51183306  0.17153201  -0.01565585  1
  In  In19  1  0.34448232  0.00155511  0.01379339  1
  In  In20  1  0.48700377  0.33516942  0.18699819  1
  In  In21  1  -0.02960774  0.35176052  0.04938935  1
  In  In22  1  0.68544223  0.87277654  0.53888930  1
  In  In23  1  0.32663689  0.67939240  0.66886151  1
  In  In24  1  0.52164296  0.48629811  0.64507824  1
  In  In25  1  0.33834927  0.87172334  0.81932285  1
  In  In26  1  0.48053099  0.85609665  0.33017340  1
  In  In27  1  0.33423253  0.46918883  0.51753845  1
  In  In28  1  0.65263552  0.15424911  0.16327849  1
  In  In29  1  0.15461304  0.15060259  0.01021028  1
  In  In30  1  0.37680925  0.12438439  0.80383641  1
  In  In31  1  0.15668706  0.32959573  0.81107136  1
  In  In32  1  0.16708802  0.65356769  0.50273727  1
  In  In33  1  0.34844702  0.66332937  0.32203791  1
  In  In34  1  -0.00605047  0.84325824  0.83134614  1
  In  In35  1  0.67676833  0.33157167  -0.03332913  1
  In  In36  1  0.69334311  0.49660945  0.47266433  1
  In  In37  1  0.50128003  0.01350992  0.50372661  1
  In  In38  1  0.01333397  0.00301691  0.38105942  1
  In  In39  1  0.49201491  0.29723972  0.48783492  1
  In  In40  1  0.48324838  0.67818762  0.15998306  1
  In  In41  1  0.64331166  0.11328448  0.79691489  1
  In  In42  1  0.31224901  0.30448910  0.35990526  1
  In  In43  1  0.15806717  0.48748226  0.02767785  1
  In  In44  1  0.00511548  0.50503729  0.49732059  1
  In  In45  1  0.82124446  0.83689556  -0.02216731  1
  In  In46  1  0.66596920  0.50345462  0.15187431  1
  In  In47  1  0.31512926  0.31463333  0.63532749  1
  In  In48  1  -0.01424031  0.82126244  0.18431182  1
  In  In49  1  0.49986137  0.68744125  0.85295096  1
  In  In50  1  0.84313971  0.52425181  0.68165486  1
  In  In51  1  0.65897575  0.67163395  0.33411523  1
  In  In52  1  0.31357702  0.50624993  0.17290735  1
  In  In53  1  0.84206666  0.50672005  0.00054807  1
  In  In54  1  0.83141218  0.15590216  0.33356396  1
  In  In55  1  0.68582419  0.53802115  0.82408157  1
  In  In56  1  0.16216376  0.64429719  0.18338781  1
  In  In57  1  0.70758713  0.69319185  0.70276963  1
  In  In58  1  0.49707450  0.50124673  0.02975032  1
  In  In59  1  0.53864851  0.85234130  0.01970909  1
  In  In60  1  0.32885661  0.87229293  0.49445352  1
  In  In61  1  0.83208084  0.66118050  0.14440358  1
  In  In62  1  0.17374147  0.14996694  0.64051528  1
  In  In63  1  0.79849506  0.83782446  0.31544022  1
  In  In64  1  0.52875964  0.68819149  0.52189439  1
  In  In65  1  -0.01312882  0.02873904  -0.00328546  1
  In  In66  1  0.67279868  0.31269627  0.33262284  1
  In  In67  1  0.16541947  -0.00282820  0.82727840  1
  In  In68  1  0.35232727  0.86041255  0.17531400  1
  In  In69  1  0.84480163  0.31738575  0.49172112  1
  In  In70  1  0.16901749  0.83568741  0.36175527  1
  In  In71  1  0.84782752  0.67447479  0.51653905  1
  Te  Te72  1  0.07758805  0.06828396  0.11063680  1
  Te  Te73  1  0.11083833  0.11592874  0.39378627  1
  Te  Te74  1  0.08125895  0.10466507  0.76255199  1
  Te  Te75  1  0.09231473  0.39760500  0.12054861  1
  Te  Te76  1  0.05909490  0.39762275  0.41148669  1
  Te  Te77  1  0.05929836  0.43214702  0.75722136  1
  Te  Te78  1  0.09290293  0.75665062  0.08895522  1
  Te  Te79  1  0.07026327  0.73665125  0.42053429  1
  Te  Te80  1  0.09199420  0.78476395  0.73703311  1
  Te  Te81  1  0.41694156  0.11190915  0.08681226  1
  Te  Te82  1  0.38897733  0.09443910  0.44627588  1
  Te  Te83  1  0.43666579  0.02209803  0.71625521  1
  Te  Te84  1  0.38944487  0.40098780  0.07821274  1
  Te  Te85  1  0.41958571  0.40687031  0.41131463  1
  Te  Te86  1  0.41053473  0.40966934  0.71557197  1
  Te  Te87  1  0.41165133  0.77246498  0.06726370  1
  Te  Te88  1  0.41693545  0.75037147  0.42583549  1
  Te  Te89  1  0.42328616  0.76648477  0.74640311  1
  Te  Te90  1  0.71688299  0.08070416  0.05170015  1
  Te  Te91  1  0.74789655  0.07712501  0.43261255  1
  Te  Te92  1  0.73500964  0.05163347  0.69189701  1
  Te  Te93  1  0.75053575  0.39717751  0.08172843  1
  Te  Te94  1  0.77965747  0.40819631  0.38552094  1
  Te  Te95  1  0.74911578  0.42403866  0.74993213  1
  Te  Te96  1  0.74412405  0.75318058  0.07185000  1
  Te  Te97  1  0.73570945  0.75605531  0.43636578  1
  Te  Te98  1  0.73539447  0.80600664  0.79403045  1
  Te  Te99  1  0.08305526  0.22826182  0.29289683  1
  Te  Te100  1  0.06867384  0.23395435  0.57759064  1
  Te  Te101  1  0.08536879  0.25420544  0.92309281  1
  Te  Te102  1  0.06679895  0.57994717  0.27143367  1
  Te  Te103  1  0.06977109  0.59664686  0.60349668  1
  Te  Te104  1  0.08250019  0.57765613  0.92455592  1
  Te  Te105  1  0.07209174  0.90995366  0.27103708  1
  Te  Te106  1  0.08696639  0.94635477  0.53077262  1
  Te  Te107  1  0.09036994  0.92003898  0.93671797  1
  Te  Te108  1  0.41210706  0.23306388  0.26826270  1
  Te  Te109  1  0.42835310  0.22544802  0.59950776  1
  Te  Te110  1  0.42518931  0.26101552  0.89206035  1
  Te  Te111  1  0.43358746  0.56305770  0.24683397  1
  Te  Te112  1  0.41317483  0.58677732  0.57889681  1
  Te  Te113  1  0.41451539  0.58909484  0.93400327  1
  Te  Te114  1  0.43149677  0.96362558  0.24280427  1
  Te  Te115  1  0.43512453  0.90941489  0.58972820  1
  Te  Te116  1  0.43624356  0.92487665  0.92253394  1
  Te  Te117  1  0.75850778  0.23996038  0.22963473  1
  Te  Te118  1  0.75829148  0.22710592  0.56868434  1
  Te  Te119  1  0.71804763  0.23033865  0.86825966  1
  Te  Te120  1  0.74877668  0.58261835  0.25074925  1
  Te  Te121  1  0.72971070  0.58756959  0.58956464  1
  Te  Te122  1  0.74860375  0.60229914  0.93892424  1
  Te  Te123  1  0.72190855  0.90826100  0.19981773  1
  Te  Te124  1  0.80372682  0.91051426  0.62030697  1
  Te  Te125  1  0.72744803  0.91778426  0.89904647  1
  Te  Te126  1  0.23095447  0.23966890  0.10729166  1
  Te  Te127  1  0.27090477  0.19801342  0.45591227  1
  Te  Te128  1  0.25530681  0.23156689  0.75111135  1
  Te  Te129  1  0.25398898  0.60075471  0.07084880  1
  Te  Te130  1  0.26378568  0.57484443  0.41266291  1
  Te  Te131  1  0.26259406  0.56941718  0.75324640  1
  Te  Te132  1  0.24093085  0.93874379  0.10619536  1
  Te  Te133  1  0.26958321  0.94574304  0.37865812  1
  Te  Te134  1  0.24280472  0.92913213  0.72381193  1
  Te  Te135  1  0.57601294  0.27699118  0.07747727  1
  Te  Te136  1  0.58414125  0.21803892  0.40419504  1
  Te  Te137  1  0.56650058  0.22865164  0.71413590  1
  Te  Te138  1  0.59078660  0.61170025  0.07518234  1
  Te  Te139  1  0.57424525  0.58094357  0.42267333  1
  Te  Te140  1  0.56313377  0.59176574  0.74643365  1
  Te  Te141  1  0.60397784  0.95081988  0.10488660  1
  Te  Te142  1  0.59210459  0.90969380  0.41878126  1
  Te  Te143  1  0.59018371  0.98633632  0.71506973  1
  Te  Te144  1  0.91420274  0.21747073  0.07947419  1
  Te  Te145  1  0.93305844  0.24463495  0.39505284  1
  Te  Te146  1  0.88901502  0.23968819  0.74410965  1
  Te  Te147  1  0.95213069  0.57323454  0.10568044  1
  Te  Te148  1  0.90176507  0.57813559  0.42193943  1
  Te  Te149  1  0.89776323  0.62669150  0.76717113  1
  Te  Te150  1  0.91736141  0.90910179  0.07995700  1
  Te  Te151  1  0.89918478  0.89562935  0.41521657  1
  Te  Te152  1  0.92659317  0.95498202  0.76137783  1
  Te  Te153  1  0.21915166  0.07060221  0.28870340  1
  Te  Te154  1  0.28178336  0.08223588  0.56260219  1
  Te  Te155  1  0.26023334  0.08589389  0.91746295  1
  Te  Te156  1  0.24769646  0.39839162  0.25526574  1
  Te  Te157  1  0.20926380  0.39623177  0.56073370  1
  Te  Te158  1  0.24551205  0.41071494  0.91339564  1
  Te  Te159  1  0.25309003  0.75693672  0.25072537  1
  Te  Te160  1  0.24658408  0.76300395  0.57055062  1
  Te  Te161  1  0.26108907  0.75475593  0.89208630  1
  Te  Te162  1  0.57591925  0.09359555  0.27392511  1
  Te  Te163  1  0.62310317  0.05927620  0.57920870  1
  Te  Te164  1  0.56997970  0.05705497  0.91453893  1
  Te  Te165  1  0.59172247  0.41916433  0.25613933  1
  Te  Te166  1  0.60760697  0.39755821  0.55655183  1
  Te  Te167  1  0.57879662  0.44526598  0.91291803  1
  Te  Te168  1  0.57151664  0.76238472  0.24900471  1
  Te  Te169  1  0.60287679  0.77402195  0.62128782  1
  Te  Te170  1  0.60417348  0.78210334  0.90307082  1
  Te  Te171  1  0.90784401  0.04595164  0.26044346  1
  Te  Te172  1  0.94799121  0.10790484  0.57392344  1
  Te  Te173  1  0.88767368  0.06593216  0.89650696  1
  Te  Te174  1  0.88905408  0.43523249  0.15033958  1
  Te  Te175  1  0.90844290  0.42065961  0.59190055  1
  Te  Te176  1  0.91302824  0.40638480  0.92336134  1
  Te  Te177  1  0.89702952  0.73225000  0.26632551  1
  Te  Te178  1  0.91452099  0.75364892  0.62043357  1
  Te  Te179  1  0.90679136  0.72806839  0.88688278  1
