# generated using pymatgen
data_In2Te3
_symmetry_space_group_name_H-M   'P 1'
_cell_length_a   18.75360124
_cell_length_b   18.75184751
_cell_length_c   18.74959393
_cell_angle_alpha   89.99753049
_cell_angle_beta   90.00210372
_cell_angle_gamma   90.04568416
_symmetry_Int_Tables_number   1
_chemical_formula_structural   In2Te3
_chemical_formula_sum   'In72 Te108'
_cell_volume   6593.56767160
_cell_formula_units_Z   36
loop_
 _symmetry_equiv_pos_site_id
 _symmetry_equiv_pos_as_xyz
  1  'x, y, z'
loop_
 _atom_site_type_symbol
 _atom_site_label
 _atom_site_symmetry_multiplicity
 _atom_site_fract_x
 _atom_site_fract_y
 _atom_site_fract_z
 _atom_site_occupancy
  In  In0  1  0.82813142  0.34268968  0.15582720  1
  In  In1  1  0.65403610  0.02821264  -0.00282516  1
  In  In2  1  0.67969417  0.82465751  0.17601241  1
  In  In3  1  0.63884932  0.50435045  0.50478030  1
  In  In4  1  0.82900923  0.82503791  0.00379656  1
  In  In5  1  0.33867930  0.03006442  0.00082870  1
  In  In6  1  0.66873027  0.65077620  -0.00136715  1
  In  In7  1  0.49196873  0.83251811  0.32930870  1
  In  In8  1  -0.02225322  0.63324221  0.01819334  1
  In  In9  1  0.66206648  0.65455761  0.67478345  1
  In  In10  1  0.82997414  0.33665069  0.84243610  1
  In  In11  1  0.84276862  -0.02152428  0.49935290  1
  In  In12  1  0.00425438  0.66693188  0.33151365  1
  In  In13  1  0.83059459  0.50919386  0.67446064  1
  In  In14  1  0.35005068  0.51211558  0.52868306  1
  In  In15  1  0.83008335  0.17873948  0.00154644  1
  In  In16  1  0.49001580  0.66004703  0.81696798  1
  In  In17  1  0.52324211  0.01510754  0.51458202  1
  In  In18  1  0.83908788  0.51421734  0.33555741  1
  In  In19  1  0.30305554  0.18318480  0.49480025  1
  In  In20  1  0.33608273  0.02235048  0.66679393  1
  In  In21  1  0.70263979  0.79306623  0.48158787  1
  In  In22  1  0.48809680  0.03470607  0.83308673  1
  In  In23  1  0.66486589  -0.00693303  0.31865247  1
  In  In24  1  0.17363684  0.49306984  -0.02498399  1
  In  In25  1  0.82249980  0.17025197  0.67724829  1
  In  In26  1  0.32722050  0.65030450  0.33885387  1
  In  In27  1  0.16255531  0.50400249  0.33348442  1
  In  In28  1  -0.00507794  0.00965540  0.34925484  1
  In  In29  1  0.18197077  0.01975106  0.82780749  1
  In  In30  1  0.66911166  0.15601439  0.53783329  1
  In  In31  1  0.48503366  0.33149405  0.51494425  1
  In  In32  1  0.01769380  0.50238447  0.48362180  1
  In  In33  1  0.49600134  0.31863444  0.82295431  1
  In  In34  1  0.33902164  0.81866417  0.79836829  1
  In  In35  1  0.01316983  0.32990082  -0.01009650  1
  In  In36  1  0.48633750  0.84213518  0.00960277  1
  In  In37  1  0.17353013  0.83126807  0.34344417  1
  In  In38  1  0.31448735  0.80959451  0.51847398  1
  In  In39  1  0.85202835  0.15032757  0.32574374  1
  In  In40  1  0.01711636  0.81329818  0.78845721  1
  In  In41  1  0.67268543  0.02737316  0.65492597  1
  In  In42  1  0.32713662  0.48037852  0.81019699  1
  In  In43  1  0.19002640  0.31041525  0.82047652  1
  In  In44  1  0.17876067  0.01794232  0.16686975  1
  In  In45  1  0.02807863  0.17418066  0.50331835  1
  In  In46  1  0.83232993  0.65856383  0.83754037  1
  In  In47  1  0.32706980  -0.00877608  0.32557039  1
  In  In48  1  0.01397799  0.35711345  0.31710821  1
  In  In49  1  0.01462103  0.01039005  0.01456829  1
  In  In50  1  0.01374564  0.32284390  0.65652716  1
  In  In51  1  0.50881373  0.47749312  -0.00695497  1
  In  In52  1  0.16508548  0.32349354  0.16763097  1
  In  In53  1  0.16950034  0.50321273  0.65339383  1
  In  In54  1  0.65220317  0.19669717  0.13397653  1
  In  In55  1  0.84320570  0.00462612  0.82599375  1
  In  In56  1  0.50858200  0.82287663  0.67726041  1
  In  In57  1  0.68292481  0.49834381  0.17064535  1
  In  In58  1  0.65567324  0.34609045  0.33504666  1
  In  In59  1  0.33930167  0.48552678  0.14916300  1
  In  In60  1  0.32743541  0.68384039  0.00319488  1
  In  In61  1  0.67698066  0.81609671  0.81412570  1
  In  In62  1  0.34458569  0.17934518  0.15711558  1
  In  In63  1  0.33288376  0.83124108  0.19275790  1
  In  In64  1  0.82098461  0.30218808  0.52020646  1
  In  In65  1  0.15343427  0.83204549  -0.00629298  1
  In  In66  1  0.50595272  0.49082513  0.33776527  1
  In  In67  1  -0.01178293  0.81842569  0.17098929  1
  In  In68  1  0.48800875  0.17593005  0.32505344  1
  In  In69  1  -0.00909890  0.81710284  0.53171338  1
  In  In70  1  0.02350951  0.00170470  0.67348079  1
  In  In71  1  -0.01680002  0.50153922  0.83895485  1
  Te  Te72  1  0.11300813  0.10773919  0.06848585  1
  Te  Te73  1  0.10405036  0.08426043  0.41374579  1
  Te  Te74  1  0.08615304  0.10760571  0.75459528  1
  Te  Te75  1  0.08727428  0.42660274  0.08195173  1
  Te  Te76  1  0.11011584  0.38662604  0.43790468  1
  Te  Te77  1  0.08429028  0.41466575  0.76445290  1
  Te  Te78  1  0.08079795  0.73336723  0.08406424  1
  Te  Te79  1  0.09062238  0.74247000  0.43253714  1
  Te  Te80  1  0.10635151  0.73249011  0.70418141  1
  Te  Te81  1  0.43872606  0.07998210  0.09603681  1
  Te  Te82  1  0.41637874  0.08212768  0.42615610  1
  Te  Te83  1  0.37482538  0.11963612  0.77909204  1
  Te  Te84  1  0.41886098  0.38356042  0.07236472  1
  Te  Te85  1  0.40285645  0.41278606  0.41648543  1
  Te  Te86  1  0.43487770  0.42128292  0.72801167  1
  Te  Te87  1  0.42458917  0.74160933  0.10681011  1
  Te  Te88  1  0.41479327  0.74088395  0.42613621  1
  Te  Te89  1  0.39642732  0.70723900  0.70011557  1
  Te  Te90  1  0.75380214  0.08608576  0.09796150  1
  Te  Te91  1  0.74831972  0.08417848  0.42475214  1
  Te  Te92  1  0.73280244  0.09855367  0.77854651  1
  Te  Te93  1  0.72412514  0.39931002  0.06744287  1
  Te  Te94  1  0.75860689  0.41285619  0.42615127  1
  Te  Te95  1  0.74322914  0.42438109  0.75724851  1
  Te  Te96  1  0.76668116  0.71999563  0.09319836  1
  Te  Te97  1  0.77221927  0.73747302  0.36428276  1
  Te  Te98  1  0.78133002  0.75342437  0.72007152  1
  Te  Te99  1  0.07155878  0.24035272  0.24916229  1
  Te  Te100  1  0.12324146  0.24109707  0.59811169  1
  Te  Te101  1  0.08525444  0.23815306  0.89835838  1
  Te  Te102  1  0.08063990  0.58101336  0.23810341  1
  Te  Te103  1  0.07233320  0.59618908  0.58712946  1
  Te  Te104  1  0.08136548  0.59619174  0.90960697  1
  Te  Te105  1  0.09151919  0.91314437  0.24073962  1
  Te  Te106  1  0.08608947  0.92525768  0.56496964  1
  Te  Te107  1  0.07260966  0.92183103  0.89883922  1
  Te  Te108  1  0.40508363  0.27466577  0.25598935  1
  Te  Te109  1  0.38495778  0.25642862  0.60087474  1
  Te  Te110  1  0.44922423  0.23114101  0.94154977  1
  Te  Te111  1  0.42001362  0.57779544  0.24305743  1
  Te  Te112  1  0.44461557  0.60240636  0.59488165  1
  Te  Te113  1  0.40813627  0.58148642  0.92112972  1
  Te  Te114  1  0.43602344  0.93861262  0.23329222  1
  Te  Te115  1  0.42412690  0.91447389  0.58422624  1
  Te  Te116  1  0.40430921  0.91693360  0.90101905  1
  Te  Te117  1  0.75046515  0.24943465  0.25850465  1
  Te  Te118  1  0.71566500  0.27497299  0.63093053  1
  Te  Te119  1  0.73222000  0.25741706  0.92362156  1
  Te  Te120  1  0.72148863  0.59271873  0.28326211  1
  Te  Te121  1  0.75137139  0.58687467  0.56814487  1
  Te  Te122  1  0.74805094  0.56260272  0.91077905  1
  Te  Te123  1  0.77004625  0.91729462  0.24980481  1
  Te  Te124  1  0.73685050  0.90860895  0.58305753  1
  Te  Te125  1  0.74393348  0.92007094  0.91880558  1
  Te  Te126  1  0.24193447  0.24233410  0.06821880  1
  Te  Te127  1  0.22324457  0.27899525  0.41874754  1
  Te  Te128  1  0.29548148  0.24879140  0.73517883  1
  Te  Te129  1  0.24249766  0.58259277  0.08029010  1
  Te  Te130  1  0.23861116  0.58129618  0.44011362  1
  Te  Te131  1  0.23822732  0.58558124  0.75784583  1
  Te  Te132  1  0.25782906  0.91015093  0.07609861  1
  Te  Te133  1  0.24840640  0.92528356  0.43707487  1
  Te  Te134  1  0.24254457  0.91611097  0.73108620  1
  Te  Te135  1  0.53357844  0.26285294  0.06907472  1
  Te  Te136  1  0.58833484  0.24567895  0.43106118  1
  Te  Te137  1  0.57863153  0.23369231  0.73023056  1
  Te  Te138  1  0.57215021  0.57864130  0.09020683  1
  Te  Te139  1  0.58359933  0.59868810  0.40518089  1
  Te  Te140  1  0.58761350  0.56325998  0.76361257  1
  Te  Te141  1  0.59203595  0.92007560  0.08622151  1
  Te  Te142  1  0.59270374  0.90914676  0.42641628  1
  Te  Te143  1  0.58255105  0.93233303  0.75661154  1
  Te  Te144  1  0.93084231  0.24854680  0.09338462  1
  Te  Te145  1  0.92406853  0.25979534  0.41099380  1
  Te  Te146  1  0.92501425  0.24910192  0.75760401  1
  Te  Te147  1  0.89265048  0.55786504  0.10910315  1
  Te  Te148  1  0.91138980  0.60193900  0.43769723  1
  Te  Te149  1  0.93507843  0.60266664  0.73564413  1
  Te  Te150  1  0.91113525  0.92270103  0.08792609  1
  Te  Te151  1  0.92110876  0.89042512  0.40578266  1
  Te  Te152  1  0.91267235  0.91151632  0.72855695  1
  Te  Te153  1  0.25166926  0.10725085  0.26593280  1
  Te  Te154  1  0.23177760  0.08478762  0.58251461  1
  Te  Te155  1  0.25248535  0.11729390  0.91820226  1
  Te  Te156  1  0.25586799  0.41153064  0.25562117  1
  Te  Te157  1  0.26511160  0.40844974  0.59187645  1
  Te  Te158  1  0.27427302  0.39109885  0.92209208  1
  Te  Te159  1  0.23328373  0.72916869  0.24583958  1
  Te  Te160  1  0.22704767  0.72856605  0.60324743  1
  Te  Te161  1  0.24020625  0.75045683  0.89620788  1
  Te  Te162  1  0.58912154  0.09993293  0.23976294  1
  Te  Te163  1  0.54180464  0.11960251  0.62883370  1
  Te  Te164  1  0.56869330  0.12779832  0.92282426  1
  Te  Te165  1  0.56873872  0.40459952  0.22771913  1
  Te  Te166  1  0.55980225  0.42701225  0.60338612  1
  Te  Te167  1  0.59551188  0.40251628  0.89907129  1
  Te  Te168  1  0.57843140  0.74438674  0.24877907  1
  Te  Te169  1  0.58681251  0.74233452  0.57359454  1
  Te  Te170  1  0.57545980  0.75418109  0.91681740  1
  Te  Te171  1  0.94012891  0.08039341  0.23090491  1
  Te  Te172  1  0.91131464  0.09275523  0.57769506  1
  Te  Te173  1  0.92627056  0.09308640  0.91713198  1
  Te  Te174  1  0.92332081  0.45088888  0.22133862  1
  Te  Te175  1  0.91911621  0.41502328  0.57880668  1
  Te  Te176  1  0.90363800  0.42720218  0.94388511  1
  Te  Te177  1  0.89316497  0.73612837  0.25395717  1
  Te  Te178  1  0.88483107  0.74425093  0.60083157  1
  Te  Te179  1  0.93099572  0.75709774  0.91240100  1
