# generated using pymatgen
data_In2Te3
_symmetry_space_group_name_H-M   'P 1'
_cell_length_a   18.79546838
_cell_length_b   18.80214726
_cell_length_c   18.79588946
_cell_angle_alpha   89.97049522
_cell_angle_beta   89.92575744
_cell_angle_gamma   90.05956833
_symmetry_Int_Tables_number   1
_chemical_formula_structural   In2Te3
_chemical_formula_sum   'In72 Te108'
_cell_volume   6642.36639163
_cell_formula_units_Z   36
loop_
 _symmetry_equiv_pos_site_id
 _symmetry_equiv_pos_as_xyz
  1  'x, y, z'
loop_
 _atom_site_type_symbol
 _atom_site_label
 _atom_site_symmetry_multiplicity
 _atom_site_fract_x
 _atom_site_fract_y
 _atom_site_fract_z
 _atom_site_occupancy
  In  In0  1  0.16927967  0.32916256  0.51444294  1
  In  In1  1  0.34302387  0.15779958  0.17725926  1
  In  In2  1  -0.02324989  0.34266407  0.31516091  1
  In  In3  1  0.50464925  0.49236295  0.00361107  1
  In  In4  1  0.34110517  0.00476489  0.66717425  1
  In  In5  1  0.50662745  0.83869584  0.69160789  1
  In  In6  1  0.65406418  0.34153835  0.67114241  1
  In  In7  1  0.82515980  0.00246430  0.16423393  1
  In  In8  1  -0.01148012  0.31095339  0.66200934  1
  In  In9  1  0.34578815  0.34288914  0.33295286  1
  In  In10  1  0.66170854  0.48911159  0.85713049  1
  In  In11  1  -0.00851369  0.82797821  0.51019188  1
  In  In12  1  0.67359648  0.67431889  0.67534408  1
  In  In13  1  0.50571671  0.65673162  0.17302680  1
  In  In14  1  0.19070510  -0.00010157  0.17005133  1
  In  In15  1  0.32531653  0.66331003  0.32868169  1
  In  In16  1  0.47231591  0.20162244  -0.00222399  1
  In  In17  1  0.65713309  -0.00901313  0.01392875  1
  In  In18  1  0.49662127  0.84715883  0.31070172  1
  In  In19  1  -0.00637436  0.15313110  0.82735650  1
  In  In20  1  -0.00786252  0.01315425  0.34779950  1
  In  In21  1  0.34921978  0.31227256  0.67172287  1
  In  In22  1  -0.03099161  0.51302115  0.82906303  1
  In  In23  1  0.16185191  0.68551156  0.83068048  1
  In  In24  1  -0.01685007  0.66661495  0.33432116  1
  In  In25  1  0.16959417  0.84286605  0.33489367  1
  In  In26  1  0.69672988  0.80247597  0.47136316  1
  In  In27  1  0.65535791  0.66036780  0.00099720  1
  In  In28  1  -0.00680613  0.64960348  0.01241821  1
  In  In29  1  0.17036819  0.83348100  0.65548987  1
  In  In30  1  -0.00825984  0.52515481  0.49282892  1
  In  In31  1  0.17837755  0.49364137  0.01499310  1
  In  In32  1  0.01129409  0.18465520  0.48922945  1
  In  In33  1  0.67560993  0.83024893  0.15672405  1
  In  In34  1  0.82365502  0.82563543  -0.00161662  1
  In  In35  1  0.79607623  0.33249250  0.18598665  1
  In  In36  1  0.35019994  0.49265216  0.47273226  1
  In  In37  1  0.65478553  0.01545823  0.32280489  1
  In  In38  1  0.33825138  0.82383371  0.83996893  1
  In  In39  1  0.68200217  0.49913835  0.47559052  1
  In  In40  1  0.82124261  0.50342301  0.01827371  1
  In  In41  1  0.49737234  0.15912623  0.65695742  1
  In  In42  1  0.50888136  0.67227349  0.84315547  1
  In  In43  1  0.19085711  0.15950534  0.00482666  1
  In  In44  1  0.50635318  -0.00162037  0.82523771  1
  In  In45  1  0.33200957  0.50933219  0.15327264  1
  In  In46  1  0.82549861  -0.00220685  0.49296049  1
  In  In47  1  0.32107845  0.83885890  0.49991685  1
  In  In48  1  0.14864374  0.51585669  0.32910717  1
  In  In49  1  0.83238742  0.16648166  0.66734579  1
  In  In50  1  0.83421122  0.82096873  0.66625458  1
  In  In51  1  0.48344930  0.48183997  0.65842361  1
  In  In52  1  0.54506450  0.33447314  0.18095201  1
  In  In53  1  0.14854939  0.32067597  0.15727174  1
  In  In54  1  0.82251623  0.51466169  0.66771303  1
  In  In55  1  0.80858834  0.34100070  0.48613756  1
  In  In56  1  -0.01159871  0.16870221  0.18422607  1
  In  In57  1  0.52242927  0.03238026  0.49077407  1
  In  In58  1  0.01330877  0.35678007  0.00134286  1
  In  In59  1  0.68106067  0.16654603  0.83488892  1
  In  In60  1  0.18564704  0.33275844  0.82693596  1
  In  In61  1  0.01718465  -0.01435850  0.67110488  1
  In  In62  1  0.00117768  0.84191810  0.84340165  1
  In  In63  1  0.34354606  0.00237335  -0.00649920  1
  In  In64  1  0.00285183  0.80257590  0.16472103  1
  In  In65  1  0.32970698  0.50382195  0.83837527  1
  In  In66  1  0.14704752  0.50326996  0.65593719  1
  In  In67  1  0.34418859  0.14962125  0.50283725  1
  In  In68  1  0.51638202  0.64491439  0.48903309  1
  In  In69  1  0.35118139  0.83439807  0.16795647  1
  In  In70  1  0.00879954  0.00134517  -0.02320853  1
  In  In71  1  0.82451163  0.17317008  0.00434593  1
  Te  Te72  1  0.07813667  0.09043580  0.08836268  1
  Te  Te73  1  0.09730459  0.08951612  0.41677622  1
  Te  Te74  1  0.09569025  0.07012003  0.76247095  1
  Te  Te75  1  0.07000420  0.44321726  0.11239223  1
  Te  Te76  1  0.07612622  0.40756331  0.42313794  1
  Te  Te77  1  0.07131154  0.40904909  0.75427952  1
  Te  Te78  1  0.08613229  0.75714935  0.05320682  1
  Te  Te79  1  0.08542528  0.74826415  0.41831470  1
  Te  Te80  1  0.06567181  0.75475894  0.73472841  1
  Te  Te81  1  0.43582570  0.07891235  0.08670456  1
  Te  Te82  1  0.42042510  0.07796234  0.39649647  1
  Te  Te83  1  0.40890628  0.09937536  0.76612665  1
  Te  Te84  1  0.42752849  0.40505517  0.10232869  1
  Te  Te85  1  0.45538561  0.41199207  0.40681941  1
  Te  Te86  1  0.42646543  0.39927605  0.77550951  1
  Te  Te87  1  0.43925980  0.75157607  0.08270356  1
  Te  Te88  1  0.42462372  0.74790768  0.41062208  1
  Te  Te89  1  0.41100054  0.73105680  0.74130018  1
  Te  Te90  1  0.72905628  0.09898433  0.09763106  1
  Te  Te91  1  0.73316662  0.09558575  0.42666356  1
  Te  Te92  1  0.74515646  0.07175004  0.73984708  1
  Te  Te93  1  0.72183101  0.41738790  0.08913928  1
  Te  Te94  1  0.73666835  0.40524628  0.36831550  1
  Te  Te95  1  0.75474737  0.41403387  0.75850433  1
  Te  Te96  1  0.76247190  0.72323784  0.09297188  1
  Te  Te97  1  0.78466380  0.71419715  0.38716812  1
  Te  Te98  1  0.74423628  0.76079590  0.76947091  1
  Te  Te99  1  0.08738123  0.24347930  0.27293555  1
  Te  Te100  1  0.10177937  0.22754536  0.60723113  1
  Te  Te101  1  0.08333316  0.24677160  0.92224257  1
  Te  Te102  1  0.07939412  0.60595342  0.23717364  1
  Te  Te103  1  0.07330845  0.60702629  0.58304125  1
  Te  Te104  1  0.09057195  0.56454775  0.90774872  1
  Te  Te105  1  0.06926129  0.92669536  0.24224893  1
  Te  Te106  1  0.09860835  0.92657983  0.55660875  1
  Te  Te107  1  0.10872812  0.91485888  0.91378264  1
  Te  Te108  1  0.43685430  0.24764636  0.25617938  1
  Te  Te109  1  0.43700617  0.25905348  0.55865431  1
  Te  Te110  1  0.40086733  0.28757725  0.90275793  1
  Te  Te111  1  0.42129751  0.56499161  0.26348168  1
  Te  Te112  1  0.40758510  0.58796804  0.58075701  1
  Te  Te113  1  0.41328161  0.59163528  0.93194804  1
  Te  Te114  1  0.40514314  0.94591539  0.25129415  1
  Te  Te115  1  0.43460502  0.91958420  0.58131479  1
  Te  Te116  1  0.43788749  0.90352612  0.92370425  1
  Te  Te117  1  0.71557835  0.23143784  0.26419509  1
  Te  Te118  1  0.73446432  0.24757098  0.58116020  1
  Te  Te119  1  0.74260879  0.26701835  0.92512921  1
  Te  Te120  1  0.71821189  0.62278814  0.28914274  1
  Te  Te121  1  0.75223259  0.60099277  0.56411943  1
  Te  Te122  1  0.75804387  0.59254580  0.90892489  1
  Te  Te123  1  0.75189292  0.91229152  0.26218976  1
  Te  Te124  1  0.74001093  0.90528556  0.57721681  1
  Te  Te125  1  0.74541670  0.92116620  0.91885653  1
  Te  Te126  1  0.26856655  0.25992115  0.08775630  1
  Te  Te127  1  0.25812646  0.25232542  0.41945479  1
  Te  Te128  1  0.24899524  0.23023170  0.74281396  1
  Te  Te129  1  0.24765032  0.60558404  0.08131316  1
  Te  Te130  1  0.23762679  0.58760327  0.42975643  1
  Te  Te131  1  0.24361640  0.58571200  0.74410389  1
  Te  Te132  1  0.25162099  0.90642998  0.07036305  1
  Te  Te133  1  0.26815051  0.93176073  0.39926246  1
  Te  Te134  1  0.25159669  0.91599774  0.75483887  1
  Te  Te135  1  0.59396806  0.25513957  0.06470373  1
  Te  Te136  1  0.61684674  0.20525488  0.38248797  1
  Te  Te137  1  0.57421438  0.24736615  0.75700970  1
  Te  Te138  1  0.60172531  0.55923907  0.10284212  1
  Te  Te139  1  0.59625245  0.58067370  0.37700568  1
  Te  Te140  1  0.58027723  0.56703020  0.74266096  1
  Te  Te141  1  0.56936197  0.92238396  0.11188201  1
  Te  Te142  1  0.59094657  0.90471470  0.41954422  1
  Te  Te143  1  0.61084452  0.92164186  0.75330495  1
  Te  Te144  1  0.91895302  0.26526055  0.08876697  1
  Te  Te145  1  0.89946661  0.24689413  0.40639927  1
  Te  Te146  1  0.89738715  0.25827353  0.77152234  1
  Te  Te147  1  0.90473480  0.58394694  0.11125848  1
  Te  Te148  1  0.89444147  0.55633843  0.38699004  1
  Te  Te149  1  0.91348725  0.60986283  0.73438084  1
  Te  Te150  1  0.92189636  0.91957845  0.07910282  1
  Te  Te151  1  0.90582394  0.90164157  0.40697890  1
  Te  Te152  1  0.90698029  0.92436180  0.75499722  1
  Te  Te153  1  0.23806698  0.10055236  0.26507947  1
  Te  Te154  1  0.24439251  0.07270552  0.57947302  1
  Te  Te155  1  0.26119970  0.08366488  0.90157441  1
  Te  Te156  1  0.24000012  0.41837673  0.24975046  1
  Te  Te157  1  0.26475219  0.42093441  0.59196898  1
  Te  Te158  1  0.27079197  0.39758659  0.93675981  1
  Te  Te159  1  0.24089862  0.74984471  0.23680866  1
  Te  Te160  1  0.25357159  0.73733454  0.58072989  1
  Te  Te161  1  0.25753918  0.73718992  0.92971063  1
  Te  Te162  1  0.58299963  0.12819657  0.25514530  1
  Te  Te163  1  0.60770410  0.07756653  0.60180577  1
  Te  Te164  1  0.57427233  0.09488454  0.92440517  1
  Te  Te165  1  0.60370483  0.42085490  0.28701406  1
  Te  Te166  1  0.58052350  0.41569855  0.56044053  1
  Te  Te167  1  0.57395484  0.38971392  0.92147833  1
  Te  Te168  1  0.59947871  0.74299210  0.26218460  1
  Te  Te169  1  0.58143119  0.75155402  0.57782990  1
  Te  Te170  1  0.59342741  0.76604731  0.91845370  1
  Te  Te171  1  0.88756728  0.09461102  0.26974194  1
  Te  Te172  1  0.92654248  0.08128519  0.57753467  1
  Te  Te173  1  0.89223807  0.07317842  0.91021124  1
  Te  Te174  1  0.89349037  0.43598353  0.23717630  1
  Te  Te175  1  0.91203521  0.41445476  0.58068411  1
  Te  Te176  1  0.89886063  0.41314856  0.91932300  1
  Te  Te177  1  0.89442017  0.75975524  0.25564650  1
  Te  Te178  1  0.90202775  0.72790912  0.57199585  1
  Te  Te179  1  0.91471668  0.73725825  0.91378610  1
