# generated using pymatgen
data_In2Te3
_symmetry_space_group_name_H-M   'P 1'
_cell_length_a   18.93350350
_cell_length_b   18.90819809
_cell_length_c   18.94382032
_cell_angle_alpha   89.88190884
_cell_angle_beta   89.98280488
_cell_angle_gamma   90.19347977
_symmetry_Int_Tables_number   1
_chemical_formula_structural   In2Te3
_chemical_formula_sum   'In72 Te108'
_cell_volume   6781.80462685
_cell_formula_units_Z   36
loop_
 _symmetry_equiv_pos_site_id
 _symmetry_equiv_pos_as_xyz
  1  'x, y, z'
loop_
 _atom_site_type_symbol
 _atom_site_label
 _atom_site_symmetry_multiplicity
 _atom_site_fract_x
 _atom_site_fract_y
 _atom_site_fract_z
 _atom_site_occupancy
  In  In0  1  0.18311317  0.16835825  -0.02837514  1
  In  In1  1  0.50303978  0.18413231  0.67534610  1
  In  In2  1  0.80492322  0.49042628  0.03947187  1
  In  In3  1  -0.00585572  0.18845488  0.14112299  1
  In  In4  1  0.67280270  0.66151841  0.34611857  1
  In  In5  1  0.51335754  0.53886075  0.03550533  1
  In  In6  1  0.18865136  0.83719133  0.00285997  1
  In  In7  1  0.66908928  -0.01186842  0.65302217  1
  In  In8  1  0.84617984  0.50332574  0.64624902  1
  In  In9  1  0.68653783  0.33973125  0.66099871  1
  In  In10  1  0.50642480  -0.00146069  0.48453666  1
  In  In11  1  0.83226279  0.00762429  0.50679201  1
  In  In12  1  0.13646316  0.64563325  0.18505994  1
  In  In13  1  0.15453056  0.16689156  0.30442519  1
  In  In14  1  0.84672961  0.34752725  0.45105471  1
  In  In15  1  0.50364954  0.78834031  0.03820726  1
  In  In16  1  0.47852013  0.82410207  0.33180107  1
  In  In17  1  0.52415073  0.00026160  0.86478013  1
  In  In18  1  0.17627963  0.83026527  0.36409012  1
  In  In19  1  0.17327092  0.32475009  0.79830683  1
  In  In20  1  0.46573882  0.54083706  0.64355625  1
  In  In21  1  -0.00123557  0.68898590  0.67131174  1
  In  In22  1  0.49509556  0.51128815  0.32152012  1
  In  In23  1  0.66276104  0.16466499  0.17103866  1
  In  In24  1  0.65913202  0.18199143  0.45989814  1
  In  In25  1  -0.00037359  0.49307324  0.46642617  1
  In  In26  1  0.02365404  0.48405418  0.84549667  1
  In  In27  1  0.49230300  0.65749104  0.82869688  1
  In  In28  1  0.15030694  0.33736164  0.53540371  1
  In  In29  1  0.67496618  0.82730637  0.83779353  1
  In  In30  1  0.34048300  0.32726631  0.01477041  1
  In  In31  1  0.31824083  0.50461749  0.82070458  1
  In  In32  1  0.15388125  0.00955517  0.82433316  1
  In  In33  1  0.83824869  0.15308155  0.66418862  1
  In  In34  1  0.34456359  0.14551210  0.46567953  1
  In  In35  1  0.33022449  0.35216382  0.32395087  1
  In  In36  1  0.32765410  0.15982629  0.17243174  1
  In  In37  1  0.83253145  0.65254220  0.18779214  1
  In  In38  1  0.85058409  -0.00372605  0.83151477  1
  In  In39  1  -0.02818460  0.66938092  -0.00834030  1
  In  In40  1  -0.00832372  0.01049854  -0.00694673  1
  In  In41  1  0.67772005  0.83675855  0.50806047  1
  In  In42  1  0.33794244  0.84587456  0.84478214  1
  In  In43  1  0.33147440  0.66279365  0.33412240  1
  In  In44  1  0.82883389  0.83719257  0.00630678  1
  In  In45  1  0.30802132  0.16411012  0.83640411  1
  In  In46  1  0.68176962  0.49997503  0.49699338  1
  In  In47  1  0.67527194  0.82193681  0.18345265  1
  In  In48  1  0.19188929  0.51277198  0.64792386  1
  In  In49  1  -0.01238061  0.13707033  0.80338726  1
  In  In50  1  0.34676655  -0.00633181  0.66376876  1
  In  In51  1  0.50173301  0.33968697  0.16432909  1
  In  In52  1  0.15865484  0.81494953  0.63340564  1
  In  In53  1  0.00759776  0.82572237  0.51052023  1
  In  In54  1  0.51096186  0.33220062  0.48140015  1
  In  In55  1  -0.00087760  0.32292091  0.00916904  1
  In  In56  1  0.67255168  0.17582015  0.86935642  1
  In  In57  1  0.01163853  0.00734054  0.33346000  1
  In  In58  1  -0.01978099  0.80371340  0.18823193  1
  In  In59  1  0.17831504  0.51371637  0.01382349  1
  In  In60  1  0.49901410  0.80245824  0.65256386  1
  In  In61  1  0.15495667  0.35655338  0.19826575  1
  In  In62  1  0.16192683  -0.01818105  0.51439601  1
  In  In63  1  0.18743117  -0.01670668  0.15639606  1
  In  In64  1  0.79570761  0.00202254  0.18075897  1
  In  In65  1  0.63836035  0.49987306  0.84551010  1
  In  In66  1  0.48740455  0.36316156  0.84917511  1
  In  In67  1  0.82495651  0.66353440  0.84086444  1
  In  In68  1  0.17526319  0.64355954  0.48202220  1
  In  In69  1  0.49590362  -0.00229282  0.16394596  1
  In  In70  1  0.82113450  0.16885406  0.32886476  1
  In  In71  1  0.82675415  0.32112253  0.85020549  1
  Te  Te72  1  0.09760119  0.08729268  0.08075042  1
  Te  Te73  1  0.09805659  0.08961284  0.42555115  1
  Te  Te74  1  0.11358397  0.11580546  0.72437646  1
  Te  Te75  1  0.07715703  0.42794903  0.08914208  1
  Te  Te76  1  0.09186892  0.39268785  0.41293200  1
  Te  Te77  1  0.08626263  0.42268974  0.72473578  1
  Te  Te78  1  0.07257273  0.74837649  0.08020938  1
  Te  Te79  1  0.07367474  0.73035140  0.41084883  1
  Te  Te80  1  0.10364951  0.75069188  0.75359161  1
  Te  Te81  1  0.41006596  0.08484656  0.07916377  1
  Te  Te82  1  0.45538598  0.09258677  0.38298903  1
  Te  Te83  1  0.43149758  0.07756248  0.76052333  1
  Te  Te84  1  0.40729521  0.43587740  0.09317233  1
  Te  Te85  1  0.41324175  0.43294382  0.42299756  1
  Te  Te86  1  0.41341261  0.42633851  0.73197515  1
  Te  Te87  1  0.40672176  0.69424754  0.09894458  1
  Te  Te88  1  0.41890625  0.73129600  0.43406944  1
  Te  Te89  1  0.39726758  0.74303836  0.74765661  1
  Te  Te90  1  0.75600089  0.09380828  0.07754017  1
  Te  Te91  1  0.73673116  0.06510355  0.40283861  1
  Te  Te92  1  0.73128044  0.08647206  0.75388359  1
  Te  Te93  1  0.72157133  0.42278956  0.14068871  1
  Te  Te94  1  0.72170624  0.39951926  0.39522434  1
  Te  Te95  1  0.75459344  0.43350988  0.75925969  1
  Te  Te96  1  0.74853012  0.72830798  0.07598874  1
  Te  Te97  1  0.75928963  0.76748507  0.40455983  1
  Te  Te98  1  0.75172131  0.74579762  0.74502988  1
  Te  Te99  1  0.04819781  0.26690808  0.26047745  1
  Te  Te100  1  0.09678574  0.23561998  0.62432927  1
  Te  Te101  1  0.07503734  0.24843808  0.89936107  1
  Te  Te102  1  0.03334173  0.56595208  0.26919236  1
  Te  Te103  1  0.06807032  0.58342861  0.57699852  1
  Te  Te104  1  0.08756960  0.59699825  0.92221117  1
  Te  Te105  1  0.08733609  0.90568389  0.24773152  1
  Te  Te106  1  0.04937886  0.93141517  0.61567420  1
  Te  Te107  1  0.08265885  0.91470914  0.92032702  1
  Te  Te108  1  0.41755633  0.25012481  0.25562159  1
  Te  Te109  1  0.41964464  0.24140131  0.56326291  1
  Te  Te110  1  0.41594755  0.24531322  0.91334672  1
  Te  Te111  1  0.42754923  0.61010025  0.22903578  1
  Te  Te112  1  0.38102631  0.62781661  0.56214757  1
  Te  Te113  1  0.41194917  0.56892463  0.92070290  1
  Te  Te114  1  0.40269592  0.89887037  0.22877647  1
  Te  Te115  1  0.42147623  0.90394985  0.56815387  1
  Te  Te116  1  0.44361733  0.89657581  0.94003971  1
  Te  Te117  1  0.76610256  0.26100557  0.22685285  1
  Te  Te118  1  0.75095377  0.24216936  0.56809595  1
  Te  Te119  1  0.72887699  0.28359244  0.95132496  1
  Te  Te120  1  0.72447897  0.56487139  0.24298532  1
  Te  Te121  1  0.76906446  0.59743284  0.56616062  1
  Te  Te122  1  0.73972115  0.57601963  0.93046880  1
  Te  Te123  1  0.77448245  0.88880255  0.27058109  1
  Te  Te124  1  0.78344464  0.90407014  0.60728535  1
  Te  Te125  1  0.74492782  0.93156963  0.92232140  1
  Te  Te126  1  0.22773539  0.25940816  0.09479692  1
  Te  Te127  1  0.24957985  0.24453206  0.39702628  1
  Te  Te128  1  0.28360960  0.25966538  0.72899105  1
  Te  Te129  1  0.25275402  0.61497410  0.09275089  1
  Te  Te130  1  0.23616689  0.55567965  0.37976844  1
  Te  Te131  1  0.23482537  0.60443377  0.75419162  1
  Te  Te132  1  0.28697012  0.88924605  0.10129147  1
  Te  Te133  1  0.26697224  0.92415933  0.42893720  1
  Te  Te134  1  0.23992154  0.91300044  0.73649496  1
  Te  Te135  1  0.55957786  0.23071008  0.08501654  1
  Te  Te136  1  0.59917199  0.28432219  0.37174683  1
  Te  Te137  1  0.58995503  0.27306020  0.76471143  1
  Te  Te138  1  0.61977905  0.63442409  0.07004451  1
  Te  Te139  1  0.57211520  0.58323293  0.43104919  1
  Te  Te140  1  0.58418862  0.58522957  0.73174748  1
  Te  Te141  1  0.59414178  0.90205247  0.08629233  1
  Te  Te142  1  0.58882947  0.90343190  0.40268945  1
  Te  Te143  1  0.57471332  0.91101126  0.74501698  1
  Te  Te144  1  0.88900969  0.28460524  0.10119852  1
  Te  Te145  1  0.91748092  0.21882200  0.43049291  1
  Te  Te146  1  0.91410529  0.25960329  0.74398143  1
  Te  Te147  1  0.92204306  0.57083200  0.09495930  1
  Te  Te148  1  0.89396187  0.55923426  0.38612626  1
  Te  Te149  1  0.92686491  0.57760883  0.76102234  1
  Te  Te150  1  0.92440431  0.91692950  0.09419023  1
  Te  Te151  1  0.92593249  0.92059110  0.42197820  1
  Te  Te152  1  0.95257141  0.95644914  0.73759827  1
  Te  Te153  1  0.25710685  0.06143456  0.26594511  1
  Te  Te154  1  0.26174878  0.08378650  0.57837342  1
  Te  Te155  1  0.26309749  0.04819359  0.92533810  1
  Te  Te156  1  0.25618549  0.45445488  0.24515368  1
  Te  Te157  1  0.26857082  0.41769273  0.56905348  1
  Te  Te158  1  0.24212237  0.40529304  0.92032457  1
  Te  Te159  1  0.23302672  0.74618982  0.25227804  1
  Te  Te160  1  0.26404402  0.73457969  0.56306788  1
  Te  Te161  1  0.26946035  0.74425907  0.92500070  1
  Te  Te162  1  0.58585784  0.06906895  0.25717423  1
  Te  Te163  1  0.58712344  0.09578615  0.58058246  1
  Te  Te164  1  0.58370677  0.09677555  0.95717293  1
  Te  Te165  1  0.59219300  0.44612085  0.22429439  1
  Te  Te166  1  0.57926993  0.41933166  0.58946496  1
  Te  Te167  1  0.57667150  0.41909972  0.95749554  1
  Te  Te168  1  0.57400727  0.73490767  0.25341991  1
  Te  Te169  1  0.60190613  0.73221012  0.57852320  1
  Te  Te170  1  0.58701098  0.73410989  0.91931300  1
  Te  Te171  1  0.92328668  0.08361511  0.23639545  1
  Te  Te172  1  0.93115426  0.10582382  0.55971102  1
  Te  Te173  1  0.90035079  0.10998463  0.92450284  1
  Te  Te174  1  0.92587024  0.46169258  0.28014373  1
  Te  Te175  1  0.92276822  0.39936860  0.57097341  1
  Te  Te176  1  0.90924792  0.42926534  0.92926693  1
  Te  Te177  1  0.91234292  0.72327117  0.29238561  1
  Te  Te178  1  0.90827430  0.72850687  0.56304968  1
  Te  Te179  1  0.91471982  0.77515717  0.89758109  1
