# generated using pymatgen
data_In2Te3
_symmetry_space_group_name_H-M   'P 1'
_cell_length_a   18.92434863
_cell_length_b   18.92241642
_cell_length_c   18.92788190
_cell_angle_alpha   89.79977737
_cell_angle_beta   89.94938141
_cell_angle_gamma   89.91303510
_symmetry_Int_Tables_number   1
_chemical_formula_structural   In2Te3
_chemical_formula_sum   'In72 Te108'
_cell_volume   6777.91680437
_cell_formula_units_Z   36
loop_
 _symmetry_equiv_pos_site_id
 _symmetry_equiv_pos_as_xyz
  1  'x, y, z'
loop_
 _atom_site_type_symbol
 _atom_site_label
 _atom_site_symmetry_multiplicity
 _atom_site_fract_x
 _atom_site_fract_y
 _atom_site_fract_z
 _atom_site_occupancy
  In  In0  1  0.49349174  0.00550719  0.14335491  1
  In  In1  1  0.84468070  0.32153416  0.83313555  1
  In  In2  1  0.19507282  0.16450256  -0.01623515  1
  In  In3  1  0.17162584  0.67257937  0.17411374  1
  In  In4  1  0.49498616  0.82496728  0.34569425  1
  In  In5  1  0.33283394  0.65105161  -0.00756405  1
  In  In6  1  0.15725276  0.35794451  0.51081759  1
  In  In7  1  0.69572205  0.70329313  0.36844637  1
  In  In8  1  0.30955366  0.00130261  0.32278687  1
  In  In9  1  0.86564217  0.83033849  0.02891825  1
  In  In10  1  -0.02495539  0.31620487  -0.02518763  1
  In  In11  1  0.48837011  0.49320166  -0.04238730  1
  In  In12  1  0.02214348  0.65514854  -0.01477066  1
  In  In13  1  0.87307643  0.68762730  0.17655608  1
  In  In14  1  0.67716446  0.34330010  0.35174713  1
  In  In15  1  0.48824969  -0.01179661  0.48472288  1
  In  In16  1  0.67045915  0.67272024  -0.00513225  1
  In  In17  1  0.15829524  -0.00236008  0.16723737  1
  In  In18  1  0.84379531  0.82068180  0.64503586  1
  In  In19  1  0.85352878  0.67207161  0.79764760  1
  In  In20  1  0.70949304  0.21064154  0.56477632  1
  In  In21  1  0.64720484  0.01583807  0.67995588  1
  In  In22  1  0.82829476  0.14295905  -0.01709624  1
  In  In23  1  0.00185367  0.13763771  0.19686652  1
  In  In24  1  0.16803636  0.85654127  0.00440626  1
  In  In25  1  0.49869774  0.34339785  0.13880851  1
  In  In26  1  0.16177013  -0.02346695  0.51810862  1
  In  In27  1  0.83847751  0.46452805  -0.00729862  1
  In  In28  1  0.33011336  0.18821708  0.82467760  1
  In  In29  1  0.82085226  0.50531167  0.65857227  1
  In  In30  1  0.84128557  -0.00261819  0.51826223  1
  In  In31  1  0.49728967  0.65975559  0.19072084  1
  In  In32  1  0.31986345  0.32882878  0.33636650  1
  In  In33  1  0.03747918  0.15629202  0.80015233  1
  In  In34  1  0.18653502  0.67797202  0.79218511  1
  In  In35  1  0.46649929  0.56344166  0.35291532  1
  In  In36  1  0.49705043  0.69230782  0.75819504  1
  In  In37  1  0.65860659  0.18450025  0.82405012  1
  In  In38  1  0.52529425  0.18201075  0.33432142  1
  In  In39  1  0.34490972  0.15668791  0.13509136  1
  In  In40  1  0.50884002  0.37675300  0.52677412  1
  In  In41  1  -0.01040784  0.47678041  0.17442645  1
  In  In42  1  0.32616108  0.80437390  0.54106707  1
  In  In43  1  0.65016154  0.15456340  0.16221176  1
  In  In44  1  0.65741931  0.01086388  -0.00928335  1
  In  In45  1  0.51680927  0.66084777  0.52969211  1
  In  In46  1  0.00025931  0.51214260  0.52036295  1
  In  In47  1  0.81692637  0.32464229  0.16170631  1
  In  In48  1  0.19163457  0.34863008  0.80423723  1
  In  In49  1  0.00957537  0.17197115  0.52233901  1
  In  In50  1  0.48909393  0.84901741  -0.03704476  1
  In  In51  1  0.00415798  0.85533443  0.19477710  1
  In  In52  1  0.31764870  0.82177902  0.15227867  1
  In  In53  1  0.32333464  0.53071019  0.50073445  1
  In  In54  1  0.85828259  0.12640455  0.37173854  1
  In  In55  1  0.16592750  0.50638863  0.66252657  1
  In  In56  1  0.15420461  0.30705198  0.14841751  1
  In  In57  1  0.84174273  -0.00267287  0.83885425  1
  In  In58  1  0.72699627  -0.06062723  0.37687282  1
  In  In59  1  0.81848190  0.51068231  0.36250030  1
  In  In60  1  0.04150807  0.84428145  0.82900355  1
  In  In61  1  0.31478371  -0.01645443  0.67181162  1
  In  In62  1  0.63956566  0.53070656  0.20069641  1
  In  In63  1  0.03376543  0.69790067  0.36684976  1
  In  In64  1  0.33429208  0.14046343  0.53086306  1
  In  In65  1  0.65999769  0.52107592  0.83628471  1
  In  In66  1  0.16467118  0.49597781  0.33678392  1
  In  In67  1  0.69109318  0.83666905  0.80949979  1
  In  In68  1  0.13680062  0.16641522  0.35468563  1
  In  In69  1  0.49624309  0.18835630  0.68489221  1
  In  In70  1  0.16496316  0.49263598  -0.04151764  1
  In  In71  1  0.63115014  0.35859524  -0.00000293  1
  Te  Te72  1  0.09033274  0.10096848  0.07960429  1
  Te  Te73  1  0.06657853  0.05699010  0.42976642  1
  Te  Te74  1  0.06780938  0.05117650  0.70231157  1
  Te  Te75  1  0.07140316  0.40888385  0.06443163  1
  Te  Te76  1  0.05961097  0.41873237  0.41215656  1
  Te  Te77  1  0.07856512  0.40114484  0.72265520  1
  Te  Te78  1  0.07559754  0.75759436  0.08714849  1
  Te  Te79  1  0.03784086  0.80932800  0.46718030  1
  Te  Te80  1  0.07547294  0.74990962  0.71808643  1
  Te  Te81  1  0.41849229  0.07542939  0.03820998  1
  Te  Te82  1  0.40916692  0.09643746  0.40000433  1
  Te  Te83  1  0.41059258  0.07863542  0.74404960  1
  Te  Te84  1  0.41104429  0.43720099  0.06943590  1
  Te  Te85  1  0.41552611  0.42297867  0.40821948  1
  Te  Te86  1  0.37961375  0.33475200  0.78445457  1
  Te  Te87  1  0.42604057  0.75100239  0.07242829  1
  Te  Te88  1  0.41366572  0.73475341  0.43266566  1
  Te  Te89  1  0.37202335  0.77970057  0.76261856  1
  Te  Te90  1  0.75496366  0.06768136  0.09351043  1
  Te  Te91  1  0.73179432  0.08197882  0.44080989  1
  Te  Te92  1  0.75824930  0.09044253  0.75414779  1
  Te  Te93  1  0.72908247  0.43217484  0.09683183  1
  Te  Te94  1  0.74755469  0.42040676  0.45770792  1
  Te  Te95  1  0.74976076  0.42123898  0.76549867  1
  Te  Te96  1  0.75426278  0.74792413  0.09415303  1
  Te  Te97  1  0.78934961  0.75837905  0.47425284  1
  Te  Te98  1  0.73713972  0.72549416  0.71816544  1
  Te  Te99  1  0.06124695  0.26149053  0.26057911  1
  Te  Te100  1  0.07805303  0.27550022  0.60570958  1
  Te  Te101  1  0.09780594  0.26017074  0.90473054  1
  Te  Te102  1  0.06390460  0.58764784  0.24812755  1
  Te  Te103  1  0.11780647  0.60394293  0.55515831  1
  Te  Te104  1  0.08452481  0.58374737  0.86912398  1
  Te  Te105  1  0.11563856  0.90818792  0.27683517  1
  Te  Te106  1  0.10376180  0.86430607  0.60018326  1
  Te  Te107  1  0.11278267  0.95009607  0.90318003  1
  Te  Te108  1  0.42023903  0.24766404  0.24345587  1
  Te  Te109  1  0.41791294  0.26052057  0.57480733  1
  Te  Te110  1  0.43929647  0.26010136  0.89739809  1
  Te  Te111  1  0.37897128  0.58939551  0.23964726  1
  Te  Te112  1  0.40784783  0.59073156  0.60421142  1
  Te  Te113  1  0.42827575  0.60972595  0.88401157  1
  Te  Te114  1  0.41315246  0.91342586  0.24909772  1
  Te  Te115  1  0.42460049  0.90709496  0.59644832  1
  Te  Te116  1  0.36722351  0.87694995  0.88205671  1
  Te  Te117  1  0.73770921  0.23593086  0.25675232  1
  Te  Te118  1  0.84090458  0.26379881  0.60385327  1
  Te  Te119  1  0.74329962  0.26103829  0.93803780  1
  Te  Te120  1  0.76367614  0.60352464  0.25200680  1
  Te  Te121  1  0.71886571  0.55225853  0.56036237  1
  Te  Te122  1  0.77259805  0.59405595  0.91199042  1
  Te  Te123  1  0.76047602  0.88488737  0.24741850  1
  Te  Te124  1  0.73597320  0.92258169  0.60120132  1
  Te  Te125  1  0.76030680  0.90448688  0.93191093  1
  Te  Te126  1  0.27352349  0.26986531  0.06055415  1
  Te  Te127  1  0.24178069  0.24193227  0.43564691  1
  Te  Te128  1  0.25221679  0.25024946  0.71140966  1
  Te  Te129  1  0.22777445  0.57327981  0.07352324  1
  Te  Te130  1  0.23096200  0.60306675  0.41155397  1
  Te  Te131  1  0.27204777  0.56765754  0.74515586  1
  Te  Te132  1  0.26904562  0.94468872  0.07755886  1
  Te  Te133  1  0.27285009  0.91096762  0.43795664  1
  Te  Te134  1  0.25408369  0.88220795  0.76279514  1
  Te  Te135  1  0.56797491  0.23196986  0.06210930  1
  Te  Te136  1  0.58607441  0.26366473  0.44721410  1
  Te  Te137  1  0.63034327  0.25795609  0.69378329  1
  Te  Te138  1  0.57437222  0.58207052  0.07075136  1
  Te  Te139  1  0.59891020  0.59060641  0.41462479  1
  Te  Te140  1  0.55930485  0.55367563  0.73178885  1
  Te  Te141  1  0.58252296  0.90481751  0.07192447  1
  Te  Te142  1  0.59480824  0.88969969  0.43993211  1
  Te  Te143  1  0.57954727  0.92964455  0.78028306  1
  Te  Te144  1  0.91305602  0.23307395  0.08833477  1
  Te  Te145  1  0.91400138  0.24516655  0.43331657  1
  Te  Te146  1  0.91518333  0.22670775  0.74325196  1
  Te  Te147  1  0.92131907  0.57691513  0.07222470  1
  Te  Te148  1  0.92385089  0.60141238  0.42032363  1
  Te  Te149  1  0.93517604  0.59575608  0.69991053  1
  Te  Te150  1  0.94579477  0.93740922  0.08660113  1
  Te  Te151  1  0.90053196  0.88249754  0.44235690  1
  Te  Te152  1  0.91770276  0.89845865  0.75351944  1
  Te  Te153  1  0.23916974  0.11485825  0.24612565  1
  Te  Te154  1  0.21437343  0.08748732  0.60890420  1
  Te  Te155  1  0.23695926  0.07972833  0.87266483  1
  Te  Te156  1  0.23512444  0.40593338  0.23655855  1
  Te  Te157  1  0.27210583  0.41784598  0.58647615  1
  Te  Te158  1  0.28111070  0.43144409  0.89034745  1
  Te  Te159  1  0.23067925  0.77541894  0.26270442  1
  Te  Te160  1  0.20873425  0.72759437  0.58961474  1
  Te  Te161  1  0.22820569  0.73969277  0.92760374  1
  Te  Te162  1  0.57903337  0.06026390  0.25885238  1
  Te  Te163  1  0.55291468  0.08374005  0.58226861  1
  Te  Te164  1  0.57667776  0.07744037  0.88705091  1
  Te  Te165  1  0.57491386  0.40716553  0.25852856  1
  Te  Te166  1  0.60202285  0.46029125  0.60628109  1
  Te  Te167  1  0.55505796  0.38604338  0.87357492  1
  Te  Te168  1  0.59501511  0.75228913  0.25776189  1
  Te  Te169  1  0.55893497  0.75246824  0.63580700  1
  Te  Te170  1  0.58792582  0.74936915  0.89423645  1
  Te  Te171  1  0.91373585  0.04365771  0.26533486  1
  Te  Te172  1  0.94664442  0.06047172  0.60611301  1
  Te  Te173  1  0.94424017  0.08597427  0.90663115  1
  Te  Te174  1  0.88784014  0.41041230  0.26459577  1
  Te  Te175  1  0.91321991  0.40947906  0.58700959  1
  Te  Te176  1  0.93744124  0.43339295  0.88295092  1
  Te  Te177  1  0.88659061  0.80092909  0.27588946  1
  Te  Te178  1  0.89139215  0.69893246  0.57417241  1
  Te  Te179  1  0.93010953  0.75479245  0.91005459  1
