# generated using pymatgen
data_In2Te3
_symmetry_space_group_name_H-M   'P 1'
_cell_length_a   18.77915195
_cell_length_b   18.77094406
_cell_length_c   18.78203184
_cell_angle_alpha   89.97073003
_cell_angle_beta   89.96548221
_cell_angle_gamma   89.89789961
_symmetry_Int_Tables_number   1
_chemical_formula_structural   In2Te3
_chemical_formula_sum   'In72 Te108'
_cell_volume   6620.69892837
_cell_formula_units_Z   36
loop_
 _symmetry_equiv_pos_site_id
 _symmetry_equiv_pos_as_xyz
  1  'x, y, z'
loop_
 _atom_site_type_symbol
 _atom_site_label
 _atom_site_symmetry_multiplicity
 _atom_site_fract_x
 _atom_site_fract_y
 _atom_site_fract_z
 _atom_site_occupancy
  In  In0  1  -0.00261796  0.19713995  0.52893372  1
  In  In1  1  0.16993091  0.50276366  -0.00906201  1
  In  In2  1  -0.01050270  0.33223012  -0.02767644  1
  In  In3  1  0.52631533  0.65361222  0.11874201  1
  In  In4  1  0.66538979  0.32999519  0.68512691  1
  In  In5  1  0.49691044  -0.02523117  0.85787286  1
  In  In6  1  0.67381822  0.66367460  0.67650780  1
  In  In7  1  0.83903454  0.67200767  0.49157173  1
  In  In8  1  0.36074147  0.48254858  0.14891212  1
  In  In9  1  0.83831132  -0.01096187  0.16384210  1
  In  In10  1  0.67653225  0.50277779  0.83971068  1
  In  In11  1  0.00202121  0.84409149  0.82039652  1
  In  In12  1  0.66779236  0.31754508  0.31057754  1
  In  In13  1  0.17396866  -0.00113296  0.50216785  1
  In  In14  1  0.33595960  0.29540582  0.33848831  1
  In  In15  1  0.33885888  0.32669153  0.67392426  1
  In  In16  1  0.83174757  0.51214377  0.32906323  1
  In  In17  1  0.16408196  0.67681366  0.52116961  1
  In  In18  1  0.13534002  0.85121350  0.32543564  1
  In  In19  1  0.34306546  0.33023749  0.01815267  1
  In  In20  1  0.67235527  0.14578553  0.50145867  1
  In  In21  1  0.17093838  -0.02551605  0.13410025  1
  In  In22  1  0.82706740  0.16581170  -0.01924015  1
  In  In23  1  0.14181794  0.34091519  0.83107128  1
  In  In24  1  0.33451924  -0.00990174  0.33593342  1
  In  In25  1  0.66489012  -0.00694819  -0.00647339  1
  In  In26  1  0.67062333  0.51054804  0.50105407  1
  In  In27  1  0.35968181  0.52353757  0.84404939  1
  In  In28  1  -0.02167536  0.49958280  0.14156796  1
  In  In29  1  0.48980115  0.16305235  0.30968272  1
  In  In30  1  0.18703359  0.31743937  0.17958321  1
  In  In31  1  0.82022464  -0.00938558  0.84898225  1
  In  In32  1  0.34462385  0.15430591  0.15293830  1
  In  In33  1  -0.00513154  0.45980422  0.82994180  1
  In  In34  1  0.52111816  0.47418366  0.31215131  1
  In  In35  1  0.48980970  0.33633308  0.50810775  1
  In  In36  1  0.13129312  0.49041749  0.32395123  1
  In  In37  1  0.68683225  0.67687066  0.32039159  1
  In  In38  1  0.32976361  -0.00499050  0.67234338  1
  In  In39  1  0.82840202  0.32961946  0.84607485  1
  In  In40  1  0.50925118  0.00202291  0.15786732  1
  In  In41  1  0.66292153  0.00491473  0.31455800  1
  In  In42  1  0.00352944  0.00835184  0.67907524  1
  In  In43  1  0.17138845  0.00589459  0.82519121  1
  In  In44  1  -0.00375068  0.66926970  0.67469662  1
  In  In45  1  0.50788717  0.68129272  0.51656943  1
  In  In46  1  0.15600069  0.16848415  0.33858488  1
  In  In47  1  0.32048515  0.18003957  0.50813778  1
  In  In48  1  0.15066563  0.67677809  0.16723848  1
  In  In49  1  0.51084503  0.32773908  0.83527567  1
  In  In50  1  0.33014137  0.67694052  0.31227869  1
  In  In51  1  0.34009699  0.68141950  -0.01760956  1
  In  In52  1  0.82779935  0.15414214  0.67905181  1
  In  In53  1  0.86643548  0.34942019  0.51181883  1
  In  In54  1  0.82104574  0.67942622  0.83062715  1
  In  In55  1  0.53180606  0.69302216  0.86236968  1
  In  In56  1  0.15001221  0.49530618  0.68542968  1
  In  In57  1  0.32780464  0.52436247  0.50848157  1
  In  In58  1  0.51581057  0.00382873  0.52879183  1
  In  In59  1  0.49626948  0.84400873  0.33644136  1
  In  In60  1  0.18061710  0.69124408  0.86354720  1
  In  In61  1  -0.00879600  -0.01660829  0.31453387  1
  In  In62  1  0.00057326  0.84691418  0.49875368  1
  In  In63  1  -0.00735923  0.66678277  0.01540438  1
  In  In64  1  0.34622625  0.68372832  0.66517104  1
  In  In65  1  0.32967700  0.15460573  0.84623513  1
  In  In66  1  0.00279561  0.32980695  0.33910217  1
  In  In67  1  -0.01815073  0.00097907  0.01424662  1
  In  In68  1  0.79909442  0.33301509  0.13074627  1
  In  In69  1  0.50522106  0.83138053  0.68471729  1
  In  In70  1  0.80010217  -0.02944004  0.51855747  1
  In  In71  1  0.67785509  0.81382424  0.13395664  1
  Te  Te72  1  0.07748666  0.08049766  0.09659761  1
  Te  Te73  1  0.06879313  0.07495943  0.42182318  1
  Te  Te74  1  0.08144027  0.10459401  0.75763720  1
  Te  Te75  1  0.09643048  0.41201675  0.08805526  1
  Te  Te76  1  0.07369446  0.41553191  0.43642652  1
  Te  Te77  1  0.04632231  0.37196433  0.69882968  1
  Te  Te78  1  0.10026315  0.76092101  0.05631045  1
  Te  Te79  1  0.07325050  0.74031314  0.41460389  1
  Te  Te80  1  0.10179426  0.75308675  0.74720698  1
  Te  Te81  1  0.43925259  0.08922720  0.05861662  1
  Te  Te82  1  0.41479541  0.08210675  0.42754424  1
  Te  Te83  1  0.42494501  0.07519717  0.75799925  1
  Te  Te84  1  0.45839064  0.42133687  0.05309797  1
  Te  Te85  1  0.40662459  0.42365428  0.41319536  1
  Te  Te86  1  0.42879320  0.42463872  0.74906208  1
  Te  Te87  1  0.41618633  0.74631561  0.09058360  1
  Te  Te88  1  0.40925080  0.75101633  0.42212041  1
  Te  Te89  1  0.41450981  0.75494004  0.78065998  1
  Te  Te90  1  0.74741877  0.08450856  0.08183347  1
  Te  Te91  1  0.76503009  0.07284068  0.40562895  1
  Te  Te92  1  0.73407756  0.07561346  0.76126923  1
  Te  Te93  1  0.72917904  0.44035846  0.05794773  1
  Te  Te94  1  0.74510983  0.40784328  0.41504088  1
  Te  Te95  1  0.76768370  0.42621455  0.74251220  1
  Te  Te96  1  0.76310902  0.70938374  0.07231542  1
  Te  Te97  1  0.74824061  0.76496145  0.41918127  1
  Te  Te98  1  0.74112480  0.77534538  0.74779054  1
  Te  Te99  1  0.06905522  0.23789784  0.23417735  1
  Te  Te100  1  0.10381526  0.26705415  0.59766323  1
  Te  Te101  1  0.08944681  0.23694943  0.92174601  1
  Te  Te102  1  0.05048217  0.59209406  0.24419588  1
  Te  Te103  1  0.06852767  0.57334781  0.57944931  1
  Te  Te104  1  0.07327220  0.57987917  0.90256101  1
  Te  Te105  1  0.05042681  0.88834702  0.19807059  1
  Te  Te106  1  0.09387217  0.91219141  0.59932523  1
  Te  Te107  1  0.07966707  0.92475276  0.92110107  1
  Te  Te108  1  0.43153344  0.27838791  0.21516205  1
  Te  Te109  1  0.43258147  0.22934831  0.60041375  1
  Te  Te110  1  0.42744144  0.23899991  0.92840387  1
  Te  Te111  1  0.43161849  0.58446641  0.24176514  1
  Te  Te112  1  0.43615415  0.57690362  0.60206002  1
  Te  Te113  1  0.45693853  0.58179050  0.94274265  1
  Te  Te114  1  0.40802058  0.91066381  0.23050850  1
  Te  Te115  1  0.41519570  0.90401021  0.58180148  1
  Te  Te116  1  0.39048197  0.90335988  0.93374461  1
  Te  Te117  1  0.76457608  0.23458113  0.23625327  1
  Te  Te118  1  0.75472235  0.25442366  0.57522766  1
  Te  Te119  1  0.72240766  0.25680531  0.92411691  1
  Te  Te120  1  0.72714666  0.56238256  0.23718992  1
  Te  Te121  1  0.77009742  0.57803283  0.59305556  1
  Te  Te122  1  0.72795060  0.61383134  0.93152610  1
  Te  Te123  1  0.74419833  0.89658714  0.24396760  1
  Te  Te124  1  0.71382510  0.89290753  0.60814697  1
  Te  Te125  1  0.74087159  0.88339340  0.92267831  1
  Te  Te126  1  0.23897489  0.22899744  0.06772169  1
  Te  Te127  1  0.22017271  0.26911824  0.43372351  1
  Te  Te128  1  0.24319276  0.24553144  0.75877028  1
  Te  Te129  1  0.25564794  0.58536065  0.08565478  1
  Te  Te130  1  0.23726900  0.59280902  0.40380847  1
  Te  Te131  1  0.24992790  0.59019370  0.75688764  1
  Te  Te132  1  0.28927869  0.94366955  0.04875589  1
  Te  Te133  1  0.25173366  0.89582100  0.42058853  1
  Te  Te134  1  0.25000051  0.90173988  0.75367157  1
  Te  Te135  1  0.54685209  0.28937878  0.11571666  1
  Te  Te136  1  0.57577068  0.24557519  0.41882841  1
  Te  Te137  1  0.58668198  0.22798137  0.75476416  1
  Te  Te138  1  0.63906078  0.57053965  0.06929187  1
  Te  Te139  1  0.57339376  0.58864494  0.41164916  1
  Te  Te140  1  0.57468446  0.58461483  0.75860963  1
  Te  Te141  1  0.56284827  0.89089062  0.06529386  1
  Te  Te142  1  0.59294043  0.92282860  0.42312150  1
  Te  Te143  1  0.59632244  0.91889225  0.76023098  1
  Te  Te144  1  0.91512726  0.24872578  0.07496241  1
  Te  Te145  1  0.90625370  0.23780162  0.41357604  1
  Te  Te146  1  0.91414691  0.24017037  0.76285157  1
  Te  Te147  1  0.88690852  0.61871528  0.11340811  1
  Te  Te148  1  0.92819946  0.58397958  0.41228163  1
  Te  Te149  1  0.91458568  0.57789128  0.76407055  1
  Te  Te150  1  0.89235762  0.89316743  0.06383821  1
  Te  Te151  1  0.89377237  0.89662771  0.39818445  1
  Te  Te152  1  0.89692837  0.91600634  0.73706943  1
  Te  Te153  1  0.24392629  0.07880454  0.24993010  1
  Te  Te154  1  0.23530103  0.09578617  0.60207114  1
  Te  Te155  1  0.25723130  0.06069700  0.93821118  1
  Te  Te156  1  0.25728928  0.42800541  0.25801347  1
  Te  Te157  1  0.25008015  0.42204117  0.59124173  1
  Te  Te158  1  0.26371262  0.41468396  0.90579546  1
  Te  Te159  1  0.24307974  0.77678985  0.23677973  1
  Te  Te160  1  0.25628757  0.76992634  0.58655851  1
  Te  Te161  1  0.26074675  0.80036294  0.92873483  1
  Te  Te162  1  0.60023708  0.10818126  0.22092896  1
  Te  Te163  1  0.60307627  0.08406154  0.61660449  1
  Te  Te164  1  0.56956428  0.08570945  0.92924396  1
  Te  Te165  1  0.60196503  0.40445005  0.20261948  1
  Te  Te166  1  0.58304340  0.42296470  0.59145922  1
  Te  Te167  1  0.61970243  0.38957432  0.92206861  1
  Te  Te168  1  0.57409743  0.74970272  0.24245708  1
  Te  Te169  1  0.61246847  0.77345236  0.57703563  1
  Te  Te170  1  0.61128433  0.79028954  0.94235283  1
  Te  Te171  1  0.91433548  0.08792979  0.24447834  1
  Te  Te172  1  0.91018656  0.06782822  0.56838165  1
  Te  Te173  1  0.92737564  0.08731049  0.89902819  1
  Te  Te174  1  0.90777170  0.40570585  0.24024985  1
  Te  Te175  1  0.93295461  0.43293125  0.60992196  1
  Te  Te176  1  0.89150937  0.44245778  0.94112480  1
  Te  Te177  1  0.95462771  0.80618484  0.28262667  1
  Te  Te178  1  0.91048240  0.76471233  0.59210605  1
  Te  Te179  1  0.91878341  0.75974572  0.91699327  1
