# generated using pymatgen
data_In2Te3
_symmetry_space_group_name_H-M   'P 1'
_cell_length_a   19.04147226
_cell_length_b   19.01106289
_cell_length_c   19.01589008
_cell_angle_alpha   89.91820246
_cell_angle_beta   90.38792266
_cell_angle_gamma   90.13622186
_symmetry_Int_Tables_number   1
_chemical_formula_structural   In2Te3
_chemical_formula_sum   'In72 Te108'
_cell_volume   6883.54200515
_cell_formula_units_Z   36
loop_
 _symmetry_equiv_pos_site_id
 _symmetry_equiv_pos_as_xyz
  1  'x, y, z'
loop_
 _atom_site_type_symbol
 _atom_site_label
 _atom_site_symmetry_multiplicity
 _atom_site_fract_x
 _atom_site_fract_y
 _atom_site_fract_z
 _atom_site_occupancy
  In  In0  1  0.17013309  0.64264485  0.18923288  1
  In  In1  1  0.30982449  0.31506391  0.64269399  1
  In  In2  1  0.68366892  0.67730546  -0.01459136  1
  In  In3  1  0.51678747  -0.00133951  0.17692563  1
  In  In4  1  0.15969576  0.83223488  0.36584723  1
  In  In5  1  0.14734623  0.16708430  0.63582873  1
  In  In6  1  -0.02673486  0.40835103  0.02739293  1
  In  In7  1  0.47722569  0.67193504  0.82244043  1
  In  In8  1  0.63581198  0.31157060  0.37353053  1
  In  In9  1  -0.01635066  0.17283230  0.17032021  1
  In  In10  1  0.48567768  0.79425080  0.33414388  1
  In  In11  1  0.31657787  0.51758075  0.82517707  1
  In  In12  1  0.02117152  -0.04853859  0.65840383  1
  In  In13  1  0.47825529  0.83569375  -0.01978168  1
  In  In14  1  0.82480417  0.32742788  0.15405322  1
  In  In15  1  0.17691543  0.18676266  0.02280987  1
  In  In16  1  -0.00709817  0.50705520  0.83417458  1
  In  In17  1  0.34186401  -0.00842013  -0.01653599  1
  In  In18  1  -0.00944308  0.33108574  0.64794532  1
  In  In19  1  0.33103872  0.81796650  0.13893359  1
  In  In20  1  0.02123747  -0.01732672  0.01526889  1
  In  In21  1  0.47590184  0.66749671  0.51167633  1
  In  In22  1  0.36324782  0.65061909  -0.00059477  1
  In  In23  1  0.34110499  0.48568915  0.17908438  1
  In  In24  1  0.33878881  0.36097157  0.00491741  1
  In  In25  1  0.30730604  0.83528465  0.79929019  1
  In  In26  1  0.48728944  0.51097848  0.66991521  1
  In  In27  1  0.68117650  0.36873092  0.66273271  1
  In  In28  1  0.84912744  0.65781588  0.48996757  1
  In  In29  1  0.31323443  -0.02584989  0.34301869  1
  In  In30  1  0.84592287  0.85325314  0.34703584  1
  In  In31  1  -0.01330334  0.64137832  -0.00149464  1
  In  In32  1  0.84310826  0.82429589  0.64913721  1
  In  In33  1  0.15439304  0.33364111  0.20798218  1
  In  In34  1  0.84817891  0.36146754  0.48752661  1
  In  In35  1  0.49025392  0.30608339  0.80369775  1
  In  In36  1  0.16614430  0.49776108  0.65904328  1
  In  In37  1  0.33136651  0.16260046  0.49783133  1
  In  In38  1  0.68381596  0.51250370  0.50385466  1
  In  In39  1  0.50663297  0.48097250  0.35275392  1
  In  In40  1  0.17638484  -0.00826027  0.82926806  1
  In  In41  1  0.64603382  0.02869536  0.66080271  1
  In  In42  1  0.16331245  0.67863127  0.53073844  1
  In  In43  1  0.01480456  0.49566612  0.21638025  1
  In  In44  1  0.64122973  0.84810771  0.52803297  1
  In  In45  1  0.79946669  0.19613165  -0.02487526  1
  In  In46  1  -0.00955580  0.18098032  0.82029186  1
  In  In47  1  -0.00439553  0.83076964  0.19539307  1
  In  In48  1  0.70074086  0.66342528  0.33853450  1
  In  In49  1  0.46292510  -0.00585411  0.52500964  1
  In  In50  1  0.66984553  0.86662188  0.80256288  1
  In  In51  1  0.69156612  0.49737483  0.17598491  1
  In  In52  1  0.31328241  0.65613602  0.36301763  1
  In  In53  1  0.50457726  0.30693061  0.15404094  1
  In  In54  1  0.51763799  0.17292891  -0.05906589  1
  In  In55  1  0.33993652  0.15324208  0.18335457  1
  In  In56  1  0.15088032  0.13253461  0.36416489  1
  In  In57  1  0.54557192  0.63540719  0.19093289  1
  In  In58  1  0.09199185  0.67666721  0.77671534  1
  In  In59  1  0.16627063  0.81074754  0.00367488  1
  In  In60  1  0.85758658  0.00704656  0.49292402  1
  In  In61  1  0.66280510  0.49094404  0.83151869  1
  In  In62  1  0.70957355  0.83646017  0.14960710  1
  In  In63  1  0.67080427  -0.00896113  0.35839877  1
  In  In64  1  0.84268366  0.67409958  0.83036125  1
  In  In65  1  0.34682562  0.34037820  0.34133939  1
  In  In66  1  0.83059485  0.00717836  0.84168071  1
  In  In67  1  0.67907683  0.14198391  0.17297398  1
  In  In68  1  0.82536922  0.17068536  0.64485888  1
  In  In69  1  0.68439509  0.00428366  -0.00146610  1
  In  In70  1  0.84835280  0.17894364  0.34590356  1
  In  In71  1  0.18834569  0.31709770  0.82113926  1
  Te  Te72  1  0.09010181  0.09136708  0.09915025  1
  Te  Te73  1  0.06355281  0.04159166  0.43824669  1
  Te  Te74  1  0.07813464  0.07959115  0.74913147  1
  Te  Te75  1  0.10418055  0.42923041  0.10451765  1
  Te  Te76  1  0.01483810  0.44492724  0.36279496  1
  Te  Te77  1  0.08208257  0.40205104  0.75357126  1
  Te  Te78  1  0.08191686  0.72555020  0.09529960  1
  Te  Te79  1  0.07232099  0.72681490  0.41896775  1
  Te  Te80  1  0.07790416  0.81636835  0.72131457  1
  Te  Te81  1  0.42268831  0.07569671  0.08358277  1
  Te  Te82  1  0.40940432  0.07100606  0.40476529  1
  Te  Te83  1  0.50093917  0.15211217  0.78703258  1
  Te  Te84  1  0.44703304  0.42932890  0.08556937  1
  Te  Te85  1  0.40547329  0.42960923  0.44171260  1
  Te  Te86  1  0.38869582  0.41220620  0.74315304  1
  Te  Te87  1  0.44922720  0.73200840  0.09657635  1
  Te  Te88  1  0.37533771  0.77545998  0.43599962  1
  Te  Te89  1  0.39741155  0.74593570  0.72553952  1
  Te  Te90  1  0.78278134  0.08664097  0.07827504  1
  Te  Te91  1  0.75106216  0.09536835  0.43157766  1
  Te  Te92  1  0.74735807  0.09665112  0.75279026  1
  Te  Te93  1  0.73413286  0.40575593  0.07158917  1
  Te  Te94  1  0.73795474  0.41999875  0.39854410  1
  Te  Te95  1  0.76532002  0.47160788  0.72686869  1
  Te  Te96  1  0.77562715  0.72368495  0.08978696  1
  Te  Te97  1  0.73919549  0.77745313  0.43057276  1
  Te  Te98  1  0.74550544  0.75328402  0.73987373  1
  Te  Te99  1  0.07052904  0.23437910  0.28062091  1
  Te  Te100  1  0.07002431  0.25704117  0.54700590  1
  Te  Te101  1  0.09050366  0.25075928  0.91623424  1
  Te  Te102  1  0.06969247  0.61554928  0.29289624  1
  Te  Te103  1  0.07032857  0.56809959  0.57151433  1
  Te  Te104  1  0.09551390  0.59300138  0.90709371  1
  Te  Te105  1  0.10743809  0.90630727  0.25079860  1
  Te  Te106  1  0.13504629  0.87784884  0.59329588  1
  Te  Te107  1  0.08686477  0.89731375  0.90884720  1
  Te  Te108  1  0.43210159  0.23917384  0.26741545  1
  Te  Te109  1  0.42493201  0.25399055  0.57103967  1
  Te  Te110  1  0.39129983  0.25560401  0.91643600  1
  Te  Te111  1  0.41744733  0.58850284  0.26388081  1
  Te  Te112  1  0.38815081  0.57566461  0.58269359  1
  Te  Te113  1  0.43740103  0.55477357  0.91095081  1
  Te  Te114  1  0.41310556  0.90725258  0.23940272  1
  Te  Te115  1  0.37791413  0.87831328  0.55868531  1
  Te  Te116  1  0.42087177  0.92508345  0.87676056  1
  Te  Te117  1  0.73784000  0.25221404  0.25869603  1
  Te  Te118  1  0.74964576  0.27399120  0.56537057  1
  Te  Te119  1  0.70049042  0.26524916  0.89616434  1
  Te  Te120  1  0.78368682  0.57702719  0.25733991  1
  Te  Te121  1  0.76089556  0.59938564  0.59238891  1
  Te  Te122  1  0.76564961  0.57383936  0.91306220  1
  Te  Te123  1  0.76067593  0.93752478  0.24905093  1
  Te  Te124  1  0.75275814  0.93692822  0.58559124  1
  Te  Te125  1  0.76007037  0.89900557  0.92172892  1
  Te  Te126  1  0.26925294  0.27226875  0.11576830  1
  Te  Te127  1  0.24579045  0.24569629  0.40505523  1
  Te  Te128  1  0.25481446  0.21208432  0.73843272  1
  Te  Te129  1  0.26400885  0.57798135  0.08557542  1
  Te  Te130  1  0.22674418  0.57438403  0.44493457  1
  Te  Te131  1  0.22718035  0.60804196  0.74514465  1
  Te  Te132  1  0.24337862  0.92196884  0.07510357  1
  Te  Te133  1  0.20697564  0.95224386  0.44791769  1
  Te  Te134  1  0.28273906  0.96464356  0.73311912  1
  Te  Te135  1  0.59108697  0.21572726  0.07359988  1
  Te  Te136  1  0.54849760  0.24112429  0.46410414  1
  Te  Te137  1  0.60206000  0.25364648  0.71759752  1
  Te  Te138  1  0.60464444  0.57579791  0.06939641  1
  Te  Te139  1  0.58401504  0.60366314  0.41395481  1
  Te  Te140  1  0.58451232  0.59383587  0.74920914  1
  Te  Te141  1  0.58156770  0.91231337  0.07072729  1
  Te  Te142  1  0.55597840  0.90710375  0.41441163  1
  Te  Te143  1  0.56365041  0.92171689  0.71877137  1
  Te  Te144  1  0.92247815  0.25554168  0.05729792  1
  Te  Te145  1  0.93162779  0.24357192  0.45020844  1
  Te  Te146  1  0.89166389  0.26635097  0.74362302  1
  Te  Te147  1  0.92848233  0.53783064  0.08979266  1
  Te  Te148  1  0.90983545  0.53659060  0.43116625  1
  Te  Te149  1  0.95442971  0.62040936  0.74121434  1
  Te  Te150  1  0.92410105  0.90891633  0.09290953  1
  Te  Te151  1  0.95848322  0.92730835  0.41779603  1
  Te  Te152  1  0.90900669  0.91167214  0.75577089  1
  Te  Te153  1  0.23745550  0.07009502  0.25171544  1
  Te  Te154  1  0.23954147  0.07226310  0.57106939  1
  Te  Te155  1  0.24396531  0.09135686  0.92604574  1
  Te  Te156  1  0.24165211  0.43511772  0.28007415  1
  Te  Te157  1  0.21776243  0.39724569  0.56628974  1
  Te  Te158  1  0.23603276  0.42726497  0.91666301  1
  Te  Te159  1  0.25515896  0.75300114  0.25205960  1
  Te  Te160  1  0.25839058  0.78112997  0.58776817  1
  Te  Te161  1  0.27530047  0.74636643  0.92281551  1
  Te  Te162  1  0.58424695  0.08844795  0.27790234  1
  Te  Te163  1  0.56956463  0.09594631  0.55197261  1
  Te  Te164  1  0.59586595  0.05860459  0.89340684  1
  Te  Te165  1  0.58126049  0.40442372  0.24819878  1
  Te  Te166  1  0.57543826  0.43412918  0.57478201  1
  Te  Te167  1  0.59171367  0.37598748  0.89623968  1
  Te  Te168  1  0.61089593  0.76558730  0.24418958  1
  Te  Te169  1  0.56695440  0.74387071  0.59726143  1
  Te  Te170  1  0.58228652  0.75968861  0.90189268  1
  Te  Te171  1  0.91666315  0.08204613  0.26255337  1
  Te  Te172  1  0.93199521  0.07263550  0.60586410  1
  Te  Te173  1  0.93919086  0.07798508  0.91965043  1
  Te  Te174  1  0.92211878  0.37958578  0.25489238  1
  Te  Te175  1  0.93166174  0.44864607  0.57634844  1
  Te  Te176  1  0.90580054  0.40962206  0.89831037  1
  Te  Te177  1  0.90347137  0.74424933  0.26967979  1
  Te  Te178  1  0.93125975  0.76319996  0.55125703  1
  Te  Te179  1  0.92860163  0.75000707  0.92093775  1
