# generated using pymatgen
data_In2Te3
_symmetry_space_group_name_H-M   'P 1'
_cell_length_a   18.94258590
_cell_length_b   18.94895192
_cell_length_c   18.97486676
_cell_angle_alpha   89.89045022
_cell_angle_beta   89.91792495
_cell_angle_gamma   89.94352471
_symmetry_Int_Tables_number   1
_chemical_formula_structural   In2Te3
_chemical_formula_sum   'In72 Te108'
_cell_volume   6810.85673159
_cell_formula_units_Z   36
loop_
 _symmetry_equiv_pos_site_id
 _symmetry_equiv_pos_as_xyz
  1  'x, y, z'
loop_
 _atom_site_type_symbol
 _atom_site_label
 _atom_site_symmetry_multiplicity
 _atom_site_fract_x
 _atom_site_fract_y
 _atom_site_fract_z
 _atom_site_occupancy
  In  In0  1  0.00499236  0.64584590  -0.00138641  1
  In  In1  1  0.49766800  0.82635203  0.66508345  1
  In  In2  1  0.81625870  0.83291388  0.01758629  1
  In  In3  1  0.81547237  0.82899770  0.67258606  1
  In  In4  1  0.50375196  0.18473728  0.32203573  1
  In  In5  1  -0.00592839  0.16984140  0.16258884  1
  In  In6  1  0.00404371  -0.00280075  0.33022274  1
  In  In7  1  0.17003207  0.31066344  0.15126195  1
  In  In8  1  0.66341877  0.66310886  0.68567934  1
  In  In9  1  0.51351396  0.66615202  0.17622724  1
  In  In10  1  0.31716975  0.79758902  0.51430345  1
  In  In11  1  0.33937474  0.50985999  0.51300157  1
  In  In12  1  0.51984744  0.48417122  0.69755552  1
  In  In13  1  0.63892650  -0.00732749  0.02307853  1
  In  In14  1  0.31324704  0.50547950  0.84320661  1
  In  In15  1  0.85065375  0.50106822  0.67091497  1
  In  In16  1  -0.00111737  0.00152015  0.65475454  1
  In  In17  1  -0.01051465  0.00143041  0.00162728  1
  In  In18  1  0.67332688  0.30344955  0.68836129  1
  In  In19  1  -0.01677340  0.15712544  0.49426396  1
  In  In20  1  0.15948904  0.35779268  0.81179795  1
  In  In21  1  0.67922852  0.85881442  0.48786282  1
  In  In22  1  0.39199858  0.02324139  0.01592289  1
  In  In23  1  -0.01903656  0.50107878  0.16618437  1
  In  In24  1  0.18277486  0.17054055  0.68311252  1
  In  In25  1  0.35185215  0.82742113  0.14479359  1
  In  In26  1  -0.01835618  0.68046131  0.33139763  1
  In  In27  1  0.49274480  0.67245420  0.49009294  1
  In  In28  1  0.33803176  -0.01282625  0.66916442  1
  In  In29  1  0.36771142  0.67096215  0.03973236  1
  In  In30  1  0.16659802  0.66269457  0.83833481  1
  In  In31  1  0.80111055  0.00292156  0.85469689  1
  In  In32  1  -0.01596626  0.82472237  0.84609663  1
  In  In33  1  0.16989677  0.15817184  -0.02517520  1
  In  In34  1  0.33342606  0.33066041  0.66920786  1
  In  In35  1  0.52218027  0.46988824  -0.03447333  1
  In  In36  1  0.34927606  0.49096821  0.15698065  1
  In  In37  1  0.15208855  0.32481465  0.50916732  1
  In  In38  1  0.53339163  0.01881678  0.49355102  1
  In  In39  1  0.36941717  0.28044639  -0.02902432  1
  In  In40  1  0.49778767  0.49958478  0.33081371  1
  In  In41  1  0.80789675  0.16497065  -0.00178115  1
  In  In42  1  0.64403085  0.66739894  -0.00427791  1
  In  In43  1  0.16120638  0.85280957  0.33209066  1
  In  In44  1  0.15161651  0.68230764  0.18144695  1
  In  In45  1  0.66507438  0.01058811  0.32048121  1
  In  In46  1  0.82166529  0.33391874  0.84472285  1
  In  In47  1  0.00703355  0.85064009  0.48027754  1
  In  In48  1  0.51505418  0.00975527  0.81302728  1
  In  In49  1  0.20102535  -0.01523787  0.83008987  1
  In  In50  1  0.17827574  0.14888178  0.31797793  1
  In  In51  1  0.82651160  0.34603092  0.52030217  1
  In  In52  1  0.79498490  0.52386597  0.28421177  1
  In  In53  1  0.81709009  0.32714973  0.14869088  1
  In  In54  1  0.80123558  0.49391787  -0.01288364  1
  In  In55  1  0.33240080  -0.02410742  0.32003687  1
  In  In56  1  0.17652975  0.49919994  0.36955340  1
  In  In57  1  0.33579852  0.16402929  0.50738496  1
  In  In58  1  0.65764269  0.50763944  0.51892705  1
  In  In59  1  0.18041943  0.82765016  0.01688562  1
  In  In60  1  0.35211351  0.82629650  0.83088537  1
  In  In61  1  0.67439737  0.32870515  0.32445129  1
  In  In62  1  0.86023988  0.68913858  0.49257465  1
  In  In63  1  0.80922544  0.16957715  0.35374991  1
  In  In64  1  0.52308165  0.30936488  0.15199376  1
  In  In65  1  0.15221637  0.50354051  0.00250789  1
  In  In66  1  0.66856790  0.03281162  0.67353234  1
  In  In67  1  0.34054585  0.36767648  0.34198440  1
  In  In68  1  0.01623832  0.63794722  0.67078502  1
  In  In69  1  0.00851712  0.51628664  0.51734158  1
  In  In70  1  -0.00027384  0.19803386  0.81204389  1
  In  In71  1  0.83040767  0.84026717  0.31496052  1
  Te  Te72  1  0.08905312  0.08308553  0.08142290  1
  Te  Te73  1  0.09308383  0.07883372  0.42164595  1
  Te  Te74  1  0.09452293  0.07475725  0.76729963  1
  Te  Te75  1  0.06964397  0.40779271  0.08585378  1
  Te  Te76  1  0.06631283  0.41041786  0.41794436  1
  Te  Te77  1  0.06198285  0.41943061  0.72597001  1
  Te  Te78  1  0.06349002  0.75811958  0.08448528  1
  Te  Te79  1  0.09124807  0.74331237  0.41372340  1
  Te  Te80  1  0.08032360  0.75428378  0.75399788  1
  Te  Te81  1  0.47283288  0.11435889  0.10364251  1
  Te  Te82  1  0.41437874  0.08199962  0.40566584  1
  Te  Te83  1  0.41477909  0.08957854  0.73933803  1
  Te  Te84  1  0.42296658  0.39455302  0.06357099  1
  Te  Te85  1  0.43950535  0.41460662  0.44316033  1
  Te  Te86  1  0.41021158  0.41078957  0.77265916  1
  Te  Te87  1  0.47464655  0.78470944  0.05047144  1
  Te  Te88  1  0.41403289  0.76478373  0.40922299  1
  Te  Te89  1  0.42647400  0.73030721  0.74928104  1
  Te  Te90  1  0.76327151  0.05152653  0.08257417  1
  Te  Te91  1  0.71361504  0.09186145  0.43399409  1
  Te  Te92  1  0.73028809  0.11120763  0.78324864  1
  Te  Te93  1  0.72301305  0.42146785  0.08861871  1
  Te  Te94  1  0.74551635  0.43068399  0.42048013  1
  Te  Te95  1  0.74522372  0.42444564  0.74414010  1
  Te  Te96  1  0.71767077  0.75029683  0.09888024  1
  Te  Te97  1  0.74969805  0.74893060  0.40923050  1
  Te  Te98  1  0.74825474  0.74597920  0.77176714  1
  Te  Te99  1  0.08099105  0.25009014  0.25858309  1
  Te  Te100  1  0.07398526  0.23075556  0.59698607  1
  Te  Te101  1  0.08379883  0.26766523  0.91520569  1
  Te  Te102  1  0.07981097  0.57363590  0.25954126  1
  Te  Te103  1  0.11913049  0.60502122  0.56704258  1
  Te  Te104  1  0.06747619  0.55950607  0.89052791  1
  Te  Te105  1  0.07954413  0.91994468  0.23195748  1
  Te  Te106  1  0.08998834  0.91531500  0.58169733  1
  Te  Te107  1  0.09407923  0.91211083  0.91955004  1
  Te  Te108  1  0.40519583  0.27160990  0.24518138  1
  Te  Te109  1  0.42297100  0.25090450  0.58515203  1
  Te  Te110  1  0.48333644  0.20929149  0.90652904  1
  Te  Te111  1  0.40415023  0.59288297  0.25380529  1
  Te  Te112  1  0.44470602  0.57772684  0.59769368  1
  Te  Te113  1  0.41612677  0.57605736  0.92981598  1
  Te  Te114  1  0.43801593  0.91888515  0.22620699  1
  Te  Te115  1  0.43264051  0.92316562  0.56828755  1
  Te  Te116  1  0.43766471  0.92171335  0.91011473  1
  Te  Te117  1  0.73801433  0.22724651  0.23101560  1
  Te  Te118  1  0.73902596  0.24169474  0.57252690  1
  Te  Te119  1  0.72114245  0.27332230  0.94058892  1
  Te  Te120  1  0.71644565  0.62830557  0.21690220  1
  Te  Te121  1  0.76690022  0.60022754  0.58034101  1
  Te  Te122  1  0.71133883  0.57434920  0.89923013  1
  Te  Te123  1  0.75063818  0.93145302  0.23082396  1
  Te  Te124  1  0.75792945  0.94044322  0.58720631  1
  Te  Te125  1  0.71809570  0.89918306  0.92358358  1
  Te  Te126  1  0.26623313  0.22524334  0.07276091  1
  Te  Te127  1  0.25219217  0.26065166  0.41116464  1
  Te  Te128  1  0.26389322  0.25005414  0.77984497  1
  Te  Te129  1  0.23841593  0.59342381  0.08910442  1
  Te  Te130  1  0.28088436  0.59272297  0.40551619  1
  Te  Te131  1  0.24797270  0.58790905  0.73946114  1
  Te  Te132  1  0.27249483  0.93337985  0.06969988  1
  Te  Te133  1  0.25285934  0.91484012  0.43428111  1
  Te  Te134  1  0.24962880  0.87976793  0.73205445  1
  Te  Te135  1  0.58147401  0.21178928  0.05788063  1
  Te  Te136  1  0.58595894  0.25844589  0.41700084  1
  Te  Te137  1  0.56209095  0.26829919  0.78259501  1
  Te  Te138  1  0.56659815  0.56414821  0.07985880  1
  Te  Te139  1  0.59168098  0.58914604  0.40840744  1
  Te  Te140  1  0.58580869  0.58358339  0.78551295  1
  Te  Te141  1  0.55480844  0.92109609  0.12210616  1
  Te  Te142  1  0.57231431  0.90949092  0.39585209  1
  Te  Te143  1  0.60073015  0.90824782  0.73707478  1
  Te  Te144  1  0.91668381  0.25182214  0.06237597  1
  Te  Te145  1  0.90763869  0.26486082  0.41879205  1
  Te  Te146  1  0.88477653  0.24985845  0.74024853  1
  Te  Te147  1  0.89307958  0.58525429  0.08031429  1
  Te  Te148  1  0.90971400  0.57060406  0.41124385  1
  Te  Te149  1  0.90144683  0.60894572  0.75551129  1
  Te  Te150  1  0.89671191  0.93333776  0.09268303  1
  Te  Te151  1  0.89791118  0.93213880  0.41839995  1
  Te  Te152  1  0.90485796  0.92741079  0.76623214  1
  Te  Te153  1  0.26828375  0.07430047  0.23196675  1
  Te  Te154  1  0.24265091  0.07353165  0.58446592  1
  Te  Te155  1  0.28363204  0.07599823  0.91488181  1
  Te  Te156  1  0.23517778  0.42175945  0.23827507  1
  Te  Te157  1  0.24059462  0.41846814  0.58842521  1
  Te  Te158  1  0.24797720  0.40624226  0.93785545  1
  Te  Te159  1  0.25741065  0.76572776  0.24793349  1
  Te  Te160  1  0.25133773  0.69047599  0.58898108  1
  Te  Te161  1  0.26596478  0.73604964  0.93133714  1
  Te  Te162  1  0.57164440  0.08909401  0.23028008  1
  Te  Te163  1  0.55506527  0.10495182  0.61034043  1
  Te  Te164  1  0.60170029  0.08593930  0.90867984  1
  Te  Te165  1  0.58665458  0.41804809  0.23900088  1
  Te  Te166  1  0.59050127  0.39802939  0.59574993  1
  Te  Te167  1  0.60348232  0.36963134  0.89187399  1
  Te  Te168  1  0.61590160  0.74413161  0.24438074  1
  Te  Te169  1  0.60347430  0.75392338  0.57157140  1
  Te  Te170  1  0.54433167  0.74727470  0.92183248  1
  Te  Te171  1  0.91013392  0.09473035  0.26275894  1
  Te  Te172  1  0.90126619  0.09222718  0.59749772  1
  Te  Te173  1  0.92047603  0.09635612  0.90596504  1
  Te  Te174  1  0.89351776  0.41059643  0.24984145  1
  Te  Te175  1  0.95536089  0.40809335  0.61236450  1
  Te  Te176  1  0.91014553  0.42599235  0.91590097  1
  Te  Te177  1  0.90505614  0.74666916  0.22816153  1
  Te  Te178  1  0.93417030  0.76918204  0.59639482  1
  Te  Te179  1  0.89893363  0.73661404  0.93175445  1
