# generated using pymatgen
data_In2Te3
_symmetry_space_group_name_H-M   'P 1'
_cell_length_a   18.79278283
_cell_length_b   18.78688814
_cell_length_c   18.78411079
_cell_angle_alpha   89.96579955
_cell_angle_beta   89.97960854
_cell_angle_gamma   89.93540577
_symmetry_Int_Tables_number   1
_chemical_formula_structural   In2Te3
_chemical_formula_sum   'In72 Te108'
_cell_volume   6631.87306241
_cell_formula_units_Z   36
loop_
 _symmetry_equiv_pos_site_id
 _symmetry_equiv_pos_as_xyz
  1  'x, y, z'
loop_
 _atom_site_type_symbol
 _atom_site_label
 _atom_site_symmetry_multiplicity
 _atom_site_fract_x
 _atom_site_fract_y
 _atom_site_fract_z
 _atom_site_occupancy
  In  In0  1  0.83152496  0.51896687  0.33189751  1
  In  In1  1  0.18740483  0.33513618  0.84805072  1
  In  In2  1  0.16963119  0.68511114  0.49125977  1
  In  In3  1  0.14910540  0.50408899  -0.00622826  1
  In  In4  1  0.67123774  0.51977370  0.16130131  1
  In  In5  1  0.01044838  0.14402027  0.46894466  1
  In  In6  1  0.80179538  0.51226869  0.66064990  1
  In  In7  1  0.32518636  0.16235939  0.18844223  1
  In  In8  1  0.48252001  0.67890425  0.82607428  1
  In  In9  1  -0.01109746  0.51188957  0.48196362  1
  In  In10  1  0.51135652  0.13272268  0.35962714  1
  In  In11  1  0.31607012  0.68403353  0.32354053  1
  In  In12  1  0.67248538  0.48244091  0.83302679  1
  In  In13  1  0.82219253  0.82155963  0.34029592  1
  In  In14  1  0.85238092  0.66694576  0.17038265  1
  In  In15  1  0.83468774  0.67702422  0.81747099  1
  In  In16  1  0.17644489  0.49817922  0.32486474  1
  In  In17  1  0.35620023  0.15977871  0.82334366  1
  In  In18  1  0.03172269  0.52082021  0.84598488  1
  In  In19  1  0.81363141  0.29376430  0.51045144  1
  In  In20  1  0.48880516  0.50173580  0.35287835  1
  In  In21  1  0.49051833  0.82846495  -0.01860039  1
  In  In22  1  0.00958391  0.83643191  0.49634286  1
  In  In23  1  0.17653353  0.83108236  0.01295398  1
  In  In24  1  0.35008361  0.32099587  0.66854407  1
  In  In25  1  0.34279927  0.84203101  0.80545115  1
  In  In26  1  0.83776469  0.14796984  0.35582091  1
  In  In27  1  0.18355183  -0.00892290  0.82141016  1
  In  In28  1  0.83071863  0.33571451  0.82394990  1
  In  In29  1  0.64966092  0.50893133  0.50977532  1
  In  In30  1  0.49282706  0.17316576  0.00731923  1
  In  In31  1  0.33750009  0.48544092  0.18399630  1
  In  In32  1  -0.01964201  0.16502661  0.84167044  1
  In  In33  1  0.49971440  0.67720849  0.50674633  1
  In  In34  1  0.02208361  0.17349603  0.17525356  1
  In  In35  1  0.63652571  0.30924575  -0.01493740  1
  In  In36  1  0.17645794  0.31428313  0.49325212  1
  In  In37  1  0.48579594  0.32573963  0.16949872  1
  In  In38  1  -0.01535308  0.32899781  0.66564586  1
  In  In39  1  0.18925445  0.51266478  0.67196679  1
  In  In40  1  0.81164347  -0.02307031  0.50299008  1
  In  In41  1  0.32713265  0.83203907  0.16634485  1
  In  In42  1  0.16871670  0.16594899  0.02227008  1
  In  In43  1  0.82678529  -0.01024890  0.16940211  1
  In  In44  1  0.84308430  0.32244753  0.16973495  1
  In  In45  1  0.66266196  0.69175419  0.64520616  1
  In  In46  1  0.33271810  0.67827351  0.00393919  1
  In  In47  1  -0.00185623  0.01482565  0.02298409  1
  In  In48  1  0.83876731  0.86205618  -0.01325054  1
  In  In49  1  0.16933031  0.14705384  0.33760468  1
  In  In50  1  0.83457136  0.50500114  0.02416533  1
  In  In51  1  -0.01201329  0.69360500  0.65330154  1
  In  In52  1  0.48202038  0.32642357  0.48272631  1
  In  In53  1  0.16561303  0.68467093  0.18339382  1
  In  In54  1  0.00774450  0.83255335  0.82071147  1
  In  In55  1  0.50392701  0.12085572  0.63295219  1
  In  In56  1  0.00038234  0.35051726  0.02953766  1
  In  In57  1  0.67530456  0.00667202  0.00265364  1
  In  In58  1  0.33315457  0.66874237  0.66225351  1
  In  In59  1  0.66027259  0.32039303  0.34436757  1
  In  In60  1  0.66634473  0.82763090  0.18729000  1
  In  In61  1  0.50653529  -0.02329499  0.80380065  1
  In  In62  1  0.49902089  0.00901729  0.18237138  1
  In  In63  1  0.66242015  0.16938861  0.81785264  1
  In  In64  1  0.49987878  0.33327064  0.83485736  1
  In  In65  1  0.18488725  0.12351392  0.63442742  1
  In  In66  1  0.64509717  0.67702469  0.00684141  1
  In  In67  1  0.50350216  0.85819859  0.36600835  1
  In  In68  1  0.49797109  0.49537017  0.66655658  1
  In  In69  1  0.01411291  0.50261129  0.16920364  1
  In  In70  1  0.00667511  -0.00535396  0.63914839  1
  In  In71  1  0.81933170  0.00542978  0.80078582  1
  Te  Te72  1  0.10984468  0.06038562  0.11612983  1
  Te  Te73  1  0.10668501  0.03148373  0.43139118  1
  Te  Te74  1  0.07480982  0.08495028  0.75191371  1
  Te  Te75  1  0.11538049  0.40558266  0.10940670  1
  Te  Te76  1  0.08515577  0.41388206  0.41693371  1
  Te  Te77  1  0.08680155  0.40971859  0.74636289  1
  Te  Te78  1  0.07625639  0.76937884  0.10103510  1
  Te  Te79  1  0.09249295  0.76674561  0.39388513  1
  Te  Te80  1  0.09335769  0.74105043  0.74311024  1
  Te  Te81  1  0.40564767  0.07558131  0.08202792  1
  Te  Te82  1  0.40672399  0.04725139  0.42626819  1
  Te  Te83  1  0.39964438  0.05381422  0.72395132  1
  Te  Te84  1  0.41535290  0.41607703  0.07817720  1
  Te  Te85  1  0.38624620  0.41060585  0.40755488  1
  Te  Te86  1  0.40225963  0.42845166  0.76401886  1
  Te  Te87  1  0.43371375  0.74725605  0.09685025  1
  Te  Te88  1  0.39689825  0.75928458  0.42848946  1
  Te  Te89  1  0.43988952  0.76939662  0.71267022  1
  Te  Te90  1  0.75543820  0.09239351  0.09030171  1
  Te  Te91  1  0.72835582  0.07984804  0.43129586  1
  Te  Te92  1  0.73530979  0.09236147  0.70976839  1
  Te  Te93  1  0.74026928  0.39816801  0.08060127  1
  Te  Te94  1  0.74840555  0.42018372  0.42187983  1
  Te  Te95  1  0.72913461  0.39247829  0.72403971  1
  Te  Te96  1  0.75775251  0.75617547  0.07441952  1
  Te  Te97  1  0.77041309  0.75496714  0.46116834  1
  Te  Te98  1  0.75472972  0.76734194  0.73391656  1
  Te  Te99  1  0.09840634  0.25839574  0.26689051  1
  Te  Te100  1  0.07542681  0.23543648  0.58483990  1
  Te  Te101  1  0.07401243  0.25661250  0.92190855  1
  Te  Te102  1  0.07403251  0.59773399  0.27092141  1
  Te  Te103  1  0.08153490  0.58220619  0.58441226  1
  Te  Te104  1  0.09668859  0.62512041  0.92550929  1
  Te  Te105  1  0.04347622  0.96681477  0.30990327  1
  Te  Te106  1  0.10970570  0.90218665  0.58683926  1
  Te  Te107  1  0.07732077  0.93163656  0.91798751  1
  Te  Te108  1  0.42765260  0.23643710  0.27619789  1
  Te  Te109  1  0.40686717  0.22278117  0.56798426  1
  Te  Te110  1  0.39947366  0.26317652  0.92716564  1
  Te  Te111  1  0.41906226  0.59461426  0.25313773  1
  Te  Te112  1  0.40943701  0.57087146  0.57009637  1
  Te  Te113  1  0.41828042  0.58922248  0.92150856  1
  Te  Te114  1  0.40645169  0.92183358  0.26339826  1
  Te  Te115  1  0.40536651  0.94422669  0.54461037  1
  Te  Te116  1  0.40503851  0.93218025  0.91269740  1
  Te  Te117  1  0.75446695  0.23647522  0.25844352  1
  Te  Te118  1  0.74330362  0.21425344  0.60884693  1
  Te  Te119  1  0.75456161  0.23952762  0.91796998  1
  Te  Te120  1  0.73749259  0.61607208  0.25837663  1
  Te  Te121  1  0.76183160  0.60731118  0.54964374  1
  Te  Te122  1  0.75156395  0.58254282  0.92010977  1
  Te  Te123  1  0.73476080  0.93088770  0.27583920  1
  Te  Te124  1  0.72691995  0.91665211  0.61056048  1
  Te  Te125  1  0.73168689  0.91723645  0.89184319  1
  Te  Te126  1  0.26167990  0.25593357  0.09075982  1
  Te  Te127  1  0.26632537  0.21850537  0.42751437  1
  Te  Te128  1  0.24122528  0.23647018  0.74150413  1
  Te  Te129  1  0.24785474  0.58908509  0.09832071  1
  Te  Te130  1  0.25860308  0.58156817  0.42257168  1
  Te  Te131  1  0.26367744  0.59262749  0.76922467  1
  Te  Te132  1  0.26165422  0.93121124  0.07789549  1
  Te  Te133  1  0.29372496  0.92606702  0.44968487  1
  Te  Te134  1  0.24898637  0.91442792  0.71376035  1
  Te  Te135  1  0.59133053  0.23125414  0.10776065  1
  Te  Te136  1  0.59560412  0.22884265  0.44682409  1
  Te  Te137  1  0.55313105  0.23426212  0.73318725  1
  Te  Te138  1  0.56301701  0.58401883  0.08523877  1
  Te  Te139  1  0.58973557  0.60340745  0.40660068  1
  Te  Te140  1  0.59690579  0.58356852  0.74313579  1
  Te  Te141  1  0.58290360  0.91126546  0.08026533  1
  Te  Te142  1  0.61253879  0.93689964  0.43061163  1
  Te  Te143  1  0.59789050  0.92521720  0.69979311  1
  Te  Te144  1  0.91864685  0.23053185  0.07415846  1
  Te  Te145  1  0.92480275  0.26077170  0.41291053  1
  Te  Te146  1  0.89254943  0.22785881  0.73335589  1
  Te  Te147  1  0.94596593  0.59647568  0.06965080  1
  Te  Te148  1  0.91855693  0.61466925  0.40381351  1
  Te  Te149  1  0.91837079  0.56890047  0.74405043  1
  Te  Te150  1  0.93212507  0.90134192  0.10267195  1
  Te  Te151  1  0.92390848  0.93328721  0.40180552  1
  Te  Te152  1  0.91440084  0.91017277  0.72807691  1
  Te  Te153  1  0.25205252  0.05334639  0.25694337  1
  Te  Te154  1  0.27263812  0.05902624  0.53168699  1
  Te  Te155  1  0.25059693  0.09295086  0.91272123  1
  Te  Te156  1  0.26343143  0.39062559  0.27075934  1
  Te  Te157  1  0.25901723  0.40989057  0.58315829  1
  Te  Te158  1  0.26006036  0.43712681  0.92323027  1
  Te  Te159  1  0.22196856  0.79715097  0.27305302  1
  Te  Te160  1  0.24570516  0.76489338  0.58966771  1
  Te  Te161  1  0.25411392  0.76086764  0.90204810  1
  Te  Te162  1  0.60306332  0.08378039  0.25376123  1
  Te  Te163  1  0.59217104  0.01993090  0.56099116  1
  Te  Te164  1  0.56878137  0.08286380  0.90665987  1
  Te  Te165  1  0.58791586  0.42195053  0.25456525  1
  Te  Te166  1  0.57716404  0.39601771  0.58220983  1
  Te  Te167  1  0.56693842  0.43364082  0.93116437  1
  Te  Te168  1  0.56850555  0.75892574  0.27191931  1
  Te  Te169  1  0.58490038  0.78700537  0.56027649  1
  Te  Te170  1  0.59405106  0.76187630  0.88997171  1
  Te  Te171  1  0.92943912  0.07728857  0.25302782  1
  Te  Te172  1  0.90949211  0.08409858  0.56634438  1
  Te  Te173  1  0.89534904  0.06737514  0.92150834  1
  Te  Te174  1  0.92201381  0.41808671  0.25740695  1
  Te  Te175  1  0.90058391  0.42041362  0.57627959  1
  Te  Te176  1  0.91918597  0.42280796  0.91454364  1
  Te  Te177  1  0.92697418  0.76283768  0.25342091  1
  Te  Te178  1  0.89243594  0.76793404  0.56412146  1
  Te  Te179  1  0.92102597  0.75190687  0.91882043  1
