# generated using pymatgen
data_In2Te3
_symmetry_space_group_name_H-M   'P 1'
_cell_length_a   18.77527320
_cell_length_b   18.77948407
_cell_length_c   18.76978251
_cell_angle_alpha   90.03170013
_cell_angle_beta   89.89710140
_cell_angle_gamma   90.03149469
_symmetry_Int_Tables_number   1
_chemical_formula_structural   In2Te3
_chemical_formula_sum   'In72 Te108'
_cell_volume   6618.02387828
_cell_formula_units_Z   36
loop_
 _symmetry_equiv_pos_site_id
 _symmetry_equiv_pos_as_xyz
  1  'x, y, z'
loop_
 _atom_site_type_symbol
 _atom_site_label
 _atom_site_symmetry_multiplicity
 _atom_site_fract_x
 _atom_site_fract_y
 _atom_site_fract_z
 _atom_site_occupancy
  In  In0  1  0.66642813  0.02313622  0.67368777  1
  In  In1  1  0.02785498  -0.00526523  0.67870415  1
  In  In2  1  -0.00994834  0.82670529  0.87343167  1
  In  In3  1  0.31381788  0.67180887  0.30337129  1
  In  In4  1  0.50759624  0.18883606  0.66302869  1
  In  In5  1  0.48737993  0.81217163  0.69398857  1
  In  In6  1  0.34359182  -0.00566508  0.33389472  1
  In  In7  1  0.82066021  0.51649317  0.35092731  1
  In  In8  1  -0.01137333  0.83990374  0.13725445  1
  In  In9  1  -0.00139953  0.16486880  0.50468220  1
  In  In10  1  0.16325655  0.51265729  0.29855750  1
  In  In11  1  0.69159508  0.69071765  0.01790813  1
  In  In12  1  -0.01483895  -0.01874743  0.29969233  1
  In  In13  1  0.03715443  0.34083693  0.30886482  1
  In  In14  1  0.83727316  0.68495345  0.84739391  1
  In  In15  1  0.17054884  0.32951009  0.47973199  1
  In  In16  1  0.64771156  0.50592545  0.17902701  1
  In  In17  1  0.32395439  -0.02376743  0.00396817  1
  In  In18  1  0.47766784  0.63920401  0.85382703  1
  In  In19  1  0.30190885  0.00584205  0.67079961  1
  In  In20  1  0.15434650  0.81564556  -0.00838840  1
  In  In21  1  0.32059698  0.51394728  0.15120413  1
  In  In22  1  0.83198246  0.16610110  0.68715736  1
  In  In23  1  0.82891746  0.52684181  0.68324148  1
  In  In24  1  0.16597284  0.33304092  0.17188042  1
  In  In25  1  0.67264024  0.82932685  0.48927098  1
  In  In26  1  0.49169990  0.63489230  0.49429588  1
  In  In27  1  0.15818759  -0.01730744  0.82379670  1
  In  In28  1  0.66105970  0.66864417  0.32169604  1
  In  In29  1  0.46795682  0.00117719  0.46634305  1
  In  In30  1  0.49332475  0.65831724  0.15963011  1
  In  In31  1  0.34616133  0.18643574  0.18291851  1
  In  In32  1  0.85383189  0.84102933  0.67121075  1
  In  In33  1  0.50827335  -0.00880502  0.16252962  1
  In  In34  1  0.01533849  0.33313616  0.69238877  1
  In  In35  1  0.83779916  0.65710299  0.48391791  1
  In  In36  1  0.83560386  0.35082278  0.47431212  1
  In  In37  1  -0.03971956  0.51542486  0.50301491  1
  In  In38  1  0.50742271  0.16510099  -0.01559003  1
  In  In39  1  0.63828142  0.33187001  -0.00288947  1
  In  In40  1  0.34201752  0.50148565  0.50649949  1
  In  In41  1  0.49619873  0.82048777  0.02081681  1
  In  In42  1  0.46991900  0.37130403  0.82970099  1
  In  In43  1  0.17760934  0.64511012  0.85397672  1
  In  In44  1  0.00329932  0.32786284  0.00376276  1
  In  In45  1  0.64282809  0.65124503  0.68231938  1
  In  In46  1  0.14922622  -0.01043166  0.14912142  1
  In  In47  1  0.82827617  0.50663802  0.00191516  1
  In  In48  1  0.16674134  0.17841275  0.32785819  1
  In  In49  1  0.64362847  0.34537872  0.67335424  1
  In  In50  1  0.15635137  0.69828378  0.48318037  1
  In  In51  1  0.17276080  0.50147984  0.67730230  1
  In  In52  1  0.85837920  -0.01791977  0.46268331  1
  In  In53  1  0.69534387  -0.00405590  0.27164488  1
  In  In54  1  0.18667566  0.00399857  0.49259789  1
  In  In55  1  0.68927781  0.84868512  0.86999661  1
  In  In56  1  0.66138620  0.19330116  0.48778553  1
  In  In57  1  -0.00757924  0.66673789  0.67893210  1
  In  In58  1  0.34066094  0.18068106  0.82463357  1
  In  In59  1  0.65926438  0.33384200  0.30749012  1
  In  In60  1  0.49679516  0.34009672  0.50103617  1
  In  In61  1  0.17131978  0.82783581  0.65629650  1
  In  In62  1  0.51259214  0.01015261  0.85911491  1
  In  In63  1  0.31936225  0.83261282  0.51498602  1
  In  In64  1  0.82868026  0.32338129  0.83113423  1
  In  In65  1  0.82654411  0.15839504  0.31495421  1
  In  In66  1  0.17726425  0.16416270  0.01863489  1
  In  In67  1  0.68231795  0.15470966  0.86511662  1
  In  In68  1  0.20610417  0.35824744  0.86253047  1
  In  In69  1  -0.00246081  0.52198634  0.16763524  1
  In  In70  1  0.83806490  0.31595081  0.17065465  1
  In  In71  1  0.51036893  0.82189557  0.32979366  1
  Te  Te72  1  0.06634952  0.07843686  0.06469544  1
  Te  Te73  1  0.07330151  0.07509368  0.40385238  1
  Te  Te74  1  0.10678841  0.09779232  0.74702737  1
  Te  Te75  1  0.08713400  0.42821778  0.08214913  1
  Te  Te76  1  0.07265524  0.43474848  0.42398646  1
  Te  Te77  1  0.08919594  0.42975645  0.78349188  1
  Te  Te78  1  0.07861131  0.72769844  0.08731495  1
  Te  Te79  1  0.05694687  0.76557995  0.40178184  1
  Te  Te80  1  0.08171063  0.75638372  0.76366056  1
  Te  Te81  1  0.40815848  0.08214612  0.07594367  1
  Te  Te82  1  0.39283025  0.11392025  0.40765347  1
  Te  Te83  1  0.42796227  0.07453246  0.74861625  1
  Te  Te84  1  0.41185271  0.43678857  0.05923009  1
  Te  Te85  1  0.41504909  0.42153528  0.40705710  1
  Te  Te86  1  0.39254222  0.45821743  0.73942838  1
  Te  Te87  1  0.39370853  0.73043523  0.07745275  1
  Te  Te88  1  0.41028948  0.74776678  0.41755908  1
  Te  Te89  1  0.39354178  0.72444388  0.76416059  1
  Te  Te90  1  0.79308828  0.06034262  0.08670821  1
  Te  Te91  1  0.74552121  0.08317232  0.42160952  1
  Te  Te92  1  0.76986649  0.06069986  0.77960541  1
  Te  Te93  1  0.74519816  0.41472318  0.09318278  1
  Te  Te94  1  0.71572438  0.42558452  0.41802389  1
  Te  Te95  1  0.74183836  0.42691564  0.76007921  1
  Te  Te96  1  0.76057726  0.77779654  0.11805449  1
  Te  Te97  1  0.76420653  0.75788486  0.39262764  1
  Te  Te98  1  0.74738640  0.75254228  0.73895550  1
  Te  Te99  1  0.06830025  0.22216140  0.22025293  1
  Te  Te100  1  0.09244074  0.24939776  0.58794134  1
  Te  Te101  1  0.10590056  0.25358516  0.91725606  1
  Te  Te102  1  0.09362445  0.62173617  0.22697864  1
  Te  Te103  1  0.07782305  0.58156909  0.58393305  1
  Te  Te104  1  0.09552502  0.58911837  0.96374473  1
  Te  Te105  1  0.09294847  0.88621713  0.24663101  1
  Te  Te106  1  0.08448132  0.91267172  0.56463923  1
  Te  Te107  1  0.07340988  0.93763038  0.94106007  1
  Te  Te108  1  0.44583637  0.28304804  0.22817392  1
  Te  Te109  1  0.40509277  0.26266793  0.59108373  1
  Te  Te110  1  0.41088435  0.26922593  0.92693532  1
  Te  Te111  1  0.41857791  0.57254283  0.26149931  1
  Te  Te112  1  0.42093695  0.57460589  0.61163757  1
  Te  Te113  1  0.40587595  0.55540709  0.95802422  1
  Te  Te114  1  0.41457172  0.89781524  0.23804284  1
  Te  Te115  1  0.42082551  0.91668358  0.59301862  1
  Te  Te116  1  0.42002597  0.90128170  0.91227085  1
  Te  Te117  1  0.72569888  0.22525429  0.22163650  1
  Te  Te118  1  0.75363523  0.25770165  0.59219489  1
  Te  Te119  1  0.76268072  0.25230296  0.94975191  1
  Te  Te120  1  0.76219253  0.59107640  0.23214816  1
  Te  Te121  1  0.73766963  0.58641605  0.57697864  1
  Te  Te122  1  0.73767087  0.58863558  0.91093226  1
  Te  Te123  1  0.78576637  0.88649450  0.23652619  1
  Te  Te124  1  0.75255450  0.92149615  0.58469284  1
  Te  Te125  1  0.80489881  0.90360480  0.94443145  1
  Te  Te126  1  0.26910530  0.26919139  0.07858664  1
  Te  Te127  1  0.27032442  0.25810481  0.39580805  1
  Te  Te128  1  0.25814757  0.27562133  0.74933894  1
  Te  Te129  1  0.21874581  0.57468892  0.05476515  1
  Te  Te130  1  0.23832792  0.58537941  0.41750681  1
  Te  Te131  1  0.27416305  0.55677731  0.77641903  1
  Te  Te132  1  0.25279849  0.88438276  0.10132679  1
  Te  Te133  1  0.24347992  0.89738775  0.40009908  1
  Te  Te134  1  0.26345613  0.89185111  0.76218441  1
  Te  Te135  1  0.56635045  0.24591831  0.09555180  1
  Te  Te136  1  0.56300496  0.24551442  0.38939481  1
  Te  Te137  1  0.58719598  0.24418189  0.78094259  1
  Te  Te138  1  0.58863473  0.58554548  0.06438400  1
  Te  Te139  1  0.57812656  0.56925020  0.39382234  1
  Te  Te140  1  0.56852708  0.55506633  0.76688450  1
  Te  Te141  1  0.59997141  0.91291931  0.07540681  1
  Te  Te142  1  0.59489348  0.92756582  0.40146890  1
  Te  Te143  1  0.59077428  0.91480921  0.75354542  1
  Te  Te144  1  0.92200923  0.23282332  0.08247323  1
  Te  Te145  1  0.92537928  0.24888629  0.39906891  1
  Te  Te146  1  0.93765968  0.22907414  0.77704117  1
  Te  Te147  1  0.91032218  0.60538456  0.07831079  1
  Te  Te148  1  0.94269276  0.60694453  0.38169268  1
  Te  Te149  1  0.93206738  0.57694255  0.78471597  1
  Te  Te150  1  0.90545651  0.94259039  0.05951433  1
  Te  Te151  1  0.94116378  0.87344403  0.40007681  1
  Te  Te152  1  0.92744145  0.92680495  0.77163955  1
  Te  Te153  1  0.24649522  0.07602333  0.23449390  1
  Te  Te154  1  0.25964370  0.10461615  0.57175253  1
  Te  Te155  1  0.25838864  0.07818034  0.90920266  1
  Te  Te156  1  0.26575875  0.41035389  0.25743141  1
  Te  Te157  1  0.24979191  0.40636715  0.58640510  1
  Te  Te158  1  0.28403205  0.45378031  0.95268885  1
  Te  Te159  1  0.24377472  0.77079185  0.22464712  1
  Te  Te160  1  0.25996871  0.71879927  0.59791651  1
  Te  Te161  1  0.26396553  0.74693286  0.91963392  1
  Te  Te162  1  0.57484072  0.07806039  0.26209675  1
  Te  Te163  1  0.57520833  0.08522540  0.56691148  1
  Te  Te164  1  0.61619046  0.05558572  0.96220116  1
  Te  Te165  1  0.54808574  0.40479633  0.23036526  1
  Te  Te166  1  0.57649503  0.43707013  0.58175553  1
  Te  Te167  1  0.58198229  0.43380772  0.90614390  1
  Te  Te168  1  0.59437589  0.76007644  0.21972326  1
  Te  Te169  1  0.57383050  0.75055078  0.57566829  1
  Te  Te170  1  0.58443647  0.74418683  0.90939892  1
  Te  Te171  1  0.89861246  0.07035531  0.21568296  1
  Te  Te172  1  0.90878427  0.07397290  0.58854065  1
  Te  Te173  1  0.85608443  0.06382108  0.95477035  1
  Te  Te174  1  0.91174535  0.41962303  0.25954423  1
  Te  Te175  1  0.90940716  0.40745172  0.60769023  1
  Te  Te176  1  0.91744500  0.41780197  0.91482209  1
  Te  Te177  1  0.88427435  0.76111885  0.21427184  1
  Te  Te178  1  0.92588337  0.75102377  0.57210841  1
  Te  Te179  1  0.91865923  0.73091523  0.96369734  1
