# generated using pymatgen
data_In2Te3
_symmetry_space_group_name_H-M   'P 1'
_cell_length_a   18.99217982
_cell_length_b   18.97481182
_cell_length_c   18.97313849
_cell_angle_alpha   89.88138236
_cell_angle_beta   89.83696885
_cell_angle_gamma   90.01389574
_symmetry_Int_Tables_number   1
_chemical_formula_structural   In2Te3
_chemical_formula_sum   'In72 Te108'
_cell_volume   6837.36501621
_cell_formula_units_Z   36
loop_
 _symmetry_equiv_pos_site_id
 _symmetry_equiv_pos_as_xyz
  1  'x, y, z'
loop_
 _atom_site_type_symbol
 _atom_site_label
 _atom_site_symmetry_multiplicity
 _atom_site_fract_x
 _atom_site_fract_y
 _atom_site_fract_z
 _atom_site_occupancy
  In  In0  1  0.83664071  -0.01818627  0.84653703  1
  In  In1  1  0.03061579  0.67630267  0.67789756  1
  In  In2  1  0.49842367  0.82548806  0.00592596  1
  In  In3  1  0.82200429  0.51330451  0.31460443  1
  In  In4  1  0.18654669  0.84037454  -0.01270537  1
  In  In5  1  0.00291715  0.17301722  0.19207992  1
  In  In6  1  0.34416211  0.13404060  0.58407419  1
  In  In7  1  0.64626731  -0.00467167  -0.02019444  1
  In  In8  1  0.18219530  0.19163338  0.31804379  1
  In  In9  1  -0.00280290  0.15280769  0.82205662  1
  In  In10  1  0.50534027  0.85066865  0.35325152  1
  In  In11  1  -0.00389476  -0.00221610  0.03845860  1
  In  In12  1  0.18963575  0.19525118  -0.01012093  1
  In  In13  1  0.33127923  -0.00596112  0.35209655  1
  In  In14  1  0.17460783  -0.00303529  0.82704195  1
  In  In15  1  0.65522344  0.18020411  0.82685523  1
  In  In16  1  -0.02144949  0.49577369  0.15092929  1
  In  In17  1  0.35723675  0.15606613  0.79866611  1
  In  In18  1  0.83474280  0.66103067  0.85272560  1
  In  In19  1  0.83788545  -0.00396704  0.51415446  1
  In  In20  1  0.04205333  0.66532185  0.33543354  1
  In  In21  1  0.16629398  0.32471441  0.50067306  1
  In  In22  1  0.66008154  0.65575225  0.28224813  1
  In  In23  1  0.83016151  0.65841942  0.49847318  1
  In  In24  1  0.83814122  0.18319724  0.31467189  1
  In  In25  1  0.31465035  0.52508561  0.83319212  1
  In  In26  1  0.66944714  0.65638600  0.66108609  1
  In  In27  1  0.03506350  0.16361489  0.51521407  1
  In  In28  1  0.65650469  0.36044021  0.30753872  1
  In  In29  1  0.50396702  0.83574635  0.67095126  1
  In  In30  1  0.35199274  0.36164034  0.00815176  1
  In  In31  1  0.32956287  0.33886046  0.65931111  1
  In  In32  1  0.67227134  0.83418060  0.48782802  1
  In  In33  1  -0.03396213  0.49337167  0.87200542  1
  In  In34  1  0.51391325  0.50270015  0.00111213  1
  In  In35  1  0.16434345  0.48428655  0.67892368  1
  In  In36  1  0.81063410  0.80438930  0.25971013  1
  In  In37  1  0.36262385  -0.00822630  0.00493117  1
  In  In38  1  0.84628420  0.16764485  0.65793243  1
  In  In39  1  0.33192851  0.35969075  0.34504778  1
  In  In40  1  0.00376190  0.67074221  -0.00505328  1
  In  In41  1  0.49038075  0.64839465  0.46706430  1
  In  In42  1  0.64562090  0.02584783  0.33862213  1
  In  In43  1  0.01503565  0.85476075  0.53403327  1
  In  In44  1  0.48014906  0.16773513  0.34842178  1
  In  In45  1  0.81420397  0.18585127  0.00395527  1
  In  In46  1  0.49001628  0.33736293  0.82535824  1
  In  In47  1  0.19946380  0.64808627  0.17956975  1
  In  In48  1  0.14974185  0.51530048  0.01819871  1
  In  In49  1  0.32793039  0.83391667  0.50510531  1
  In  In50  1  0.84987618  0.82497432  0.71136304  1
  In  In51  1  0.83886271  0.31709718  0.48270356  1
  In  In52  1  0.52005910  0.66831449  0.83843871  1
  In  In53  1  0.46528455  0.64764989  0.17044227  1
  In  In54  1  0.65701336  0.17425400  0.50522915  1
  In  In55  1  0.82942303  0.48058253  0.68376844  1
  In  In56  1  0.15781475  0.00367266  0.19344004  1
  In  In57  1  0.53081479  0.19580068  0.00171622  1
  In  In58  1  0.34384478  0.79995378  0.83785146  1
  In  In59  1  0.19369237  0.64111479  0.47751156  1
  In  In60  1  0.34986469  0.19408962  0.14046204  1
  In  In61  1  0.18373598  0.82637348  0.65921425  1
  In  In62  1  0.14356771  0.33352821  0.83030181  1
  In  In63  1  0.67665364  0.51616359  0.84151340  1
  In  In64  1  0.80123619  -0.00724691  0.13738587  1
  In  In65  1  0.01361346  0.46984047  0.48519503  1
  In  In66  1  0.34160273  0.82994532  0.19404952  1
  In  In67  1  -0.00532131  0.01268574  0.35789539  1
  In  In68  1  0.81279571  0.35515833  0.14938709  1
  In  In69  1  0.00284303  0.83147366  0.16028914  1
  In  In70  1  0.65450414  -0.00164886  0.67410361  1
  In  In71  1  0.55562607  0.47197078  0.51045863  1
  Te  Te72  1  0.10253913  0.10172137  0.08873273  1
  Te  Te73  1  0.11336480  0.08744050  0.40928129  1
  Te  Te74  1  0.11051229  0.09942710  0.74023854  1
  Te  Te75  1  0.05836319  0.41090088  0.06106199  1
  Te  Te76  1  0.10490668  0.40532849  0.39290896  1
  Te  Te77  1  0.04977054  0.42602862  0.75798071  1
  Te  Te78  1  0.10677885  0.74850725  0.08791896  1
  Te  Te79  1  0.09258921  0.75211965  0.44706831  1
  Te  Te80  1  0.08477349  0.78258365  0.75966030  1
  Te  Te81  1  0.44498879  0.09216807  0.08179965  1
  Te  Te82  1  0.40534385  0.08187700  0.44820302  1
  Te  Te83  1  0.41693523  0.06883413  0.69984789  1
  Te  Te84  1  0.44685521  0.41840822  0.10963240  1
  Te  Te85  1  0.44117898  0.43047111  0.41663698  1
  Te  Te86  1  0.40503906  0.43575743  0.74808296  1
  Te  Te87  1  0.39022522  0.74672270  0.07923223  1
  Te  Te88  1  0.40212223  0.75043709  0.40060803  1
  Te  Te89  1  0.42381397  0.72355108  0.73385346  1
  Te  Te90  1  0.71452765  0.09902878  0.07636848  1
  Te  Te91  1  0.76672591  0.09221441  0.42165935  1
  Te  Te92  1  0.75741481  0.08257905  0.75530313  1
  Te  Te93  1  0.76844507  0.43102085  0.02978390  1
  Te  Te94  1  0.75155801  0.41822983  0.41128608  1
  Te  Te95  1  0.72080649  0.41005091  0.74969291  1
  Te  Te96  1  0.73327499  0.72465070  0.16453841  1
  Te  Te97  1  0.75738156  0.74656659  0.39860255  1
  Te  Te98  1  0.73569644  0.74167590  0.76600893  1
  Te  Te99  1  0.08924375  0.27799059  0.24578622  1
  Te  Te100  1  0.08241472  0.26682710  0.60575321  1
  Te  Te101  1  0.06424282  0.24782725  0.92631607  1
  Te  Te102  1  0.08846763  0.56098932  0.23885226  1
  Te  Te103  1  0.08046995  0.57787330  0.57261680  1
  Te  Te104  1  0.08434075  0.58324670  0.89988665  1
  Te  Te105  1  0.07116783  0.90842504  0.27100828  1
  Te  Te106  1  0.12274597  0.94444060  0.58540302  1
  Te  Te107  1  0.07967288  0.93138035  0.93091926  1
  Te  Te108  1  0.41548842  0.26848133  0.25334270  1
  Te  Te109  1  0.42642697  0.26446108  0.57325235  1
  Te  Te110  1  0.40301491  0.24631593  0.92079303  1
  Te  Te111  1  0.39811465  0.56863818  0.28001364  1
  Te  Te112  1  0.42636151  0.54013088  0.54588337  1
  Te  Te113  1  0.41754873  0.58988907  0.92093225  1
  Te  Te114  1  0.43046007  0.93761490  0.25265447  1
  Te  Te115  1  0.41217297  0.91822278  0.59140325  1
  Te  Te116  1  0.43002542  0.91034336  0.89799830  1
  Te  Te117  1  0.73565964  0.25084654  0.23141686  1
  Te  Te118  1  0.74736707  0.26055303  0.59012409  1
  Te  Te119  1  0.75354924  0.26677042  0.89609778  1
  Te  Te120  1  0.74227228  0.56056180  0.20030145  1
  Te  Te121  1  0.74851439  0.55906470  0.57642475  1
  Te  Te122  1  0.75662285  0.57950652  0.95098037  1
  Te  Te123  1  0.71874485  0.92788081  0.24872432  1
  Te  Te124  1  0.75647429  0.89854618  0.59747449  1
  Te  Te125  1  0.74436459  0.90112833  0.92441106  1
  Te  Te126  1  0.24410543  0.29231795  0.09315315  1
  Te  Te127  1  0.27192553  0.24488977  0.42640316  1
  Te  Te128  1  0.25042915  0.25107443  0.75491019  1
  Te  Te129  1  0.27107011  0.55638095  0.08912310  1
  Te  Te130  1  0.26955456  0.56863877  0.37147044  1
  Te  Te131  1  0.23397263  0.59890091  0.73632172  1
  Te  Te132  1  0.25194109  0.92898467  0.09757760  1
  Te  Te133  1  0.23439690  0.90956431  0.41956630  1
  Te  Te134  1  0.27083052  0.90643179  0.75544057  1
  Te  Te135  1  0.56919467  0.30322196  0.09507618  1
  Te  Te136  1  0.58797882  0.26133616  0.40414024  1
  Te  Te137  1  0.56521236  0.25001508  0.73021221  1
  Te  Te138  1  0.57456658  0.61804888  0.07219114  1
  Te  Te139  1  0.60419166  0.57669934  0.40082923  1
  Te  Te140  1  0.57379087  0.56830797  0.73678624  1
  Te  Te141  1  0.57524927  0.92106272  0.08506326  1
  Te  Te142  1  0.57762867  0.94457021  0.44770149  1
  Te  Te143  1  0.59453679  0.90062982  0.76490398  1
  Te  Te144  1  0.91440819  0.25076945  0.09610961  1
  Te  Te145  1  0.94175478  0.23336658  0.41135748  1
  Te  Te146  1  0.91692876  0.25264235  0.75280617  1
  Te  Te147  1  0.90343626  0.58970737  0.06550574  1
  Te  Te148  1  0.92794829  0.58099392  0.41097250  1
  Te  Te149  1  0.91549916  0.59063317  0.74246172  1
  Te  Te150  1  0.89404710  0.88971685  0.07205521  1
  Te  Te151  1  0.91596053  0.90108674  0.42588554  1
  Te  Te152  1  0.93741534  0.93357989  0.75086613  1
  Te  Te153  1  0.27298032  0.09619112  0.23742322  1
  Te  Te154  1  0.21410869  0.07100830  0.61131162  1
  Te  Te155  1  0.26353558  0.07878410  0.92482547  1
  Te  Te156  1  0.28293579  0.46578919  0.25121351  1
  Te  Te157  1  0.25147784  0.43188070  0.56758268  1
  Te  Te158  1  0.24224856  0.41503481  0.91144865  1
  Te  Te159  1  0.23973141  0.75667913  0.26869452  1
  Te  Te160  1  0.26625387  0.71869641  0.58411834  1
  Te  Te161  1  0.24644871  0.72698643  0.91917736  1
  Te  Te162  1  0.57144077  0.11065685  0.24782261  1
  Te  Te163  1  0.57417641  0.09405442  0.59690579  1
  Te  Te164  1  0.55848888  0.08864669  0.89646224  1
  Te  Te165  1  0.59030449  0.42379964  0.19168743  1
  Te  Te166  1  0.54701662  0.35532143  0.60402328  1
  Te  Te167  1  0.58970298  0.40703349  0.91338194  1
  Te  Te168  1  0.54959692  0.75403768  0.24606218  1
  Te  Te169  1  0.58287556  0.73724974  0.56328718  1
  Te  Te170  1  0.59766651  0.73009340  0.94779974  1
  Te  Te171  1  0.90279527  0.05947732  0.23815269  1
  Te  Te172  1  0.94200449  0.06906947  0.59355805  1
  Te  Te173  1  0.91356069  0.08301253  0.94265133  1
  Te  Te174  1  0.90897011  0.40516831  0.25579398  1
  Te  Te175  1  0.91598874  0.40462591  0.57919993  1
  Te  Te176  1  0.86633430  0.39613057  0.91747773  1
  Te  Te177  1  0.93698632  0.72028021  0.23994615  1
  Te  Te178  1  0.91300618  0.74639728  0.58962443  1
  Te  Te179  1  0.93226311  0.75851051  0.90190570  1
