# generated using pymatgen
data_In2Te3
_symmetry_space_group_name_H-M   'P 1'
_cell_length_a   18.96286430
_cell_length_b   18.96250223
_cell_length_c   18.96237011
_cell_angle_alpha   90.13973341
_cell_angle_beta   90.05207346
_cell_angle_gamma   90.00104422
_symmetry_Int_Tables_number   1
_chemical_formula_structural   In2Te3
_chemical_formula_sum   'In72 Te108'
_cell_volume   6818.52959552
_cell_formula_units_Z   36
loop_
 _symmetry_equiv_pos_site_id
 _symmetry_equiv_pos_as_xyz
  1  'x, y, z'
loop_
 _atom_site_type_symbol
 _atom_site_label
 _atom_site_symmetry_multiplicity
 _atom_site_fract_x
 _atom_site_fract_y
 _atom_site_fract_z
 _atom_site_occupancy
  In  In0  1  0.51702257  0.34825831  0.81702810  1
  In  In1  1  0.34734406  0.68163386  0.67396181  1
  In  In2  1  0.33717390  0.34269514  0.65935386  1
  In  In3  1  0.19019178  -0.00043480  0.49087595  1
  In  In4  1  0.65701389  0.32938060  0.32979859  1
  In  In5  1  0.86168853  0.32078096  0.47201613  1
  In  In6  1  0.82413387  0.64459487  0.51625471  1
  In  In7  1  0.82218365  0.81973077  0.66610305  1
  In  In8  1  0.31895969  0.19724657  0.16278486  1
  In  In9  1  0.83506100  0.66235256  0.16056997  1
  In  In10  1  0.83093211  0.17426758  0.65922306  1
  In  In11  1  0.66516812  0.82588526  0.52868467  1
  In  In12  1  0.02161816  0.81193515  0.46575199  1
  In  In13  1  0.48397828  0.16626831  0.31439230  1
  In  In14  1  0.48815705  0.51088222  0.33818461  1
  In  In15  1  0.18392490  0.50275645  0.00525358  1
  In  In16  1  0.49594598  0.65799324  0.18124264  1
  In  In17  1  -0.01662401  0.33756581  -0.01422741  1
  In  In18  1  0.84197820  0.50420427  0.32165475  1
  In  In19  1  0.33362706  -0.02729963  0.64524126  1
  In  In20  1  0.18163410  0.51305336  0.65874347  1
  In  In21  1  0.81606809  0.33547772  0.81815829  1
  In  In22  1  0.31909949  0.00697165  0.01831218  1
  In  In23  1  0.17212525  0.19210574  0.01968818  1
  In  In24  1  0.34508185  0.66007078  0.01428458  1
  In  In25  1  0.51208666  0.83671532  -0.00995266  1
  In  In26  1  0.83150497  0.82948830  0.34673873  1
  In  In27  1  0.49436733  0.16127179  0.65667900  1
  In  In28  1  -0.00805860  0.15222120  0.17107913  1
  In  In29  1  0.49820858  -0.00215377  0.50488627  1
  In  In30  1  -0.01351289  0.49116763  0.16771386  1
  In  In31  1  0.83787679  0.01140158  0.83467387  1
  In  In32  1  0.66074185  0.16208569  0.17476417  1
  In  In33  1  0.18102570  0.17371737  0.34211563  1
  In  In34  1  0.67301782  0.50431135  0.14956608  1
  In  In35  1  0.65652099  0.01272411  0.01338166  1
  In  In36  1  0.14761226  0.50237606  0.33855700  1
  In  In37  1  0.00084603  0.82443927  0.85624315  1
  In  In38  1  -0.01039720  0.00421387  0.64181586  1
  In  In39  1  0.34453142  0.84361730  0.83955655  1
  In  In40  1  0.68176398  0.81494139  0.83392100  1
  In  In41  1  0.65357967  0.34235871  0.62903925  1
  In  In42  1  0.32141239  0.49915903  0.46864926  1
  In  In43  1  0.12984398  0.17680943  0.65024101  1
  In  In44  1  0.14533599  0.65861490  0.85497881  1
  In  In45  1  0.81290619  0.34975912  0.18218928  1
  In  In46  1  -0.00124744  0.34678494  0.66226255  1
  In  In47  1  0.48262992  -0.00908766  0.15135467  1
  In  In48  1  0.53285572  0.19417666  -0.00299955  1
  In  In49  1  0.51251973  0.49462926  0.65852865  1
  In  In50  1  0.81566843  0.03288674  0.45210569  1
  In  In51  1  0.14356404  0.82174496  0.01920225  1
  In  In52  1  0.33141620  0.83293240  0.47604796  1
  In  In53  1  -0.04123232  0.63699174  0.68386755  1
  In  In54  1  0.17799756  0.83476831  0.68440839  1
  In  In55  1  0.33368862  0.18391777  0.49015841  1
  In  In56  1  0.17263479  0.35430808  0.84157952  1
  In  In57  1  0.83631848  0.00344442  0.21811372  1
  In  In58  1  0.31700721  0.80159348  0.21137109  1
  In  In59  1  0.04731911  0.79653836  0.19991998  1
  In  In60  1  0.83658803  0.81942523  0.01889310  1
  In  In61  1  0.66457155  -0.01000969  0.68314392  1
  In  In62  1  0.47348859  0.48145070  0.02229729  1
  In  In63  1  0.19771513  0.35147508  0.17889339  1
  In  In64  1  -0.02289061  -0.02229808  -0.00450597  1
  In  In65  1  0.65482866  0.52290651  0.83547385  1
  In  In66  1  0.15072054  -0.00312840  0.18799679  1
  In  In67  1  0.51030720  0.67039051  0.50326987  1
  In  In68  1  0.00330529  0.49722382  0.49544884  1
  In  In69  1  0.82024022  0.17554206  -0.01631680  1
  In  In70  1  0.34561194  0.16039119  0.81727760  1
  In  In71  1  0.50085646  0.81967622  0.33848724  1
  Te  Te72  1  0.08470088  0.07585041  0.07051053  1
  Te  Te73  1  0.09792319  0.09802379  0.43610751  1
  Te  Te74  1  0.07037406  0.07838939  0.73858495  1
  Te  Te75  1  0.08304826  0.39922724  0.08313157  1
  Te  Te76  1  0.07643785  0.39765185  0.41616638  1
  Te  Te77  1  0.08588852  0.43753618  0.74925397  1
  Te  Te78  1  0.04310935  0.72759858  0.06782885  1
  Te  Te79  1  0.12856925  0.73602664  0.40151063  1
  Te  Te80  1  0.07120927  0.74456312  0.74547665  1
  Te  Te81  1  0.42094655  0.10988516  0.07906088  1
  Te  Te82  1  0.40707545  0.07526807  0.41346241  1
  Te  Te83  1  0.42503727  0.05682569  0.73924081  1
  Te  Te84  1  0.41086117  0.38461045  0.11232175  1
  Te  Te85  1  0.40793406  0.40129400  0.39911027  1
  Te  Te86  1  0.40972941  0.43496724  0.75409449  1
  Te  Te87  1  0.41297926  0.77274779  0.09132195  1
  Te  Te88  1  0.40582880  0.72161290  0.40530312  1
  Te  Te89  1  0.43396319  0.75373629  0.76733693  1
  Te  Te90  1  0.77108425  0.07807482  0.09229957  1
  Te  Te91  1  0.71973423  0.12092577  0.38623465  1
  Te  Te92  1  0.74328126  0.09871373  0.75750213  1
  Te  Te93  1  0.77441659  0.43308147  0.06581613  1
  Te  Te94  1  0.75844118  0.41282258  0.40869152  1
  Te  Te95  1  0.72577212  0.42490432  0.73406603  1
  Te  Te96  1  0.73513528  0.73249177  0.07762941  1
  Te  Te97  1  0.74186707  0.73831853  0.43067747  1
  Te  Te98  1  0.76668586  0.71706728  0.75681205  1
  Te  Te99  1  0.10370232  0.23909167  0.22774664  1
  Te  Te100  1  0.07540163  0.27453842  0.55752220  1
  Te  Te101  1  0.08513241  0.25210405  0.91051476  1
  Te  Te102  1  0.07233429  0.58417875  0.24072965  1
  Te  Te103  1  0.07108310  0.59447515  0.59150752  1
  Te  Te104  1  0.07009894  0.58075687  0.95196674  1
  Te  Te105  1  0.05558026  0.92555131  0.27083154  1
  Te  Te106  1  0.09322585  0.90978004  0.57962987  1
  Te  Te107  1  0.09639358  0.92501342  0.91692551  1
  Te  Te108  1  0.43462202  0.27362470  0.22180699  1
  Te  Te109  1  0.43353509  0.26826915  0.56920202  1
  Te  Te110  1  0.42847400  0.25564427  0.89962912  1
  Te  Te111  1  0.39029263  0.58233955  0.25077222  1
  Te  Te112  1  0.40268685  0.57579757  0.57842232  1
  Te  Te113  1  0.41799116  0.57409345  0.92203981  1
  Te  Te114  1  0.40890781  0.91358230  0.26002108  1
  Te  Te115  1  0.43396761  0.88182123  0.57889760  1
  Te  Te116  1  0.42166295  0.94258566  0.92682532  1
  Te  Te117  1  0.76297181  0.23172762  0.26702172  1
  Te  Te118  1  0.75271358  0.25349483  0.55745063  1
  Te  Te119  1  0.72840343  0.26049206  0.91011023  1
  Te  Te120  1  0.73778464  0.59095969  0.25594590  1
  Te  Te121  1  0.78625879  0.54066634  0.61029863  1
  Te  Te122  1  0.77430106  0.60301388  0.87461237  1
  Te  Te123  1  0.73813991  0.90635561  0.26328199  1
  Te  Te124  1  0.76752889  0.93370444  0.58163083  1
  Te  Te125  1  0.75640400  0.92375082  0.92624588  1
  Te  Te126  1  0.27768302  0.29600206  0.05245354  1
  Te  Te127  1  0.28006797  0.27491990  0.38771986  1
  Te  Te128  1  0.24644657  0.25307671  0.74368901  1
  Te  Te129  1  0.25172858  0.59034859  0.10159362  1
  Te  Te130  1  0.21534009  0.59859263  0.43463998  1
  Te  Te131  1  0.25014531  0.60077537  0.76181821  1
  Te  Te132  1  0.24620321  0.90434996  0.10320857  1
  Te  Te133  1  0.24348800  0.91050722  0.38781983  1
  Te  Te134  1  0.24823454  0.93874290  0.76662404  1
  Te  Te135  1  0.61466330  0.27129738  0.09031577  1
  Te  Te136  1  0.59236803  0.21679305  0.40622214  1
  Te  Te137  1  0.59273365  0.24827840  0.73288738  1
  Te  Te138  1  0.57306274  0.58724711  0.07239881  1
  Te  Te139  1  0.59001409  0.56520582  0.43532919  1
  Te  Te140  1  0.57667217  0.60269781  0.73677521  1
  Te  Te141  1  0.59594919  0.90478460  0.09931512  1
  Te  Te142  1  0.59145885  0.90887969  0.42492743  1
  Te  Te143  1  0.58466659  0.89108163  0.75301436  1
  Te  Te144  1  0.90710003  0.25255469  0.09296633  1
  Te  Te145  1  0.92371156  0.20845209  0.40156286  1
  Te  Te146  1  0.92508149  0.24796848  0.75087673  1
  Te  Te147  1  0.88792979  0.55179772  0.07430279  1
  Te  Te148  1  0.92389645  0.59547487  0.41162717  1
  Te  Te149  1  0.89704826  0.55817313  0.79011296  1
  Te  Te150  1  0.91031702  0.91499986  0.11222486  1
  Te  Te151  1  0.92102438  0.92012586  0.42985368  1
  Te  Te152  1  0.91746729  0.91027341  0.75288668  1
  Te  Te153  1  0.26073750  0.08445899  0.24542456  1
  Te  Te154  1  0.26175345  0.09851251  0.59616383  1
  Te  Te155  1  0.25075727  0.10211009  0.92261319  1
  Te  Te156  1  0.26455945  0.45944499  0.25344723  1
  Te  Te157  1  0.23923936  0.40869270  0.56649037  1
  Te  Te158  1  0.27269706  0.43952566  0.90608763  1
  Te  Te159  1  0.18514271  0.74550752  0.25287845  1
  Te  Te160  1  0.25093293  0.75328238  0.58177474  1
  Te  Te161  1  0.24692549  0.75892985  0.92220800  1
  Te  Te162  1  0.57520794  0.06248979  0.24910537  1
  Te  Te163  1  0.59896801  0.08178302  0.58021448  1
  Te  Te164  1  0.58239513  0.08517230  0.91173438  1
  Te  Te165  1  0.58254827  0.43013085  0.24510977  1
  Te  Te166  1  0.58244604  0.43772457  0.54015166  1
  Te  Te167  1  0.58525216  0.42438553  0.92775679  1
  Te  Te168  1  0.59075607  0.73799327  0.25769065  1
  Te  Te169  1  0.60930984  0.71249011  0.60627958  1
  Te  Te170  1  0.60400387  0.73868688  0.93320748  1
  Te  Te171  1  0.93001697  0.09452547  0.29526488  1
  Te  Te172  1  0.91202140  0.10009854  0.55442638  1
  Te  Te173  1  0.93240391  0.09864007  0.91402859  1
  Te  Te174  1  0.93013848  0.39200466  0.26768235  1
  Te  Te175  1  0.89392159  0.43059221  0.58814163  1
  Te  Te176  1  0.91659921  0.42460447  0.88654038  1
  Te  Te177  1  0.91867849  0.73863818  0.26232162  1
  Te  Te178  1  0.92529774  0.75463787  0.57515474  1
  Te  Te179  1  0.91330402  0.73228432  0.92667466  1
