# generated using pymatgen
data_In2Te3
_symmetry_space_group_name_H-M   'P 1'
_cell_length_a   18.94997957
_cell_length_b   18.96166647
_cell_length_c   18.92987605
_cell_angle_alpha   89.86904938
_cell_angle_beta   90.18033486
_cell_angle_gamma   89.64137639
_symmetry_Int_Tables_number   1
_chemical_formula_structural   In2Te3
_chemical_formula_sum   'In72 Te108'
_cell_volume   6801.75848661
_cell_formula_units_Z   36
loop_
 _symmetry_equiv_pos_site_id
 _symmetry_equiv_pos_as_xyz
  1  'x, y, z'
loop_
 _atom_site_type_symbol
 _atom_site_label
 _atom_site_symmetry_multiplicity
 _atom_site_fract_x
 _atom_site_fract_y
 _atom_site_fract_z
 _atom_site_occupancy
  In  In0  1  0.82923730  0.83815274  0.69130317  1
  In  In1  1  0.09170829  0.50374792  0.03176017  1
  In  In2  1  0.50038308  0.00855995  0.13214187  1
  In  In3  1  0.31386385  0.48131948  0.48747005  1
  In  In4  1  0.81199866  0.58666316  0.08476930  1
  In  In5  1  0.32203523  0.68449212  0.67893555  1
  In  In6  1  0.18870637  0.82243583  0.02119122  1
  In  In7  1  0.50877666  0.50868986  0.65309582  1
  In  In8  1  0.82801954  0.67066003  0.85857575  1
  In  In9  1  0.36451372  0.82583793  0.16074239  1
  In  In10  1  0.34198136  0.68875556  0.01101179  1
  In  In11  1  0.33690720  0.63239790  0.34607654  1
  In  In12  1  0.02374538  0.86300748  0.80998511  1
  In  In13  1  0.66860623  0.80658269  0.50524997  1
  In  In14  1  0.32790136  0.19628415  0.46490227  1
  In  In15  1  0.00719663  0.65991320  0.34976204  1
  In  In16  1  0.49050566  0.51270191  0.31594428  1
  In  In17  1  0.86015528  0.34906089  0.52242088  1
  In  In18  1  0.14331824  0.35316214  0.81602526  1
  In  In19  1  0.00810998  0.17994042  0.18193894  1
  In  In20  1  0.33208535  0.00571780  0.66322648  1
  In  In21  1  0.85716203  0.83704342  0.35893418  1
  In  In22  1  0.00927815  0.32569010  -0.00015876  1
  In  In23  1  0.18007052  0.67896724  0.85341431  1
  In  In24  1  0.67257044  0.00708602  0.68877665  1
  In  In25  1  0.82658049  0.17809876  0.31815467  1
  In  In26  1  0.66808642  0.33734679  -0.00351413  1
  In  In27  1  0.17909438  0.00155103  0.18673230  1
  In  In28  1  0.14655861  0.48986794  0.65428588  1
  In  In29  1  0.65253799  -0.01488388  0.32415211  1
  In  In30  1  0.85218658  0.82930611  0.00324988  1
  In  In31  1  0.64927659  0.34259674  0.66073621  1
  In  In32  1  0.66103373  0.82221585  0.85337072  1
  In  In33  1  0.80815757  0.03932976  0.12920130  1
  In  In34  1  0.67242015  0.83048637  0.16088039  1
  In  In35  1  0.68006774  0.48947540  0.84025634  1
  In  In36  1  0.17619946  0.84231867  0.35493780  1
  In  In37  1  0.48475047  0.17091566  0.64911582  1
  In  In38  1  0.49929424  -0.02027499  0.87775947  1
  In  In39  1  0.30883184  0.15100401  0.81729005  1
  In  In40  1  0.03429103  0.14294370  0.49565621  1
  In  In41  1  0.50493564  0.16577479  -0.01803187  1
  In  In42  1  0.31898208  0.83987105  0.52801618  1
  In  In43  1  0.30326613  0.49324406  0.17427252  1
  In  In44  1  0.48040161  0.33294398  0.18548605  1
  In  In45  1  0.49423496  0.68670822  0.83394737  1
  In  In46  1  0.01993292  0.87094074  0.53883176  1
  In  In47  1  0.84457447  0.30195209  0.83045341  1
  In  In48  1  0.00166159  0.32510348  0.33460024  1
  In  In49  1  0.67923492  0.33036559  0.33281849  1
  In  In50  1  0.67450206  0.50494083  0.49011730  1
  In  In51  1  0.15186483  0.17592865  0.66315239  1
  In  In52  1  -0.00552413  -0.00000372  -0.01124224  1
  In  In53  1  0.51133990  0.82474752  0.33117283  1
  In  In54  1  0.66420613  0.17264859  0.49459705  1
  In  In55  1  0.17884595  0.17004545  -0.01026662  1
  In  In56  1  0.15269525  0.47199147  0.34755109  1
  In  In57  1  0.33694269  0.48131088  0.83359207  1
  In  In58  1  0.84104721  0.33742935  0.16506815  1
  In  In59  1  0.54359766  0.52782906  0.03879267  1
  In  In60  1  0.32102508  0.33046615  0.01771736  1
  In  In61  1  0.02109667  0.82740039  0.18096497  1
  In  In62  1  0.82610955  0.02298710  0.84382034  1
  In  In63  1  -0.00469549  0.65972067  0.68683634  1
  In  In64  1  0.16392873  0.66060992  0.17876219  1
  In  In65  1  0.49277762  0.32980800  0.81111281  1
  In  In66  1  0.84712756  0.03316857  0.53470548  1
  In  In67  1  0.83527673  0.65158028  0.50598173  1
  In  In68  1  0.49398473  0.14658802  0.31772129  1
  In  In69  1  0.49803154  0.67223969  0.49873829  1
  In  In70  1  -0.00376194  0.48394189  0.81610519  1
  In  In71  1  0.32006114  0.00086941  0.34836601  1
  Te  Te72  1  0.08568829  0.08042231  0.08798046  1
  Te  Te73  1  0.11970567  0.06004278  0.41150872  1
  Te  Te74  1  0.12043715  0.05669594  0.74839615  1
  Te  Te75  1  0.09875674  0.37790849  0.10776117  1
  Te  Te76  1  0.06753391  0.40052868  0.44482908  1
  Te  Te77  1  0.03148901  0.38017684  0.70849593  1
  Te  Te78  1  0.07660802  0.73645267  0.07446106  1
  Te  Te79  1  0.07231640  0.76753417  0.43489344  1
  Te  Te80  1  0.10286555  0.75152523  0.74279563  1
  Te  Te81  1  0.40480088  0.09436596  0.06064000  1
  Te  Te82  1  0.42292999  0.07524585  0.43000104  1
  Te  Te83  1  0.43317616  0.07994124  0.76517077  1
  Te  Te84  1  0.41563964  0.43229091  0.08142919  1
  Te  Te85  1  0.40463039  0.41673155  0.38913454  1
  Te  Te86  1  0.40775696  0.41377632  0.71750166  1
  Te  Te87  1  0.45824164  0.76462767  0.06305689  1
  Te  Te88  1  0.39671803  0.75746906  0.40854185  1
  Te  Te89  1  0.42360131  0.77143196  0.73515933  1
  Te  Te90  1  0.73056194  0.10739712  0.02638346  1
  Te  Te91  1  0.74902444  0.07605994  0.41040013  1
  Te  Te92  1  0.76264875  0.11137134  0.74031231  1
  Te  Te93  1  0.75231910  0.42778715  0.08101651  1
  Te  Te94  1  0.77214703  0.41687263  0.41384538  1
  Te  Te95  1  0.75941232  0.40254406  0.74628804  1
  Te  Te96  1  0.77326270  0.73960717  0.09049015  1
  Te  Te97  1  0.75209205  0.73715949  0.40164554  1
  Te  Te98  1  0.73772145  0.73695062  0.75346328  1
  Te  Te99  1  0.10294265  0.22031425  0.29237118  1
  Te  Te100  1  0.10293827  0.26297846  0.55012142  1
  Te  Te101  1  0.08055788  0.24027568  0.89572488  1
  Te  Te102  1  0.07559711  0.56397998  0.25037473  1
  Te  Te103  1  0.05159299  0.57565166  0.57790370  1
  Te  Te104  1  0.07277733  0.58504762  0.90209929  1
  Te  Te105  1  0.07773790  0.93087562  0.27475410  1
  Te  Te106  1  0.09871788  0.96327993  0.62375956  1
  Te  Te107  1  0.10381491  0.91392454  0.92866493  1
  Te  Te108  1  0.39662171  0.22310569  0.23523759  1
  Te  Te109  1  0.41409324  0.26606712  0.56316003  1
  Te  Te110  1  0.39677730  0.25800131  0.90452142  1
  Te  Te111  1  0.40641077  0.59747520  0.21864814  1
  Te  Te112  1  0.39672284  0.58560046  0.57388693  1
  Te  Te113  1  0.40737795  0.58732883  0.91397050  1
  Te  Te114  1  0.42898185  0.92972690  0.25579255  1
  Te  Te115  1  0.42479039  0.91476475  0.59248187  1
  Te  Te116  1  0.39540544  0.89022041  0.92349476  1
  Te  Te117  1  0.73283354  0.24419707  0.22029738  1
  Te  Te118  1  0.75057575  0.25932990  0.58202081  1
  Te  Te119  1  0.74872579  0.23480788  0.92550269  1
  Te  Te120  1  0.74339644  0.54948683  0.21004641  1
  Te  Te121  1  0.74296973  0.58101300  0.59348953  1
  Te  Te122  1  0.74249525  0.58061126  0.94213925  1
  Te  Te123  1  0.76468422  0.91023868  0.25607958  1
  Te  Te124  1  0.75356154  0.91943243  0.57978524  1
  Te  Te125  1  0.75529946  0.91564783  0.92595942  1
  Te  Te126  1  0.22153408  0.25968148  0.10047532  1
  Te  Te127  1  0.22772618  0.26336666  0.37761903  1
  Te  Te128  1  0.24636163  0.26794785  0.74279049  1
  Te  Te129  1  0.23748102  0.58617763  0.06745474  1
  Te  Te130  1  0.21818723  0.58875301  0.42258406  1
  Te  Te131  1  0.23767814  0.56943838  0.75385258  1
  Te  Te132  1  0.27208249  0.92592088  0.09169846  1
  Te  Te133  1  0.22166469  0.94968702  0.45597301  1
  Te  Te134  1  0.21762361  0.93329578  0.72285028  1
  Te  Te135  1  0.56813006  0.26137492  0.08074504  1
  Te  Te136  1  0.57192318  0.24882314  0.40161084  1
  Te  Te137  1  0.58929711  0.23468783  0.74851278  1
  Te  Te138  1  0.61772389  0.60194577  0.14467533  1
  Te  Te139  1  0.58503994  0.59417169  0.40267689  1
  Te  Te140  1  0.58266109  0.57907336  0.76228547  1
  Te  Te141  1  0.59362470  0.91502085  0.06875342  1
  Te  Te142  1  0.58011652  0.91070035  0.43378609  1
  Te  Te143  1  0.58146506  0.91322998  0.76118703  1
  Te  Te144  1  0.91389967  0.23681077  0.07683767  1
  Te  Te145  1  0.91144193  0.23349608  0.42876256  1
  Te  Te146  1  0.91130437  0.20236526  0.74384213  1
  Te  Te147  1  0.95742898  0.56025603  0.06173627  1
  Te  Te148  1  0.90542424  0.57166951  0.40601997  1
  Te  Te149  1  0.89007378  0.57714188  0.75557744  1
  Te  Te150  1  0.92300086  0.92220335  0.10116537  1
  Te  Te151  1  0.92863823  0.94504301  0.44060203  1
  Te  Te152  1  0.91791607  0.94782663  0.74223192  1
  Te  Te153  1  0.27270022  0.09819970  0.24708840  1
  Te  Te154  1  0.26791070  0.11584000  0.58332026  1
  Te  Te155  1  0.25214704  0.06391014  0.91946570  1
  Te  Te156  1  0.26504545  0.39514018  0.28113006  1
  Te  Te157  1  0.22877516  0.39845066  0.57411050  1
  Te  Te158  1  0.23366391  0.41538518  0.92257448  1
  Te  Te159  1  0.25027546  0.76543409  0.24586120  1
  Te  Te160  1  0.22638125  0.74318810  0.58341752  1
  Te  Te161  1  0.28344963  0.78478219  0.89808250  1
  Te  Te162  1  0.59730603  0.08450942  0.22488349  1
  Te  Te163  1  0.58623174  0.07831753  0.58295665  1
  Te  Te164  1  0.60599289  0.07449004  0.92097223  1
  Te  Te165  1  0.58963837  0.41852704  0.24631210  1
  Te  Te166  1  0.56988391  0.41370106  0.55176972  1
  Te  Te167  1  0.56261103  0.42050120  0.91133314  1
  Te  Te168  1  0.58849908  0.73665908  0.24275095  1
  Te  Te169  1  0.58188135  0.73684357  0.59882895  1
  Te  Te170  1  0.58178635  0.73612300  0.94328145  1
  Te  Te171  1  0.91080609  0.08010642  0.24195750  1
  Te  Te172  1  0.93858882  0.12100679  0.61237416  1
  Te  Te173  1  0.93617200  0.10344101  0.90194262  1
  Te  Te174  1  0.91920699  0.41890362  0.25721869  1
  Te  Te175  1  0.94252337  0.44573214  0.59736608  1
  Te  Te176  1  0.91080712  0.40803448  0.91613358  1
  Te  Te177  1  0.91996239  0.74356806  0.25471015  1
  Te  Te178  1  0.91733181  0.76427023  0.59199211  1
  Te  Te179  1  0.93791318  0.76620558  0.89711562  1
