# generated using pymatgen
data_In2Te3
_symmetry_space_group_name_H-M   'P 1'
_cell_length_a   18.77023994
_cell_length_b   18.77882674
_cell_length_c   18.78091283
_cell_angle_alpha   90.15174741
_cell_angle_beta   89.95008549
_cell_angle_gamma   89.97434261
_symmetry_Int_Tables_number   1
_chemical_formula_structural   In2Te3
_chemical_formula_sum   'In72 Te108'
_cell_volume   6619.92767169
_cell_formula_units_Z   36
loop_
 _symmetry_equiv_pos_site_id
 _symmetry_equiv_pos_as_xyz
  1  'x, y, z'
loop_
 _atom_site_type_symbol
 _atom_site_label
 _atom_site_symmetry_multiplicity
 _atom_site_fract_x
 _atom_site_fract_y
 _atom_site_fract_z
 _atom_site_occupancy
  In  In0  1  0.48482273  0.48531421  0.66099392  1
  In  In1  1  0.16959136  -0.02426186  0.15544642  1
  In  In2  1  0.32346075  0.16007386  0.50251712  1
  In  In3  1  0.14580920  0.53845869  0.28998092  1
  In  In4  1  0.82373908  0.83684747  0.30465373  1
  In  In5  1  0.31838972  0.51520404  0.17095200  1
  In  In6  1  0.33077866  0.33572359  -0.02674825  1
  In  In7  1  0.67002913  0.68782985  0.65042736  1
  In  In8  1  0.66908419  0.66608248  0.01648513  1
  In  In9  1  0.66662074  0.83844596  0.48737433  1
  In  In10  1  0.66483044  0.82079002  0.82902667  1
  In  In11  1  -0.02696444  0.17826110  0.17763374  1
  In  In12  1  0.84817670  -0.01264393  0.82105669  1
  In  In13  1  -0.01508651  0.47956345  0.84980775  1
  In  In14  1  0.34206352  -0.00809711  0.31806549  1
  In  In15  1  0.18908464  0.66147719  0.85112744  1
  In  In16  1  0.32512744  0.66841982  0.66207963  1
  In  In17  1  0.00274914  -0.01222526  -0.00846596  1
  In  In18  1  0.48175643  0.16680532  0.00194800  1
  In  In19  1  0.02430210  0.17724111  0.83808027  1
  In  In20  1  0.49408508  0.64919039  0.83305106  1
  In  In21  1  0.81353990  0.51386128  0.66533003  1
  In  In22  1  0.15343230  0.50551110  0.02478966  1
  In  In23  1  0.18418049  0.15256801  0.67288248  1
  In  In24  1  0.65538551  0.33384445  0.69342781  1
  In  In25  1  0.33392040  0.17684799  0.14872617  1
  In  In26  1  0.66228122  -0.00396858  0.02987109  1
  In  In27  1  0.67700801  0.36990891  0.01588437  1
  In  In28  1  0.82864020  0.33985688  0.14813122  1
  In  In29  1  0.51253307  0.51488308  -0.01692811  1
  In  In30  1  0.17449310  0.80240164  0.31330497  1
  In  In31  1  0.66598249  0.33109286  0.34139062  1
  In  In32  1  -0.00246712  0.34181020  0.32651596  1
  In  In33  1  0.82440582  -0.00980916  0.49511237  1
  In  In34  1  0.14709805  0.36170612  0.47490720  1
  In  In35  1  0.65991521  -0.01213305  0.64696596  1
  In  In36  1  0.00765341  0.82679819  0.49853901  1
  In  In37  1  0.50521523  -0.06093578  0.17585629  1
  In  In38  1  0.48808602  0.33073326  0.17058131  1
  In  In39  1  0.83917853  0.17486265  0.66323879  1
  In  In40  1  0.18440649  0.01394621  0.49870067  1
  In  In41  1  0.15804180  0.52032439  0.69335634  1
  In  In42  1  0.34753869  0.82571549  0.84349120  1
  In  In43  1  0.35102406  0.35572134  0.30208962  1
  In  In44  1  0.31763759  -0.02617006  0.00264333  1
  In  In45  1  -0.00047612  0.15610725  0.50065206  1
  In  In46  1  0.47081260  0.01091509  0.81649509  1
  In  In47  1  0.15959218  0.00086448  0.84806566  1
  In  In48  1  0.15375955  0.17639072  0.34197568  1
  In  In49  1  0.81289318  0.16652101  0.02288599  1
  In  In50  1  0.19283168  0.82830701  0.65635581  1
  In  In51  1  0.66080307  0.12303496  0.49204549  1
  In  In52  1  0.32508543  0.52813278  0.50703598  1
  In  In53  1  -0.00423450  0.82927346  0.85646928  1
  In  In54  1  0.17523873  0.16802371  -0.00831308  1
  In  In55  1  0.85376201  0.55430678  0.32157475  1
  In  In56  1  -0.00570512  0.33524041  0.67030941  1
  In  In57  1  0.64954009  0.13119177  0.16828020  1
  In  In58  1  0.65706940  0.18222150  0.83731398  1
  In  In59  1  0.01234227  0.80656563  0.16082266  1
  In  In60  1  0.49913809  -0.03377014  0.50442729  1
  In  In61  1  0.17846719  0.69130757  0.49407608  1
  In  In62  1  0.82490069  0.81525114  0.01954697  1
  In  In63  1  0.82505424  0.14141725  0.34220328  1
  In  In64  1  0.65176580  0.53071514  0.46578320  1
  In  In65  1  0.82824085  0.35380796  0.52295115  1
  In  In66  1  0.68914161  0.49121416  0.17223838  1
  In  In67  1  0.49895915  0.54782557  0.34558477  1
  In  In68  1  0.49664009  0.32800070  0.51218428  1
  In  In69  1  -0.00476185  0.67879747  0.65993918  1
  In  In70  1  0.67828914  0.51036126  0.85407069  1
  In  In71  1  0.31865889  0.34183664  0.69755105  1
  Te  Te72  1  0.08236569  0.08380931  0.08319213  1
  Te  Te73  1  0.07216275  0.06432704  0.40396571  1
  Te  Te74  1  0.07374562  0.06989364  0.74180115  1
  Te  Te75  1  0.03583827  0.44829086  0.09726632  1
  Te  Te76  1  0.05856219  0.46643029  0.40267050  1
  Te  Te77  1  0.09208190  0.40464347  0.76551586  1
  Te  Te78  1  0.08505622  0.70673207  0.07452311  1
  Te  Te79  1  0.06392576  0.72646610  0.39619221  1
  Te  Te80  1  0.10433605  0.74702953  0.75131010  1
  Te  Te81  1  0.41791334  0.06030551  0.09257703  1
  Te  Te82  1  0.41846510  0.07400033  0.42094970  1
  Te  Te83  1  0.40051121  0.09382917  0.72016726  1
  Te  Te84  1  0.41271773  0.42550154  0.08017412  1
  Te  Te85  1  0.41862677  0.42529631  0.42298741  1
  Te  Te86  1  0.41708834  0.42304000  0.77474064  1
  Te  Te87  1  0.44141966  0.77665252  0.12634184  1
  Te  Te88  1  0.44269635  0.68495486  0.38747314  1
  Te  Te89  1  0.42981215  0.75056646  0.73902324  1
  Te  Te90  1  0.77366189  0.05226627  0.12002665  1
  Te  Te91  1  0.71968564  0.03248656  0.37926223  1
  Te  Te92  1  0.74455113  0.08349692  0.74584336  1
  Te  Te93  1  0.79192344  0.46774807  0.05507500  1
  Te  Te94  1  0.76379003  0.43011905  0.40548715  1
  Te  Te95  1  0.76307023  0.41047682  0.76556935  1
  Te  Te96  1  0.75961236  0.72645385  0.12121298  1
  Te  Te97  1  0.75494824  0.74967808  0.40494869  1
  Te  Te98  1  0.76132726  0.73593356  0.75707313  1
  Te  Te99  1  0.08864156  0.26140393  0.23279253  1
  Te  Te100  1  0.09190677  0.24927047  0.57930470  1
  Te  Te101  1  0.08949024  0.27188697  0.92945416  1
  Te  Te102  1  0.05342676  0.63351543  0.21173779  1
  Te  Te103  1  0.09453049  0.59284360  0.57865620  1
  Te  Te104  1  0.07194753  0.58804028  0.91388442  1
  Te  Te105  1  0.07877182  0.90883233  0.25643236  1
  Te  Te106  1  0.09533853  0.92047348  0.58352258  1
  Te  Te107  1  0.10876453  0.89003060  0.94071536  1
  Te  Te108  1  0.42517467  0.22711020  0.26241712  1
  Te  Te109  1  0.40079318  0.25129792  0.60068252  1
  Te  Te110  1  0.41206760  0.23934716  0.89533546  1
  Te  Te111  1  0.40824915  0.61326766  0.24269303  1
  Te  Te112  1  0.43985291  0.60073576  0.57483062  1
  Te  Te113  1  0.40262695  0.60557315  0.94280427  1
  Te  Te114  1  0.40341698  0.86429456  0.26212485  1
  Te  Te115  1  0.40973437  0.88239583  0.58616996  1
  Te  Te116  1  0.43909786  0.91330524  0.93090482  1
  Te  Te117  1  0.74913870  0.24373802  0.24558853  1
  Te  Te118  1  0.73419559  0.23973938  0.57304319  1
  Te  Te119  1  0.75016457  0.26429984  0.92437392  1
  Te  Te120  1  0.73373894  0.60966737  0.25134183  1
  Te  Te121  1  0.75636442  0.60098650  0.55410457  1
  Te  Te122  1  0.76635831  0.61366397  0.91405459  1
  Te  Te123  1  0.73330527  0.94139161  0.25217024  1
  Te  Te124  1  0.76765635  0.89498082  0.59879724  1
  Te  Te125  1  0.75220049  0.92174738  0.92083429  1
  Te  Te126  1  0.24104647  0.27511691  0.08360510  1
  Te  Te127  1  0.25762013  0.26611680  0.41108841  1
  Te  Te128  1  0.22874327  0.25148060  0.77262114  1
  Te  Te129  1  0.23686615  0.61626919  0.09313621  1
  Te  Te130  1  0.24767608  0.59436384  0.39518263  1
  Te  Te131  1  0.28089187  0.56812419  0.76856633  1
  Te  Te132  1  0.26363327  0.87085107  0.10295355  1
  Te  Te133  1  0.24535621  0.91089651  0.40532009  1
  Te  Te134  1  0.25790877  0.91786779  0.76156278  1
  Te  Te135  1  0.59052102  0.25278482  0.08251757  1
  Te  Te136  1  0.57729159  0.23615583  0.41996639  1
  Te  Te137  1  0.55692980  0.23816335  0.74483629  1
  Te  Te138  1  0.57882238  0.57724858  0.10334417  1
  Te  Te139  1  0.59545120  0.65466319  0.39790700  1
  Te  Te140  1  0.59596997  0.57399323  0.73965212  1
  Te  Te141  1  0.60947756  0.86883222  0.09030315  1
  Te  Te142  1  0.56351069  0.89150539  0.39424180  1
  Te  Te143  1  0.57442092  0.91561159  0.75019404  1
  Te  Te144  1  0.92916939  0.26263820  0.05962699  1
  Te  Te145  1  0.90872053  0.25539850  0.42396238  1
  Te  Te146  1  0.90954930  0.25652976  0.76984617  1
  Te  Te147  1  0.97182886  0.58445846  0.09195711  1
  Te  Te148  1  0.95363399  0.58913931  0.42225537  1
  Te  Te149  1  0.91988867  0.58182534  0.75107259  1
  Te  Te150  1  0.92105998  0.91020455  0.09305384  1
  Te  Te151  1  0.91782706  0.91114672  0.40659539  1
  Te  Te152  1  0.93151694  0.89621926  0.74220781  1
  Te  Te153  1  0.24242632  0.08824503  0.24512545  1
  Te  Te154  1  0.28902520  0.05402152  0.61202264  1
  Te  Te155  1  0.27189954  0.08664677  0.90746754  1
  Te  Te156  1  0.22556510  0.41381763  0.24170962  1
  Te  Te157  1  0.24230605  0.42597514  0.58431609  1
  Te  Te158  1  0.23979836  0.43984129  0.92192908  1
  Te  Te159  1  0.25436156  0.74516022  0.20171575  1
  Te  Te160  1  0.29830816  0.77552564  0.54938393  1
  Te  Te161  1  0.27669785  0.74038979  0.94184727  1
  Te  Te162  1  0.55448969  0.06001539  0.25387143  1
  Te  Te163  1  0.55677097  0.08592333  0.59529675  1
  Te  Te164  1  0.58633048  0.07476299  0.92346316  1
  Te  Te165  1  0.57328903  0.42344969  0.26028658  1
  Te  Te166  1  0.60637392  0.42363960  0.57174343  1
  Te  Te167  1  0.57690813  0.40219378  0.90490969  1
  Te  Te168  1  0.55920117  0.77656490  0.21190638  1
  Te  Te169  1  0.56973598  0.77346796  0.58298622  1
  Te  Te170  1  0.57369575  0.74431957  0.92421394  1
  Te  Te171  1  0.92815312  0.06976265  0.26434893  1
  Te  Te172  1  0.91881584  0.06614072  0.59243940  1
  Te  Te173  1  0.91052266  0.08943881  0.92119431  1
  Te  Te174  1  0.91066490  0.43122728  0.23924462  1
  Te  Te175  1  0.93191364  0.44423026  0.58529147  1
  Te  Te176  1  0.89796220  0.41507405  0.94985120  1
  Te  Te177  1  0.91312443  0.72954595  0.24563245  1
  Te  Te178  1  0.90333867  0.74639612  0.56707353  1
  Te  Te179  1  0.91341708  0.73394533  0.93218452  1
