# generated using pymatgen
data_In2Te3
_symmetry_space_group_name_H-M   'P 1'
_cell_length_a   18.97044378
_cell_length_b   19.02258286
_cell_length_c   19.01875147
_cell_angle_alpha   90.20298886
_cell_angle_beta   89.93452863
_cell_angle_gamma   89.91103126
_symmetry_Int_Tables_number   1
_chemical_formula_structural   In2Te3
_chemical_formula_sum   'In72 Te108'
_cell_volume   6863.18084935
_cell_formula_units_Z   36
loop_
 _symmetry_equiv_pos_site_id
 _symmetry_equiv_pos_as_xyz
  1  'x, y, z'
loop_
 _atom_site_type_symbol
 _atom_site_label
 _atom_site_symmetry_multiplicity
 _atom_site_fract_x
 _atom_site_fract_y
 _atom_site_fract_z
 _atom_site_occupancy
  In  In0  1  0.00175744  0.16507952  0.16790372  1
  In  In1  1  0.84114523  0.50190306  0.00547099  1
  In  In2  1  0.14920896  0.84556827  0.27265725  1
  In  In3  1  0.01516660  0.33504261  0.00910223  1
  In  In4  1  0.50589843  0.35461986  0.15673019  1
  In  In5  1  0.81846648  0.03152426  0.47261072  1
  In  In6  1  0.34868184  0.48035201  0.53612227  1
  In  In7  1  0.85110588  0.19135890  0.33320733  1
  In  In8  1  -0.00703012  0.30192299  0.67957395  1
  In  In9  1  0.18024481  0.50693113  0.00119052  1
  In  In10  1  0.67662020  0.83578052  0.14109662  1
  In  In11  1  0.30832705  0.80958486  0.85676270  1
  In  In12  1  0.15634119  0.00664791  0.14814949  1
  In  In13  1  0.35831049  0.18388351  0.51811877  1
  In  In14  1  0.83557839  0.35617089  0.17452405  1
  In  In15  1  0.67643370  0.14091232  0.15619962  1
  In  In16  1  0.31901808  0.35917997  0.33926495  1
  In  In17  1  0.49676942  0.15558349  -0.01111049  1
  In  In18  1  0.33002641  0.86239723  0.48910361  1
  In  In19  1  0.48869832  0.82207497  0.00711345  1
  In  In20  1  0.50191740  0.50514382  0.31591459  1
  In  In21  1  0.48947767  0.02770018  0.50044745  1
  In  In22  1  0.66832026  0.63538251  0.66938121  1
  In  In23  1  0.65535977  0.83413097  0.48873242  1
  In  In24  1  0.65226420  -0.01551859  0.65790172  1
  In  In25  1  0.66940718  0.33433150  0.35816077  1
  In  In26  1  0.81803689  0.17807730  0.66794431  1
  In  In27  1  0.14209421  0.67998478  0.48898593  1
  In  In28  1  0.31611347  0.01141728  0.29221698  1
  In  In29  1  0.15935942  0.67206275  0.15573418  1
  In  In30  1  0.01497406  0.85640875  0.86800828  1
  In  In31  1  0.65324356  0.65486465  0.30249442  1
  In  In32  1  -0.00284212  0.01438573  0.67893684  1
  In  In33  1  0.81554444  0.80822330  0.66632992  1
  In  In34  1  -0.00051550  0.66347029  0.69138708  1
  In  In35  1  0.33739607  0.18468667  0.84862522  1
  In  In36  1  0.11728904  0.18829228  0.36813209  1
  In  In37  1  0.15673257  0.49672542  0.33681416  1
  In  In38  1  -0.02674850  0.69218492  0.32951815  1
  In  In39  1  0.51192308  0.84839871  0.31951248  1
  In  In40  1  0.52279962  0.65891102  0.48650854  1
  In  In41  1  -0.02726183  0.49354252  0.82394358  1
  In  In42  1  0.18082455  0.17469206  0.01707290  1
  In  In43  1  0.15581720  0.03514135  0.48281736  1
  In  In44  1  0.82060308  0.81972710  0.30310323  1
  In  In45  1  0.31687148  0.82737877  0.14557393  1
  In  In46  1  0.81288390  0.49841664  0.33380760  1
  In  In47  1  0.16716374  0.14246326  0.69491500  1
  In  In48  1  0.67254880  0.34755549  0.67754915  1
  In  In49  1  0.48199130  0.66648664  0.84010890  1
  In  In50  1  0.34387274  0.16083932  0.16370668  1
  In  In51  1  0.69078610  -0.00525559  -0.01084946  1
  In  In52  1  0.85678469  -0.00050401  0.83563323  1
  In  In53  1  0.65988568  0.48067434  0.83514534  1
  In  In54  1  0.63975831  0.64211220  0.01015338  1
  In  In55  1  0.34107225  -0.01786110  0.68483990  1
  In  In56  1  0.15844394  0.33799317  0.53515512  1
  In  In57  1  0.70174759  0.29685414  -0.01387803  1
  In  In58  1  0.34854780  0.63856541  0.34496161  1
  In  In59  1  0.16884571  0.33932334  0.82916121  1
  In  In60  1  0.84706516  0.84694287  0.00499338  1
  In  In61  1  0.31817248  0.64574317  0.68585696  1
  In  In62  1  0.16550764  0.82557797  0.68635706  1
  In  In63  1  0.52377855  0.19227272  0.67955763  1
  In  In64  1  -0.00085627  0.49778843  0.53621567  1
  In  In65  1  0.51663782  -0.00926232  0.83692067  1
  In  In66  1  0.53135346  0.18202666  0.31360908  1
  In  In67  1  0.81732073  0.64858796  0.51921378  1
  In  In68  1  -0.01661343  0.87044126  0.50517145  1
  In  In69  1  -0.00324262  0.66445003  0.01356638  1
  In  In70  1  0.36195585  0.47519905  0.82408430  1
  In  In71  1  0.17775464  0.34093343  0.16716815  1
  Te  Te72  1  0.05953938  0.08069407  0.05026617  1
  Te  Te73  1  0.03765852  0.06697857  0.40033081  1
  Te  Te74  1  0.07969034  0.06962344  0.78555440  1
  Te  Te75  1  0.08392163  0.43679865  0.09692692  1
  Te  Te76  1  0.07626987  0.41266743  0.43236747  1
  Te  Te77  1  0.07378529  0.41603851  0.74137666  1
  Te  Te78  1  0.10647777  0.76468330  0.04996667  1
  Te  Te79  1  0.07406006  0.78754082  0.40460543  1
  Te  Te80  1  0.09687880  0.73514991  0.78400407  1
  Te  Te81  1  0.39454773  0.07326387  0.05799249  1
  Te  Te82  1  0.39539458  0.08985563  0.39930940  1
  Te  Te83  1  0.42795123  0.08927468  0.74780835  1
  Te  Te84  1  0.46048737  0.45056749  0.05534617  1
  Te  Te85  1  0.42794127  0.42213479  0.42228002  1
  Te  Te86  1  0.44767666  0.39867076  0.72212423  1
  Te  Te87  1  0.38759040  0.72910422  0.06063884  1
  Te  Te88  1  0.42891434  0.76298859  0.41627850  1
  Te  Te89  1  0.39962387  0.75685981  0.74729636  1
  Te  Te90  1  0.78267367  0.06534081  0.08307197  1
  Te  Te91  1  0.73613575  0.12315276  0.39723011  1
  Te  Te92  1  0.75499814  0.05933776  0.73946734  1
  Te  Te93  1  0.73715893  0.41501064  0.07444773  1
  Te  Te94  1  0.78602529  0.38932214  0.42890531  1
  Te  Te95  1  0.77070585  0.42858386  0.75312888  1
  Te  Te96  1  0.75362443  0.73869567  0.05815352  1
  Te  Te97  1  0.74269598  0.73546710  0.41298370  1
  Te  Te98  1  0.75181795  0.71771290  0.75908109  1
  Te  Te99  1  0.07308339  0.27332102  0.24961257  1
  Te  Te100  1  0.08600424  0.21758651  0.59246400  1
  Te  Te101  1  0.08980188  0.24383728  0.91428198  1
  Te  Te102  1  0.07759316  0.60086314  0.26143042  1
  Te  Te103  1  0.10104480  0.59031476  0.60267619  1
  Te  Te104  1  0.06560897  0.56474519  0.92052379  1
  Te  Te105  1  0.04519858  0.93754517  0.22212001  1
  Te  Te106  1  0.10097611  0.92834170  0.58599119  1
  Te  Te107  1  0.07882296  0.93584307  0.97157823  1
  Te  Te108  1  0.41107971  0.26961703  0.25511858  1
  Te  Te109  1  0.43490143  0.28482631  0.59931400  1
  Te  Te110  1  0.43410145  0.26830205  0.91848247  1
  Te  Te111  1  0.42922081  0.59797838  0.23037801  1
  Te  Te112  1  0.42511197  0.59787092  0.58990358  1
  Te  Te113  1  0.43716944  0.55457176  0.92677002  1
  Te  Te114  1  0.41256947  0.91672137  0.22562635  1
  Te  Te115  1  0.43493709  0.91424906  0.58578969  1
  Te  Te116  1  0.41201379  0.90926487  0.91056001  1
  Te  Te117  1  0.73699073  0.25523919  0.23831080  1
  Te  Te118  1  0.75458509  0.27403288  0.57685438  1
  Te  Te119  1  0.79038487  0.21951648  0.89450644  1
  Te  Te120  1  0.76549378  0.59282023  0.23220285  1
  Te  Te121  1  0.73628199  0.54362790  0.57686819  1
  Te  Te122  1  0.74309810  0.57781143  0.91905958  1
  Te  Te123  1  0.72928228  0.91869218  0.24902365  1
  Te  Te124  1  0.76277934  0.91043461  0.56675809  1
  Te  Te125  1  0.75818155  0.89989353  0.89316226  1
  Te  Te126  1  0.27986455  0.27150459  0.08093908  1
  Te  Te127  1  0.25187974  0.25992479  0.43121287  1
  Te  Te128  1  0.25842291  0.25393263  0.73989102  1
  Te  Te129  1  0.26311621  0.60178100  0.07802745  1
  Te  Te130  1  0.24572373  0.57371482  0.43665388  1
  Te  Te131  1  0.25467232  0.57074369  0.79084272  1
  Te  Te132  1  0.23396149  0.91625218  0.06114398  1
  Te  Te133  1  0.23422842  0.93110838  0.39275300  1
  Te  Te134  1  0.23650357  0.92421545  0.77573792  1
  Te  Te135  1  0.58359490  0.24514766  0.08497621  1
  Te  Te136  1  0.56290339  0.26225849  0.42945591  1
  Te  Te137  1  0.61736762  0.25005788  0.77772632  1
  Te  Te138  1  0.56496401  0.55362972  0.09844516  1
  Te  Te139  1  0.60770240  0.56062332  0.41373647  1
  Te  Te140  1  0.56381055  0.56902738  0.75576270  1
  Te  Te141  1  0.58013953  0.92705770  0.06828349  1
  Te  Te142  1  0.58458920  0.94303316  0.41257656  1
  Te  Te143  1  0.58822577  0.89556985  0.75245455  1
  Te  Te144  1  0.91192304  0.25759979  0.08655290  1
  Te  Te145  1  0.97337599  0.21732045  0.41494929  1
  Te  Te146  1  0.90926022  0.22571852  0.77611439  1
  Te  Te147  1  0.90927819  0.58737047  0.10361144  1
  Te  Te148  1  0.92861625  0.58770079  0.43004954  1
  Te  Te149  1  0.88937652  0.57948516  0.73852808  1
  Te  Te150  1  0.93181600  0.89252183  0.11596997  1
  Te  Te151  1  0.89218012  0.92034541  0.39705393  1
  Te  Te152  1  0.92818676  0.89135085  0.73891878  1
  Te  Te153  1  0.21649309  0.11454997  0.24524821  1
  Te  Te154  1  0.26975227  0.07663224  0.58268795  1
  Te  Te155  1  0.26453352  0.08861503  0.93145560  1
  Te  Te156  1  0.26023632  0.45040260  0.23492872  1
  Te  Te157  1  0.24725996  0.41814887  0.61893484  1
  Te  Te158  1  0.26293586  0.40629254  0.92463118  1
  Te  Te159  1  0.25859276  0.74091190  0.26915855  1
  Te  Te160  1  0.24768533  0.76264214  0.56947195  1
  Te  Te161  1  0.19247636  0.74739213  0.92144584  1
  Te  Te162  1  0.56659845  0.07247484  0.22656324  1
  Te  Te163  1  0.59522843  0.10064793  0.58002070  1
  Te  Te164  1  0.60739810  0.08966406  0.90643446  1
  Te  Te165  1  0.60650156  0.41987332  0.24863449  1
  Te  Te166  1  0.55072450  0.41063831  0.61644208  1
  Te  Te167  1  0.59679129  0.36118747  0.90016402  1
  Te  Te168  1  0.57227907  0.75143972  0.22077832  1
  Te  Te169  1  0.59011377  0.74608294  0.59000133  1
  Te  Te170  1  0.58396171  0.74818792  0.91623704  1
  Te  Te171  1  0.89879984  0.08937480  0.23796274  1
  Te  Te172  1  0.91072258  0.08710545  0.58197421  1
  Te  Te173  1  0.86928592  0.09783508  0.94452493  1
  Te  Te174  1  0.92199483  0.42230136  0.27105394  1
  Te  Te175  1  0.91645938  0.39031901  0.59008783  1
  Te  Te176  1  0.90917951  0.39668404  0.91955982  1
  Te  Te177  1  0.92568583  0.76674995  0.20821782  1
  Te  Te178  1  0.93179122  0.74528900  0.57414019  1
  Te  Te179  1  0.92066970  0.74821309  0.91211531  1
