# generated using pymatgen
data_In2Te3
_symmetry_space_group_name_H-M   'P 1'
_cell_length_a   18.89699497
_cell_length_b   18.87900067
_cell_length_c   18.90493542
_cell_angle_alpha   90.10511993
_cell_angle_beta   90.19520481
_cell_angle_gamma   90.09077109
_symmetry_Int_Tables_number   1
_chemical_formula_structural   In2Te3
_chemical_formula_sum   'In72 Te108'
_cell_volume   6744.39731355
_cell_formula_units_Z   36
loop_
 _symmetry_equiv_pos_site_id
 _symmetry_equiv_pos_as_xyz
  1  'x, y, z'
loop_
 _atom_site_type_symbol
 _atom_site_label
 _atom_site_symmetry_multiplicity
 _atom_site_fract_x
 _atom_site_fract_y
 _atom_site_fract_z
 _atom_site_occupancy
  In  In0  1  0.83876346  0.14014727  0.35942668  1
  In  In1  1  0.64265086  0.18355083  0.18131951  1
  In  In2  1  0.68119621  0.32131882  0.00157166  1
  In  In3  1  0.14727349  0.16831416  0.35515868  1
  In  In4  1  0.31157274  0.49115235  0.49531506  1
  In  In5  1  -0.01903605  0.47845898  0.52718749  1
  In  In6  1  0.32974108  0.16169899  0.49745581  1
  In  In7  1  0.85227887  0.67422125  0.18106322  1
  In  In8  1  0.47867309  0.83739786  0.33058195  1
  In  In9  1  0.18222566  0.69279139  0.18447411  1
  In  In10  1  0.33144715  0.33667330  0.32715435  1
  In  In11  1  0.48859013  0.16402151  0.66720810  1
  In  In12  1  0.68472680  0.48031056  0.83156666  1
  In  In13  1  0.91402951  0.65699267  0.78424744  1
  In  In14  1  0.32178304  0.50609365  0.17017401  1
  In  In15  1  -0.00458690  0.85752339  0.47358230  1
  In  In16  1  0.16064759  0.64134938  0.49309775  1
  In  In17  1  0.14977174  0.33334710  0.79811786  1
  In  In18  1  0.16364929  0.48603828  0.00213802  1
  In  In19  1  0.82890991  0.02125617  0.18453080  1
  In  In20  1  0.49699493  0.31959357  0.83678681  1
  In  In21  1  0.14210873  0.80588105  0.67956955  1
  In  In22  1  0.65379825  0.67481035  0.35310727  1
  In  In23  1  0.32254686  0.31992538  0.65636183  1
  In  In24  1  0.68991843  0.02356665  0.64365371  1
  In  In25  1  0.67264240  0.47634139  0.49844103  1
  In  In26  1  0.52842222  0.83344550  0.67863998  1
  In  In27  1  -0.02461161  0.18002026  0.17369759  1
  In  In28  1  0.31349554  0.65221539  0.67677314  1
  In  In29  1  0.70264066  0.28218972  0.65603730  1
  In  In30  1  0.82683625  0.47594238  -0.04101780  1
  In  In31  1  0.00143698  -0.01593728  -0.00160178  1
  In  In32  1  0.63629046  0.50707617  0.17951765  1
  In  In33  1  0.34488156  0.16353682  0.15491564  1
  In  In34  1  0.12993566  0.33095877  0.54206768  1
  In  In35  1  0.69156887  0.68063518  0.66029590  1
  In  In36  1  0.51056011  0.65863757  0.84415434  1
  In  In37  1  0.67293604  0.85820557  0.53314289  1
  In  In38  1  0.33388495  -0.00928082  0.01527759  1
  In  In39  1  0.32332209  0.51703524  0.83356582  1
  In  In40  1  0.18081335  0.16459389  -0.01074107  1
  In  In41  1  0.84797717  0.84322683  0.65666426  1
  In  In42  1  -0.00748574  0.02609391  0.64934272  1
  In  In43  1  0.83462419  0.66090370  0.49598202  1
  In  In44  1  0.00878991  0.68421957  0.32081965  1
  In  In45  1  0.33194155  0.00200046  0.65430488  1
  In  In46  1  0.31560956  0.82778627  0.84488117  1
  In  In47  1  0.45825990  0.82344841  0.04864929  1
  In  In48  1  0.51961698  0.18364845  0.36258355  1
  In  In49  1  0.16969414  0.00557337  0.17831806  1
  In  In50  1  0.14386769  0.82454309  -0.00807904  1
  In  In51  1  -0.00500436  0.17660032  0.80056078  1
  In  In52  1  0.82651384  0.81135894  -0.00440257  1
  In  In53  1  0.35615507  0.32441698  0.00093227  1
  In  In54  1  0.82968612  0.15524264  0.00858806  1
  In  In55  1  0.00549571  0.34302791  0.33798097  1
  In  In56  1  0.67891473  0.85624827  0.19167230  1
  In  In57  1  0.80976688  0.48272139  0.36363359  1
  In  In58  1  0.49621722  -0.00120579  0.50432516  1
  In  In59  1  0.64969137  0.88438617  0.83860211  1
  In  In60  1  0.48857440  0.49438553  0.32112245  1
  In  In61  1  0.01266103  0.86027030  0.19428581  1
  In  In62  1  0.50332215  0.49334971  0.64743258  1
  In  In63  1  0.00520494  0.65178662  -0.01727145  1
  In  In64  1  0.46556314  0.50473967  0.00437690  1
  In  In65  1  0.81183926  0.00462784  0.81689607  1
  In  In66  1  0.86295091  0.31563549  0.82629840  1
  In  In67  1  0.01046092  0.52064057  0.15360469  1
  In  In68  1  0.49385423  -0.00869529  0.18513236  1
  In  In69  1  0.67432135  0.64112506  -0.02024161  1
  In  In70  1  0.83479944  0.32911021  0.16713367  1
  In  In71  1  0.31030497  0.84846817  0.46667944  1
  Te  Te72  1  0.07154650  0.08838721  0.08810509  1
  Te  Te73  1  0.11749388  0.05896568  0.45181081  1
  Te  Te74  1  0.09555785  0.08956212  0.73826014  1
  Te  Te75  1  0.07106843  0.40737313  0.08529108  1
  Te  Te76  1  0.08972479  0.42844511  0.43036670  1
  Te  Te77  1  0.04083514  0.41130254  0.73302533  1
  Te  Te78  1  0.05409137  0.74706799  0.10026804  1
  Te  Te79  1  0.09988491  0.75868330  0.41459104  1
  Te  Te80  1  0.04324267  0.73791852  0.76658602  1
  Te  Te81  1  0.44184967  0.08159978  0.07235690  1
  Te  Te82  1  0.41277728  0.07621463  0.40466448  1
  Te  Te83  1  0.39715950  0.08903775  0.75444035  1
  Te  Te84  1  0.42505926  0.40637665  0.11007661  1
  Te  Te85  1  0.42111005  0.40960827  0.42773421  1
  Te  Te86  1  0.41676648  0.42026363  0.75042774  1
  Te  Te87  1  0.38695129  0.73483484  0.14056366  1
  Te  Te88  1  0.39913407  0.74431521  0.41297145  1
  Te  Te89  1  0.42444198  0.74267439  0.74941739  1
  Te  Te90  1  0.72565568  0.08599014  0.09219310  1
  Te  Te91  1  0.72169892  0.12187585  0.45035037  1
  Te  Te92  1  0.78120737  0.11535387  0.72166585  1
  Te  Te93  1  0.74268375  0.43043955  0.09100121  1
  Te  Te94  1  0.75817109  0.36590886  0.44099220  1
  Te  Te95  1  0.76772962  0.39833902  0.73857006  1
  Te  Te96  1  0.73840707  0.73844058  0.09628856  1
  Te  Te97  1  0.74766243  0.76487480  0.43090675  1
  Te  Te98  1  0.74033367  0.79136883  0.75039932  1
  Te  Te99  1  0.08724262  0.25741613  0.24249355  1
  Te  Te100  1  0.07777903  0.20242859  0.59694955  1
  Te  Te101  1  0.08331315  0.24740524  0.90656183  1
  Te  Te102  1  0.10236449  0.58296967  0.25703236  1
  Te  Te103  1  0.06121567  0.58825722  0.59055159  1
  Te  Te104  1  0.09001559  0.56547124  0.89991579  1
  Te  Te105  1  0.11405109  0.91689749  0.28673347  1
  Te  Te106  1  0.07751176  0.91221056  0.58937082  1
  Te  Te107  1  0.09922616  0.93319669  0.90175444  1
  Te  Te108  1  0.42787148  0.24483981  0.25488583  1
  Te  Te109  1  0.42670088  0.25914175  0.56548424  1
  Te  Te110  1  0.41569938  0.22373223  0.91179647  1
  Te  Te111  1  0.42233655  0.59656992  0.23639713  1
  Te  Te112  1  0.40720148  0.58554412  0.57766190  1
  Te  Te113  1  0.39280184  0.61524114  0.93003758  1
  Te  Te114  1  0.38091233  0.91666076  0.24741357  1
  Te  Te115  1  0.41704618  0.89349827  0.58205834  1
  Te  Te116  1  0.42412866  0.90077821  0.92159650  1
  Te  Te117  1  0.76378362  0.23537473  0.25886726  1
  Te  Te118  1  0.78566845  0.18884854  0.56880848  1
  Te  Te119  1  0.75277075  0.23561537  0.90345065  1
  Te  Te120  1  0.74736265  0.58903901  0.26196677  1
  Te  Te121  1  0.76187586  0.56632789  0.58924231  1
  Te  Te122  1  0.77804479  0.60024951  0.87404199  1
  Te  Te123  1  0.75597290  0.94064662  0.28502214  1
  Te  Te124  1  0.79956904  0.95169463  0.55179676  1
  Te  Te125  1  0.75657350  0.93494323  0.94219593  1
  Te  Te126  1  0.24826587  0.25895472  0.08750406  1
  Te  Te127  1  0.23660550  0.26984944  0.43560903  1
  Te  Te128  1  0.24931157  0.23685586  0.75136569  1
  Te  Te129  1  0.23715406  0.59582906  0.07962500  1
  Te  Te130  1  0.26279148  0.59177634  0.40023913  1
  Te  Te131  1  0.21412270  0.57903192  0.75587162  1
  Te  Te132  1  0.23519524  0.90192123  0.08758695  1
  Te  Te133  1  0.22281659  0.95237559  0.41126322  1
  Te  Te134  1  0.24363568  0.90552857  0.73858966  1
  Te  Te135  1  0.57266201  0.25929250  0.07561983  1
  Te  Te136  1  0.61098607  0.29505741  0.39608893  1
  Te  Te137  1  0.59313739  0.23480601  0.75528263  1
  Te  Te138  1  0.56680382  0.59626808  0.07791632  1
  Te  Te139  1  0.57550897  0.56949549  0.42709774  1
  Te  Te140  1  0.59505494  0.58083282  0.74354313  1
  Te  Te141  1  0.57860823  0.90904635  0.08774760  1
  Te  Te142  1  0.58518124  0.91029300  0.42042288  1
  Te  Te143  1  0.56861637  0.97495077  0.73041314  1
  Te  Te144  1  0.92062938  0.26769952  0.05927344  1
  Te  Te145  1  0.94045548  0.23670603  0.42086979  1
  Te  Te146  1  0.94698470  0.28885199  0.69427479  1
  Te  Te147  1  0.89240774  0.58163540  0.06540353  1
  Te  Te148  1  0.92642770  0.58288981  0.40194312  1
  Te  Te149  1  0.94796929  0.53596262  0.70728387  1
  Te  Te150  1  0.90219595  0.91332276  0.09170283  1
  Te  Te151  1  0.89080434  0.94965898  0.42727844  1
  Te  Te152  1  0.92703859  0.93015494  0.75300835  1
  Te  Te153  1  0.25186875  0.10515737  0.25880038  1
  Te  Te154  1  0.23243211  0.08401136  0.57835533  1
  Te  Te155  1  0.24152725  0.05266578  0.91760102  1
  Te  Te156  1  0.23676925  0.41803112  0.25133400  1
  Te  Te157  1  0.22969692  0.42941493  0.60780907  1
  Te  Te158  1  0.25942050  0.39960290  0.90721226  1
  Te  Te159  1  0.28401714  0.78096026  0.24796545  1
  Te  Te160  1  0.24533906  0.74869386  0.57878453  1
  Te  Te161  1  0.22744190  0.73363833  0.91240372  1
  Te  Te162  1  0.58449917  0.07665639  0.27289784  1
  Te  Te163  1  0.58734848  0.10729964  0.55918397  1
  Te  Te164  1  0.61772827  0.02788551  0.86663779  1
  Te  Te165  1  0.60034168  0.40017521  0.27712079  1
  Te  Te166  1  0.60013509  0.38813325  0.60128809  1
  Te  Te167  1  0.57551482  0.42878873  0.92366471  1
  Te  Te168  1  0.58056751  0.75424030  0.24795147  1
  Te  Te169  1  0.58306398  0.73853089  0.57155004  1
  Te  Te170  1  0.60064543  0.75715551  0.91543512  1
  Te  Te171  1  0.94579730  0.06977320  0.27222349  1
  Te  Te172  1  0.95651536  0.12534495  0.54203277  1
  Te  Te173  1  0.92213930  0.08470714  0.90958823  1
  Te  Te174  1  0.91321582  0.43271351  0.24960803  1
  Te  Te175  1  0.89992717  0.36313659  0.56692119  1
  Te  Te176  1  0.94458831  0.42224012  0.89197749  1
  Te  Te177  1  0.90398032  0.78351811  0.27270246  1
  Te  Te178  1  0.93078063  0.75067104  0.57027743  1
  Te  Te179  1  0.93312390  0.76251724  0.90294513  1
