# generated using pymatgen
data_In2Te3
_symmetry_space_group_name_H-M   'P 1'
_cell_length_a   18.87591376
_cell_length_b   18.87699388
_cell_length_c   18.89687578
_cell_angle_alpha   90.12145865
_cell_angle_beta   90.00795560
_cell_angle_gamma   89.95597672
_symmetry_Int_Tables_number   1
_chemical_formula_structural   In2Te3
_chemical_formula_sum   'In72 Te108'
_cell_volume   6733.32720735
_cell_formula_units_Z   36
loop_
 _symmetry_equiv_pos_site_id
 _symmetry_equiv_pos_as_xyz
  1  'x, y, z'
loop_
 _atom_site_type_symbol
 _atom_site_label
 _atom_site_symmetry_multiplicity
 _atom_site_fract_x
 _atom_site_fract_y
 _atom_site_fract_z
 _atom_site_occupancy
  In  In0  1  0.01491731  0.85003721  0.17351588  1
  In  In1  1  0.66713896  0.83021045  0.84003724  1
  In  In2  1  0.85144138  0.50641352  0.68566594  1
  In  In3  1  0.50521662  0.19555779  0.01680825  1
  In  In4  1  0.00629372  0.34674465  0.66381730  1
  In  In5  1  0.50414460  0.47755249  -0.00544848  1
  In  In6  1  0.00521419  0.65873207  0.34580793  1
  In  In7  1  0.14815474  0.83463969  0.32428403  1
  In  In8  1  0.51204277  0.83602560  0.33432518  1
  In  In9  1  -0.00337567  0.20374287  0.52060701  1
  In  In10  1  0.50608782  0.64159744  0.48067826  1
  In  In11  1  0.49242766  0.02614989  0.14891057  1
  In  In12  1  0.19386476  0.63117969  0.54134072  1
  In  In13  1  0.17195132  0.67997319  0.15215813  1
  In  In14  1  0.64503597  0.83042991  0.16243732  1
  In  In15  1  0.67501669  0.67564266  0.65579415  1
  In  In16  1  0.01068520  0.46734909  0.13798214  1
  In  In17  1  0.67527506  0.02317327  0.04257466  1
  In  In18  1  0.32856300  0.81651862  0.51202760  1
  In  In19  1  0.83052726  0.32406028  0.85574373  1
  In  In20  1  0.36097267  0.31716227  0.30995515  1
  In  In21  1  0.50491347  0.16000941  0.65935408  1
  In  In22  1  0.47132591  0.83884106  0.67278819  1
  In  In23  1  0.68222277  0.83182134  0.49870603  1
  In  In24  1  -0.01237148  0.84115130  0.51531440  1
  In  In25  1  0.34627225  0.16815370  0.49640212  1
  In  In26  1  0.01177674  0.48410158  0.85014660  1
  In  In27  1  0.84253529  0.82686612  -0.01168393  1
  In  In28  1  0.49534563  0.33412803  0.48927312  1
  In  In29  1  0.14248972  0.17383638  0.66596272  1
  In  In30  1  0.63337613  0.16680250  0.48428468  1
  In  In31  1  0.01668807  0.50329671  0.49314726  1
  In  In32  1  -0.00478248  -0.01414339  0.68522511  1
  In  In33  1  0.49179826  0.00530358  0.84141537  1
  In  In34  1  0.30914708  0.17694257  0.86201234  1
  In  In35  1  0.32216745  -0.00648105  -0.00892321  1
  In  In36  1  0.31778789  0.32472684  0.00868849  1
  In  In37  1  0.65713438  0.49523431  0.84268238  1
  In  In38  1  0.83109247  -0.01970968  0.49754888  1
  In  In39  1  0.31891609  0.82544706  0.82315516  1
  In  In40  1  0.84162194  0.62348111  0.15953433  1
  In  In41  1  0.49952773  0.49552209  0.32701702  1
  In  In42  1  0.16661708  0.82963066  -0.00869904  1
  In  In43  1  0.00746777  0.81086437  0.83205496  1
  In  In44  1  0.16531797  0.19160986  0.30040232  1
  In  In45  1  0.83311917  0.18842405  0.31107294  1
  In  In46  1  0.49609509  0.68027652  0.16829453  1
  In  In47  1  -0.00537736  0.05337425  0.30983121  1
  In  In48  1  0.49432419  0.63875101  0.83945081  1
  In  In49  1  0.17233908  0.63884157  0.82371434  1
  In  In50  1  0.15947998  -0.00593693  0.48450466  1
  In  In51  1  0.66661416  0.01563595  0.30430517  1
  In  In52  1  0.82846439  0.83241112  0.33603352  1
  In  In53  1  0.66389252  0.31382518  0.64919918  1
  In  In54  1  0.66899758  0.18918295  0.83183186  1
  In  In55  1  0.83176062  0.34463013  0.14313851  1
  In  In56  1  0.85175241  0.65436138  0.50366145  1
  In  In57  1  0.67242185  0.47929935  0.16480944  1
  In  In58  1  -0.00595967  0.02117850  0.01338321  1
  In  In59  1  0.32116321  0.51044647  0.15890061  1
  In  In60  1  0.68313520  0.65599429  -0.01214322  1
  In  In61  1  0.34004944  0.82146244  0.15918650  1
  In  In62  1  0.34370799  0.04111951  0.33576612  1
  In  In63  1  0.80453554  0.35455841  0.46129187  1
  In  In64  1  0.45664968  0.47434575  0.65401023  1
  In  In65  1  0.82529429  0.15901097  0.68034227  1
  In  In66  1  0.18065261  0.50370165  0.32805758  1
  In  In67  1  0.00080613  0.19598232  0.14452465  1
  In  In68  1  0.84961906  0.81688027  0.68596598  1
  In  In69  1  0.32139184  -0.02397545  0.67129347  1
  In  In70  1  0.18132906  0.35193139  0.83732484  1
  In  In71  1  0.00817972  0.17187237  0.87080961  1
  Te  Te72  1  0.09749589  0.09983373  0.08573049  1
  Te  Te73  1  0.08148270  0.11018483  0.42415716  1
  Te  Te74  1  0.07986990  0.08210682  0.76865776  1
  Te  Te75  1  0.10425466  0.37351471  0.06909852  1
  Te  Te76  1  0.10027856  0.41381223  0.41366781  1
  Te  Te77  1  0.10640886  0.43489777  0.73328989  1
  Te  Te78  1  0.06404611  0.74964113  0.07100976  1
  Te  Te79  1  0.08649559  0.75054143  0.43585691  1
  Te  Te80  1  0.11167093  0.75100351  0.74614605  1
  Te  Te81  1  0.39178435  0.10656421  0.06928273  1
  Te  Te82  1  0.44949452  0.09236679  0.42365224  1
  Te  Te83  1  0.39881143  0.08706702  0.75293217  1
  Te  Te84  1  0.41365453  0.40697324  0.09519650  1
  Te  Te85  1  0.39750121  0.42348983  0.41508435  1
  Te  Te86  1  0.37845956  0.44527440  0.77710877  1
  Te  Te87  1  0.40251883  0.72765858  0.06587656  1
  Te  Te88  1  0.41762925  0.74454760  0.40992975  1
  Te  Te89  1  0.40593489  0.72625777  0.74634067  1
  Te  Te90  1  0.73246237  0.11946098  0.13773815  1
  Te  Te91  1  0.76584645  0.08246807  0.40658579  1
  Te  Te92  1  0.73049177  0.07869581  0.75623267  1
  Te  Te93  1  0.75296117  0.43231851  0.05101388  1
  Te  Te94  1  0.71006507  0.42691705  0.37715097  1
  Te  Te95  1  0.75598919  0.39571880  0.74397051  1
  Te  Te96  1  0.75370401  0.74305089  0.09500847  1
  Te  Te97  1  0.75147305  0.72740932  0.41388077  1
  Te  Te98  1  0.75822789  0.72927713  0.77065611  1
  Te  Te99  1  0.05221581  0.27682073  0.25831166  1
  Te  Te100  1  0.11450976  0.28873676  0.56952624  1
  Te  Te101  1  0.09685840  0.27544722  0.93934416  1
  Te  Te102  1  0.08249055  0.58406880  0.23857942  1
  Te  Te103  1  0.07870701  0.56920750  0.60840955  1
  Te  Te104  1  0.10243712  0.56845637  0.93523171  1
  Te  Te105  1  0.09579770  0.95594187  0.24725057  1
  Te  Te106  1  0.09575214  0.91213732  0.59607532  1
  Te  Te107  1  0.06709081  0.91882688  0.92223712  1
  Te  Te108  1  0.45584596  0.23072300  0.23365420  1
  Te  Te109  1  0.41139105  0.26224307  0.59571955  1
  Te  Te110  1  0.42227298  0.26535198  0.90986040  1
  Te  Te111  1  0.40698701  0.59265776  0.25447758  1
  Te  Te112  1  0.40757434  0.59694559  0.58092404  1
  Te  Te113  1  0.40174674  0.55985334  0.92404515  1
  Te  Te114  1  0.42356415  0.92063419  0.24392892  1
  Te  Te115  1  0.41926936  0.93069232  0.56369611  1
  Te  Te116  1  0.41562720  0.89878727  0.91771244  1
  Te  Te117  1  0.73340732  0.25372168  0.22074967  1
  Te  Te118  1  0.76403559  0.23645432  0.56350855  1
  Te  Te119  1  0.75171014  0.23539704  0.94554564  1
  Te  Te120  1  0.75501788  0.56010541  0.25903429  1
  Te  Te121  1  0.75413624  0.56853837  0.58264104  1
  Te  Te122  1  0.76768538  0.55943487  0.91597370  1
  Te  Te123  1  0.75290826  0.91360800  0.23219410  1
  Te  Te124  1  0.75481639  0.90861816  0.60776087  1
  Te  Te125  1  0.73660943  0.92358834  0.93755282  1
  Te  Te126  1  0.20253170  0.25306840  0.07257869  1
  Te  Te127  1  0.26000811  0.25302693  0.40609705  1
  Te  Te128  1  0.24886975  0.25180230  0.74326474  1
  Te  Te129  1  0.21623354  0.56553775  0.06792282  1
  Te  Te130  1  0.25897005  0.59295408  0.41601384  1
  Te  Te131  1  0.27130938  0.55641778  0.74273703  1
  Te  Te132  1  0.24022063  0.91492202  0.09419597  1
  Te  Te133  1  0.26164998  0.91649886  0.40300768  1
  Te  Te134  1  0.23264065  0.93607752  0.77961409  1
  Te  Te135  1  0.56639039  0.27128539  0.12900077  1
  Te  Te136  1  0.60656032  0.28439659  0.40183566  1
  Te  Te137  1  0.56357043  0.26611241  0.75307509  1
  Te  Te138  1  0.58285048  0.58564903  0.08305924  1
  Te  Te139  1  0.60654581  0.55169527  0.41687450  1
  Te  Te140  1  0.58701774  0.57683718  0.73406131  1
  Te  Te141  1  0.56523802  0.91757421  0.06927379  1
  Te  Te142  1  0.60135711  0.92869503  0.41532349  1
  Te  Te143  1  0.57656450  0.91600901  0.75084632  1
  Te  Te144  1  0.90317057  0.25249006  0.04729509  1
  Te  Te145  1  0.91971684  0.27078558  0.40682088  1
  Te  Te146  1  0.93100244  0.24653120  0.75019365  1
  Te  Te147  1  0.94027221  0.57515349  0.06478469  1
  Te  Te148  1  0.90743727  0.55665149  0.40054955  1
  Te  Te149  1  0.93228671  0.58674449  0.77641625  1
  Te  Te150  1  0.90833652  0.91921615  0.09016322  1
  Te  Te151  1  0.93967530  0.92675396  0.39420328  1
  Te  Te152  1  0.90083678  0.92163739  0.78166120  1
  Te  Te153  1  0.26089400  0.10327206  0.23334760  1
  Te  Te154  1  0.24176069  0.08460196  0.58032740  1
  Te  Te155  1  0.22121455  0.08337195  0.93079065  1
  Te  Te156  1  0.25345665  0.40036889  0.23939883  1
  Te  Te157  1  0.30431132  0.46277846  0.62409774  1
  Te  Te158  1  0.26311707  0.43850488  0.92766147  1
  Te  Te159  1  0.25386847  0.74546250  0.26156469  1
  Te  Te160  1  0.23762092  0.75609113  0.61038772  1
  Te  Te161  1  0.25479027  0.72965602  0.92123067  1
  Te  Te162  1  0.55736541  0.10757550  0.25810335  1
  Te  Te163  1  0.60759862  0.07636876  0.59516562  1
  Te  Te164  1  0.58081832  0.09012052  0.93150572  1
  Te  Te165  1  0.55680374  0.40245505  0.22341225  1
  Te  Te166  1  0.58300629  0.42000315  0.57999526  1
  Te  Te167  1  0.60065972  0.38925790  0.92701918  1
  Te  Te168  1  0.60088372  0.73117020  0.26845557  1
  Te  Te169  1  0.57273015  0.75815842  0.57671650  1
  Te  Te170  1  0.57536445  0.74105284  0.92167372  1
  Te  Te171  1  0.89052485  0.08884997  0.20933144  1
  Te  Te172  1  0.92783594  0.07533521  0.57886992  1
  Te  Te173  1  0.89697184  0.09473314  0.92889674  1
  Te  Te174  1  0.92466709  0.40710704  0.24160054  1
  Te  Te175  1  0.90235607  0.41119385  0.57380646  1
  Te  Te176  1  0.92934966  0.39679181  0.93793284  1
  Te  Te177  1  0.92132210  0.74565205  0.25016116  1
  Te  Te178  1  0.93999120  0.72690638  0.60392692  1
  Te  Te179  1  0.91888756  0.72600528  0.91448977  1
