# generated using pymatgen
data_In2Te3
_symmetry_space_group_name_H-M   'P 1'
_cell_length_a   18.80979259
_cell_length_b   18.80159303
_cell_length_c   18.80667811
_cell_angle_alpha   89.97130142
_cell_angle_beta   89.97628421
_cell_angle_gamma   90.12729104
_symmetry_Int_Tables_number   1
_chemical_formula_structural   In2Te3
_chemical_formula_sum   'In72 Te108'
_cell_volume   6651.04034726
_cell_formula_units_Z   36
loop_
 _symmetry_equiv_pos_site_id
 _symmetry_equiv_pos_as_xyz
  1  'x, y, z'
loop_
 _atom_site_type_symbol
 _atom_site_label
 _atom_site_symmetry_multiplicity
 _atom_site_fract_x
 _atom_site_fract_y
 _atom_site_fract_z
 _atom_site_occupancy
  In  In0  1  0.85549765  0.83955102  -0.01983438  1
  In  In1  1  0.32090939  0.31301221  -0.01664862  1
  In  In2  1  0.17017011  0.34908097  0.16448286  1
  In  In3  1  0.33913534  0.83438158  0.80472171  1
  In  In4  1  0.16477228  0.49594666  0.66324857  1
  In  In5  1  0.02559964  0.49109031  0.16080434  1
  In  In6  1  0.67445232  0.15472655  0.83583702  1
  In  In7  1  0.33992583  0.49290460  0.16874271  1
  In  In8  1  0.28414128  0.03646438  0.64396386  1
  In  In9  1  0.49342837  0.66041565  0.14594487  1
  In  In10  1  0.15493712  0.64533411  0.48689446  1
  In  In11  1  0.34247593  0.64093825  -0.01842063  1
  In  In12  1  0.68929056  0.81350468  0.83877434  1
  In  In13  1  0.13380238  0.83358387  0.66423309  1
  In  In14  1  -0.00827895  0.18231913  0.15728325  1
  In  In15  1  0.49974791  0.50101339  -0.00528574  1
  In  In16  1  0.50482067  0.65977446  0.50803685  1
  In  In17  1  0.20791709  0.18565409  0.36230337  1
  In  In18  1  0.67398545  0.20282121  0.49394479  1
  In  In19  1  0.35134775  0.02129551  0.35595172  1
  In  In20  1  0.12228515  0.68401554  0.14399037  1
  In  In21  1  0.82577875  0.31423076  0.16853301  1
  In  In22  1  0.81603579  0.48061406  0.00258806  1
  In  In23  1  0.33884268  0.83661868  0.51097244  1
  In  In24  1  0.54300833  0.85049068  0.37691586  1
  In  In25  1  0.33884821  0.88396361  0.16625621  1
  In  In26  1  0.00541829  0.32417319  0.66716245  1
  In  In27  1  0.00626526  -0.00215546  -0.04336465  1
  In  In28  1  0.67647460  0.01031140  0.66999704  1
  In  In29  1  0.66571785  0.00164128  0.00585644  1
  In  In30  1  0.17222020  0.00101981  0.17154700  1
  In  In31  1  0.67052539  0.84551557  0.17732620  1
  In  In32  1  0.67235898  0.65737786  0.33714215  1
  In  In33  1  0.78785998  -0.00301132  0.16321728  1
  In  In34  1  0.48994686  0.33253634  0.84510066  1
  In  In35  1  0.17992916  0.47994204  -0.01467063  1
  In  In36  1  0.86012835  0.83690313  0.66904724  1
  In  In37  1  0.00934516  0.17383600  0.48852886  1
  In  In38  1  0.17806127  0.83897050  0.33348415  1
  In  In39  1  0.15545386  0.18268626  -0.02051078  1
  In  In40  1  0.82275006  0.66474066  0.18580789  1
  In  In41  1  -0.01454255  0.81359709  0.14893671  1
  In  In42  1  0.84482903  0.32365667  0.82932118  1
  In  In43  1  0.51053124  0.84362095  0.62877004  1
  In  In44  1  -0.01883909  0.67325244  -0.01764874  1
  In  In45  1  -0.03576776  0.52803403  0.79208306  1
  In  In46  1  0.03112485  0.01626927  0.69017551  1
  In  In47  1  0.49235588  0.17243436  0.65798398  1
  In  In48  1  0.33536183  0.03906164  0.00287180  1
  In  In49  1  0.51491461  0.84184371  -0.00827894  1
  In  In50  1  0.50677201  0.29778135  0.18467213  1
  In  In51  1  0.50186532  0.44626089  0.36245366  1
  In  In52  1  -0.00086046  0.33285310  0.34257409  1
  In  In53  1  0.16112997  0.67830992  0.81791531  1
  In  In54  1  0.84333574  -0.00348028  0.52231360  1
  In  In55  1  -0.01972006  0.00598469  0.34883526  1
  In  In56  1  0.49436020  0.01635112  0.80463079  1
  In  In57  1  -0.01101426  0.50286749  0.51998118  1
  In  In58  1  0.66970216  0.65340774  -0.00172966  1
  In  In59  1  0.31410389  0.29976171  0.67212634  1
  In  In60  1  0.50890254  0.06305867  0.21720350  1
  In  In61  1  0.65853070  0.51155306  0.82837614  1
  In  In62  1  0.79392383  0.47083639  0.38236049  1
  In  In63  1  0.31328376  0.66115734  0.32960677  1
  In  In64  1  0.34340977  0.64940468  0.65988659  1
  In  In65  1  -0.00960314  0.68114544  0.32624541  1
  In  In66  1  0.83292573  0.18266647  0.34812304  1
  In  In67  1  0.83097113  0.14542795  -0.00606665  1
  In  In68  1  0.68252503  0.33397396  0.64588979  1
  In  In69  1  0.18142966  0.46140543  0.33596508  1
  In  In70  1  0.81715363  0.66532080  0.51710560  1
  In  In71  1  0.52390979  0.47982574  0.65898379  1
  Te  Te72  1  0.07618380  0.08103077  0.07994188  1
  Te  Te73  1  0.09807838  0.08213785  0.40523108  1
  Te  Te74  1  0.12028979  0.10146640  0.77843815  1
  Te  Te75  1  0.07455200  0.39302812  0.05414778  1
  Te  Te76  1  0.08548712  0.40859578  0.44221457  1
  Te  Te77  1  0.07397722  0.42449006  0.76269849  1
  Te  Te78  1  0.08322312  0.78779738  0.02924789  1
  Te  Te79  1  0.08015542  0.76129640  0.42188719  1
  Te  Te80  1  0.04808635  0.75805355  0.76171769  1
  Te  Te81  1  0.43231446  0.10989566  0.09357708  1
  Te  Te82  1  0.42935318  0.12892651  0.42319320  1
  Te  Te83  1  0.38460651  0.10183260  0.74412496  1
  Te  Te84  1  0.42004964  0.39895276  0.07892678  1
  Te  Te85  1  0.39403796  0.37752263  0.43479215  1
  Te  Te86  1  0.41508679  0.40404399  0.73476203  1
  Te  Te87  1  0.40704620  0.76137097  0.07348153  1
  Te  Te88  1  0.41218172  0.74807044  0.41026063  1
  Te  Te89  1  0.43669085  0.74707973  0.73051079  1
  Te  Te90  1  0.71890458  0.11903295  0.09822565  1
  Te  Te91  1  0.75457047  0.08334406  0.43228131  1
  Te  Te92  1  0.77357353  0.08146139  0.75510714  1
  Te  Te93  1  0.73176393  0.39838809  0.09003044  1
  Te  Te94  1  0.71354972  0.36709954  0.45553999  1
  Te  Te95  1  0.75296514  0.41699774  0.75201513  1
  Te  Te96  1  0.75285698  0.76141534  0.07585361  1
  Te  Te97  1  0.74175829  0.75271865  0.42430429  1
  Te  Te98  1  0.76851502  0.73550723  0.73995180  1
  Te  Te99  1  0.09041461  0.24466581  0.25743483  1
  Te  Te100  1  0.10384713  0.23497521  0.59039813  1
  Te  Te101  1  0.10096553  0.26354175  0.86865220  1
  Te  Te102  1  0.09821813  0.58016266  0.26607262  1
  Te  Te103  1  0.07015492  0.60122891  0.60455873  1
  Te  Te104  1  0.08464158  0.58247528  0.91610528  1
  Te  Te105  1  0.07337566  0.90819524  0.24344808  1
  Te  Te106  1  0.08810880  0.94021765  0.57490173  1
  Te  Te107  1  0.07709910  0.88176783  0.90535394  1
  Te  Te108  1  0.43432436  0.21176433  0.28749728  1
  Te  Te109  1  0.42512507  0.27264151  0.56979512  1
  Te  Te110  1  0.41193385  0.22401389  0.90775630  1
  Te  Te111  1  0.42586180  0.57947271  0.26100091  1
  Te  Te112  1  0.41498163  0.55317026  0.56914230  1
  Te  Te113  1  0.43064149  0.57321204  0.88662723  1
  Te  Te114  1  0.43648233  0.92057533  0.27643847  1
  Te  Te115  1  0.40304535  0.94662329  0.59311930  1
  Te  Te116  1  0.41405401  0.92595740  0.91192788  1
  Te  Te117  1  0.72865252  0.25602229  0.26861199  1
  Te  Te118  1  0.76202186  0.21447561  0.61224900  1
  Te  Te119  1  0.74660847  0.25467072  0.92516306  1
  Te  Te120  1  0.74882776  0.55334722  0.25570728  1
  Te  Te121  1  0.78373245  0.53860800  0.58864679  1
  Te  Te122  1  0.77055564  0.58970615  0.90672908  1
  Te  Te123  1  0.73054448  0.93062845  0.28180915  1
  Te  Te124  1  0.74295834  0.90155933  0.58842719  1
  Te  Te125  1  0.75900075  0.93306140  0.90661081  1
  Te  Te126  1  0.24506275  0.23713215  0.09182350  1
  Te  Te127  1  0.27115640  0.28147439  0.45629746  1
  Te  Te128  1  0.20878264  0.23277704  0.76276591  1
  Te  Te129  1  0.24089961  0.58077544  0.09070561  1
  Te  Te130  1  0.26220288  0.55582585  0.42809360  1
  Te  Te131  1  0.25619542  0.57372182  0.75928329  1
  Te  Te132  1  0.24186630  0.92738203  0.05797265  1
  Te  Te133  1  0.24976914  0.93200294  0.43009001  1
  Te  Te134  1  0.23469492  0.92184830  0.74069110  1
  Te  Te135  1  0.57261258  0.20087131  0.09470356  1
  Te  Te136  1  0.55606276  0.22083051  0.39444195  1
  Te  Te137  1  0.58879006  0.25354729  0.74840464  1
  Te  Te138  1  0.59839403  0.56250043  0.09685913  1
  Te  Te139  1  0.58730853  0.56492088  0.42246831  1
  Te  Te140  1  0.59720090  0.59197455  0.72128711  1
  Te  Te141  1  0.56613369  0.93299322  0.10399647  1
  Te  Te142  1  0.57291999  0.95940272  0.46784414  1
  Te  Te143  1  0.58872179  0.90610793  0.75879165  1
  Te  Te144  1  0.91715359  0.26182549  0.05453879  1
  Te  Te145  1  0.90268809  0.27689176  0.44525461  1
  Te  Te146  1  0.93612265  0.22824252  0.76031009  1
  Te  Te147  1  0.91850877  0.58676419  0.09453103  1
  Te  Te148  1  0.91403234  0.57248032  0.40175103  1
  Te  Te149  1  0.86862134  0.60150015  0.70044979  1
  Te  Te150  1  0.90881617  0.93778237  0.08566839  1
  Te  Te151  1  0.92052989  0.90417502  0.43432418  1
  Te  Te152  1  0.92437018  0.93721471  0.75819633  1
  Te  Te153  1  0.26287192  0.09247762  0.25057863  1
  Te  Te154  1  0.23432224  0.14966048  0.55982390  1
  Te  Te155  1  0.22805223  0.07352362  0.90427381  1
  Te  Te156  1  0.28652096  0.38167684  0.25850950  1
  Te  Te157  1  0.24087534  0.39852432  0.58255008  1
  Te  Te158  1  0.27497486  0.41934853  0.89189674  1
  Te  Te159  1  0.24661237  0.75358018  0.22684369  1
  Te  Te160  1  0.24415918  0.74066510  0.58392956  1
  Te  Te161  1  0.26317025  0.74942148  0.90756473  1
  Te  Te162  1  0.62323704  0.12988886  0.28447374  1
  Te  Te163  1  0.57751902  0.07596186  0.57464863  1
  Te  Te164  1  0.56834956  0.08428068  0.91970379  1
  Te  Te165  1  0.58388886  0.40694102  0.24809962  1
  Te  Te166  1  0.58878373  0.39990627  0.54734383  1
  Te  Te167  1  0.59712033  0.40677382  0.92399668  1
  Te  Te168  1  0.57515332  0.74430030  0.24541016  1
  Te  Te169  1  0.60522149  0.74245448  0.57780954  1
  Te  Te170  1  0.57461375  0.72998130  0.90790333  1
  Te  Te171  1  0.90481389  0.08969790  0.24251918  1
  Te  Te172  1  0.93450979  0.09415603  0.59377726  1
  Te  Te173  1  0.93476059  0.11010106  0.89309926  1
  Te  Te174  1  0.92069063  0.41517513  0.24266097  1
  Te  Te175  1  0.90154075  0.41633476  0.60444649  1
  Te  Te176  1  0.92309138  0.43181955  0.90671996  1
  Te  Te177  1  0.88874869  0.77718927  0.26454780  1
  Te  Te178  1  0.92883758  0.74554109  0.57244931  1
  Te  Te179  1  0.91623646  0.75347920  0.87465511  1
