# generated using pymatgen
data_In2Te3
_symmetry_space_group_name_H-M   'P 1'
_cell_length_a   18.82699522
_cell_length_b   18.83447647
_cell_length_c   18.81782735
_cell_angle_alpha   89.97162920
_cell_angle_beta   89.92915384
_cell_angle_gamma   89.93938816
_symmetry_Int_Tables_number   1
_chemical_formula_structural   In2Te3
_chemical_formula_sum   'In72 Te108'
_cell_volume   6672.72791979
_cell_formula_units_Z   36
loop_
 _symmetry_equiv_pos_site_id
 _symmetry_equiv_pos_as_xyz
  1  'x, y, z'
loop_
 _atom_site_type_symbol
 _atom_site_label
 _atom_site_symmetry_multiplicity
 _atom_site_fract_x
 _atom_site_fract_y
 _atom_site_fract_z
 _atom_site_occupancy
  In  In0  1  0.67051079  0.35018677  -0.01221106  1
  In  In1  1  0.68864413  0.66436699  -0.03225145  1
  In  In2  1  0.50686926  0.32970446  0.18137107  1
  In  In3  1  0.66419648  0.50040537  0.17048841  1
  In  In4  1  0.50393050  0.68504660  0.51094304  1
  In  In5  1  0.68065622  0.02178416  0.66862352  1
  In  In6  1  0.19987351  0.32427021  0.55081226  1
  In  In7  1  0.19628100  0.34361190  0.15218540  1
  In  In8  1  0.14207864  0.18027616  0.70390446  1
  In  In9  1  0.69544152  0.18111863  0.15451027  1
  In  In10  1  0.70222682  0.81360814  0.80661434  1
  In  In11  1  0.50149995  0.00978618  0.15803558  1
  In  In12  1  0.66437139  -0.00614022  0.35357748  1
  In  In13  1  0.34789466  0.49402433  0.81833227  1
  In  In14  1  0.83827426  0.16861578  0.67828965  1
  In  In15  1  0.65261806  0.47681888  0.54804916  1
  In  In16  1  0.31460357  0.84384419  0.16533291  1
  In  In17  1  0.86794039  0.16109670  -0.02912296  1
  In  In18  1  0.49320850  0.47335246  -0.03014382  1
  In  In19  1  0.83515383  0.51378411  0.68999553  1
  In  In20  1  0.34638959  0.16270243  0.51157366  1
  In  In21  1  0.49569216  0.17935388  0.67378239  1
  In  In22  1  0.50961231  0.16256568  0.36202462  1
  In  In23  1  -0.00735034  0.14460796  0.52008523  1
  In  In24  1  0.17552550  0.02766052  0.84347343  1
  In  In25  1  0.32993798  0.17815135  0.14545450  1
  In  In26  1  -0.01972710  0.86125195  0.81527010  1
  In  In27  1  0.49158409  0.84613236  0.66293961  1
  In  In28  1  0.31627956  0.65243966  0.67290485  1
  In  In29  1  0.32135643  0.51884890  0.18970475  1
  In  In30  1  0.16848970  0.83655976  0.31303828  1
  In  In31  1  0.33863815  0.85425725  0.50815202  1
  In  In32  1  0.82600260  0.31027015  0.16838937  1
  In  In33  1  0.13636910  0.50600189  -0.04705670  1
  In  In34  1  0.50168711  0.46956020  0.34120367  1
  In  In35  1  0.31731930  0.84207366  0.84203530  1
  In  In36  1  0.84283391  0.32016683  0.51839306  1
  In  In37  1  -0.00967423  0.49832247  0.13272864  1
  In  In38  1  -0.02614865  0.82731517  0.52677984  1
  In  In39  1  0.17382718  0.49378592  0.34558264  1
  In  In40  1  0.84907268  0.83742527  0.33414151  1
  In  In41  1  0.47347378  0.15357597  -0.00586112  1
  In  In42  1  0.16783797  0.00169809  0.50372217  1
  In  In43  1  0.16151019  0.83926080  0.68963906  1
  In  In44  1  0.52854554  0.65075963  0.80924220  1
  In  In45  1  0.14180798  0.64268664  0.52133483  1
  In  In46  1  0.84700918  0.69451442  0.51109004  1
  In  In47  1  0.01711826  0.68508212  0.32240606  1
  In  In48  1  0.50550972  0.33012423  0.83925528  1
  In  In49  1  0.67118481  0.84476313  0.52049297  1
  In  In50  1  0.34976015  0.31943348  0.00129974  1
  In  In51  1  0.01039352  0.31867668  0.35123249  1
  In  In52  1  -0.00191259  -0.00395388  -0.01853923  1
  In  In53  1  0.67552145  0.85308597  0.17483710  1
  In  In54  1  -0.01035301  0.51213251  0.52869483  1
  In  In55  1  0.66744535  0.16834214  0.49990866  1
  In  In56  1  0.15709905  0.00232168  0.15382851  1
  In  In57  1  0.85845510  0.52040376  -0.04265821  1
  In  In58  1  0.51755141  0.83464867  0.32694663  1
  In  In59  1  0.31980458  0.68365805  0.00558832  1
  In  In60  1  0.84368195  0.82745421  -0.01298936  1
  In  In61  1  0.66954286  0.00567967  -0.01880427  1
  In  In62  1  0.02049748  0.83444947  0.14301652  1
  In  In63  1  0.67405621  0.63757219  0.32873968  1
  In  In64  1  0.48185558  0.65055458  0.14813420  1
  In  In65  1  0.16826517  0.16948870  0.32863045  1
  In  In66  1  0.15206399  0.68169896  0.14840254  1
  In  In67  1  0.82854165  0.49442070  0.33464765  1
  In  In68  1  0.84932622  0.33726753  0.83254914  1
  In  In69  1  -0.03661099  0.14628835  0.18241362  1
  In  In70  1  0.33374526  0.48233914  0.50829208  1
  In  In71  1  0.47506032  0.00853780  0.81698941  1
  Te  Te72  1  0.06376414  0.09535119  0.07812132  1
  Te  Te73  1  0.07584741  0.07869765  0.40787930  1
  Te  Te74  1  0.05952869  0.06543090  0.75690666  1
  Te  Te75  1  0.08935775  0.40666103  0.06120311  1
  Te  Te76  1  0.08188692  0.41900852  0.44097110  1
  Te  Te77  1  0.08265803  0.37300540  0.79343024  1
  Te  Te78  1  0.07390962  0.74218321  0.04093250  1
  Te  Te79  1  0.08977109  0.76432953  0.43049229  1
  Te  Te80  1  0.08200342  0.75504614  0.77992620  1
  Te  Te81  1  0.38559945  0.05561254  0.06989173  1
  Te  Te82  1  0.40782761  0.07085166  0.41349320  1
  Te  Te83  1  0.38793066  0.10458642  0.74740854  1
  Te  Te84  1  0.41905274  0.42840181  0.10267975  1
  Te  Te85  1  0.42666104  0.38840893  0.43821350  1
  Te  Te86  1  0.41738179  0.39343828  0.73058277  1
  Te  Te87  1  0.42184794  0.77066400  0.07840789  1
  Te  Te88  1  0.41443160  0.75905280  0.41303514  1
  Te  Te89  1  0.41347964  0.74555534  0.75024523  1
  Te  Te90  1  0.76989343  0.08433913  0.06462030  1
  Te  Te91  1  0.75743655  0.06645291  0.44044178  1
  Te  Te92  1  0.75142984  0.09522009  0.77478127  1
  Te  Te93  1  0.76619309  0.42513883  0.07936552  1
  Te  Te94  1  0.75345510  0.41735538  0.43999337  1
  Te  Te95  1  0.75392886  0.39964727  0.73765537  1
  Te  Te96  1  0.74435787  0.75436510  0.07820407  1
  Te  Te97  1  0.73273072  0.75630465  0.40581826  1
  Te  Te98  1  0.78131391  0.73122288  0.71502459  1
  Te  Te99  1  0.08954214  0.26020721  0.23278119  1
  Te  Te100  1  0.06967445  0.25725383  0.58674767  1
  Te  Te101  1  0.08061981  0.23917540  0.85393139  1
  Te  Te102  1  0.08578432  0.56646058  0.24300153  1
  Te  Te103  1  0.06176559  0.59006213  0.63609964  1
  Te  Te104  1  0.02821158  0.58914864  0.89588829  1
  Te  Te105  1  0.06528661  0.92993628  0.25401422  1
  Te  Te106  1  0.07602829  0.92076583  0.59394646  1
  Te  Te107  1  0.09873589  0.91147989  0.90910861  1
  Te  Te108  1  0.41700971  0.23506478  0.25629160  1
  Te  Te109  1  0.39365355  0.26817791  0.60630885  1
  Te  Te110  1  0.39148518  0.22793652  0.88727997  1
  Te  Te111  1  0.42652801  0.58658610  0.27636166  1
  Te  Te112  1  0.42135715  0.58213493  0.58770917  1
  Te  Te113  1  0.42050003  0.59838162  0.91838949  1
  Te  Te114  1  0.41838544  0.92101717  0.25038958  1
  Te  Te115  1  0.40661700  0.94811818  0.59817411  1
  Te  Te116  1  0.41337775  0.92189982  0.91908775  1
  Te  Te117  1  0.75333675  0.24154641  0.27643930  1
  Te  Te118  1  0.73521008  0.25611700  0.60473631  1
  Te  Te119  1  0.75107161  0.24518936  0.91611044  1
  Te  Te120  1  0.77623318  0.58943728  0.22620232  1
  Te  Te121  1  0.76250634  0.57914878  0.57107125  1
  Te  Te122  1  0.76120454  0.58519908  0.86697357  1
  Te  Te123  1  0.77296265  0.94821545  0.24330095  1
  Te  Te124  1  0.77214730  0.91466733  0.60656429  1
  Te  Te125  1  0.76400535  0.92196017  0.89604947  1
  Te  Te126  1  0.22448621  0.22890508  0.04367437  1
  Te  Te127  1  0.24886421  0.25367413  0.42505870  1
  Te  Te128  1  0.21248212  0.29548024  0.77135100  1
  Te  Te129  1  0.23716202  0.56977956  0.07411053  1
  Te  Te130  1  0.25248029  0.59255802  0.42840701  1
  Te  Te131  1  0.23197973  0.56877457  0.76199868  1
  Te  Te132  1  0.22074677  0.90092388  0.06739659  1
  Te  Te133  1  0.25356945  0.92686252  0.40124501  1
  Te  Te134  1  0.26158188  0.93967089  0.74024506  1
  Te  Te135  1  0.57219933  0.25413087  0.06534827  1
  Te  Te136  1  0.57162485  0.26817488  0.44346664  1
  Te  Te137  1  0.59487088  0.23819756  0.76745542  1
  Te  Te138  1  0.58704452  0.57712984  0.06347581  1
  Te  Te139  1  0.58506730  0.57246468  0.43407310  1
  Te  Te140  1  0.57470668  0.55592154  0.70760811  1
  Te  Te141  1  0.58393515  0.91550451  0.06987268  1
  Te  Te142  1  0.56391330  0.92103261  0.44317628  1
  Te  Te143  1  0.59317052  0.91794551  0.75286213  1
  Te  Te144  1  0.93049677  0.25538682  0.07324063  1
  Te  Te145  1  0.90998087  0.22708364  0.41782012  1
  Te  Te146  1  0.94273731  0.24809691  0.75414404  1
  Te  Te147  1  0.92284409  0.60647371  0.05988979  1
  Te  Te148  1  0.92422524  0.59250273  0.40957449  1
  Te  Te149  1  0.95962201  0.55636789  0.75869833  1
  Te  Te150  1  0.91175830  0.92367663  0.08343151  1
  Te  Te151  1  0.91378860  0.92427251  0.43230249  1
  Te  Te152  1  0.89103617  0.91879461  0.70877197  1
  Te  Te153  1  0.25441296  0.08160291  0.23992266  1
  Te  Te154  1  0.22779098  0.10782928  0.59213207  1
  Te  Te155  1  0.24887793  0.12048018  0.93046778  1
  Te  Te156  1  0.27131159  0.40065766  0.27206888  1
  Te  Te157  1  0.22965108  0.45447650  0.61187437  1
  Te  Te158  1  0.26623983  0.42290082  0.92824733  1
  Te  Te159  1  0.25613513  0.72926724  0.24967767  1
  Te  Te160  1  0.24473167  0.75493284  0.58147928  1
  Te  Te161  1  0.23432286  0.73094221  0.89540942  1
  Te  Te162  1  0.59899427  0.09008869  0.24325829  1
  Te  Te163  1  0.57177634  0.08130482  0.58164184  1
  Te  Te164  1  0.57671438  0.09366867  0.89973265  1
  Te  Te165  1  0.61412007  0.39489287  0.26796280  1
  Te  Te166  1  0.55385674  0.41601916  0.64007816  1
  Te  Te167  1  0.61062615  0.44099702  0.88161095  1
  Te  Te168  1  0.58871788  0.73316237  0.23422423  1
  Te  Te169  1  0.59939677  0.74560577  0.61124417  1
  Te  Te170  1  0.58844759  0.75709293  0.90072075  1
  Te  Te171  1  0.87351109  0.06860191  0.26525738  1
  Te  Te172  1  0.91680740  0.05625740  0.61415604  1
  Te  Te173  1  0.93290215  0.07180591  0.86972934  1
  Te  Te174  1  0.92866999  0.41009184  0.25439650  1
  Te  Te175  1  0.92402324  0.40493558  0.61242115  1
  Te  Te176  1  0.95267765  0.41304175  0.91092371  1
  Te  Te177  1  0.91904617  0.75094432  0.22961336  1
  Te  Te178  1  0.91794119  0.73676027  0.63762082  1
  Te  Te179  1  0.90989121  0.74758637  0.88232676  1
