# generated using pymatgen
data_In2Te3
_symmetry_space_group_name_H-M   'P 1'
_cell_length_a   18.93103700
_cell_length_b   18.91157874
_cell_length_c   18.92662254
_cell_angle_alpha   90.00578803
_cell_angle_beta   90.00920757
_cell_angle_gamma   89.95297139
_symmetry_Int_Tables_number   1
_chemical_formula_structural   In2Te3
_chemical_formula_sum   'In72 Te108'
_cell_volume   6776.02744685
_cell_formula_units_Z   36
loop_
 _symmetry_equiv_pos_site_id
 _symmetry_equiv_pos_as_xyz
  1  'x, y, z'
loop_
 _atom_site_type_symbol
 _atom_site_label
 _atom_site_symmetry_multiplicity
 _atom_site_fract_x
 _atom_site_fract_y
 _atom_site_fract_z
 _atom_site_occupancy
  In  In0  1  0.49996872  0.49173208  0.01101128  1
  In  In1  1  0.49390104  0.35145202  0.82590313  1
  In  In2  1  0.82430665  0.86195948  0.00357359  1
  In  In3  1  -0.00993841  0.16226758  0.14849590  1
  In  In4  1  0.18844375  0.53506601  0.34824439  1
  In  In5  1  0.82218524  0.33433822  0.53621697  1
  In  In6  1  0.81692682  0.17646991  0.65809283  1
  In  In7  1  0.17408597  0.81102494  0.64810562  1
  In  In8  1  0.34704029  0.65748395  -0.00640775  1
  In  In9  1  0.66964169  0.82087079  0.50778071  1
  In  In10  1  0.19165738  0.35004784  0.47740187  1
  In  In11  1  0.83092170  0.00247792  0.84103345  1
  In  In12  1  0.00702767  0.02713428  -0.01219887  1
  In  In13  1  0.83874345  0.49733970  0.67178440  1
  In  In14  1  0.01529838  -0.00838244  0.32198981  1
  In  In15  1  -0.00429930  0.67080862  -0.01343507  1
  In  In16  1  0.64813967  -0.01335114  0.33221022  1
  In  In17  1  0.00112556  0.86314591  0.84071421  1
  In  In18  1  0.00106483  0.49515764  0.16254043  1
  In  In19  1  0.18393154  0.32164420  0.18959373  1
  In  In20  1  0.00021583  0.17017977  0.49053727  1
  In  In21  1  0.47881844  0.83868388  0.64100854  1
  In  In22  1  0.01937593  0.34248634  0.67056099  1
  In  In23  1  -0.00697989  0.64571864  0.63765734  1
  In  In24  1  0.01841353  0.50806061  0.79999755  1
  In  In25  1  0.75115877  0.61824890  0.18198611  1
  In  In26  1  0.49686468  -0.03473824  0.81626975  1
  In  In27  1  0.37355087  0.64280802  0.64656054  1
  In  In28  1  0.83926888  0.84052848  0.34192053  1
  In  In29  1  0.50339478  0.33972433  0.17246868  1
  In  In30  1  0.48963672  -0.01742746  0.17141748  1
  In  In31  1  0.18424576  0.18787787  0.35540299  1
  In  In32  1  0.01389666  -0.01926612  0.66403208  1
  In  In33  1  0.83592268  0.32250169  0.85569436  1
  In  In34  1  0.66363319  0.01386985  0.01467876  1
  In  In35  1  0.81716814  -0.01201733  0.49437730  1
  In  In36  1  -0.00582467  0.67826931  0.35463250  1
  In  In37  1  0.65221439  0.68119891  -0.03569023  1
  In  In38  1  0.66545029  0.32374341  0.64805907  1
  In  In39  1  0.17034634  0.01931356  0.82250161  1
  In  In40  1  0.01666516  0.81761684  0.19428049  1
  In  In41  1  0.18425173  0.50682078  0.63270656  1
  In  In42  1  0.21029084  0.81072251  0.35351941  1
  In  In43  1  0.83294808  0.66020420  0.49067394  1
  In  In44  1  0.64344145  0.81868890  0.15959692  1
  In  In45  1  0.79504370  0.33233027  0.20747114  1
  In  In46  1  0.84159743  0.00679472  0.16119604  1
  In  In47  1  -0.00030898  0.31119875  0.00194425  1
  In  In48  1  0.49342799  0.18606106  -0.00421240  1
  In  In49  1  0.18938098  0.65598263  0.14701076  1
  In  In50  1  0.66568373  0.18360574  0.83683813  1
  In  In51  1  0.32662962  0.49276390  0.84717190  1
  In  In52  1  0.18339955  0.16652491  -0.00141155  1
  In  In53  1  0.24415895  0.83356848  0.06069595  1
  In  In54  1  0.82208599  0.48137586  0.00912889  1
  In  In55  1  0.49798904  0.66161829  0.16170990  1
  In  In56  1  0.32202966  0.35620801  0.35260528  1
  In  In57  1  0.48892896  0.16864072  0.54597271  1
  In  In58  1  0.35081103  0.01359235  0.35058891  1
  In  In59  1  0.65059953  0.51071557  0.83722951  1
  In  In60  1  0.35872680  0.16560690  0.18249451  1
  In  In61  1  0.56507137  0.19502688  0.34910483  1
  In  In62  1  0.64770372  0.67401325  0.68678492  1
  In  In63  1  0.47730351  0.51225411  0.33134778  1
  In  In64  1  -0.00409863  0.12891565  0.82996427  1
  In  In65  1  0.63947282  0.49370213  0.50371972  1
  In  In66  1  0.46965771  0.80730506  0.37186271  1
  In  In67  1  -0.02170328  0.34018905  0.33930515  1
  In  In68  1  0.15547296  0.66169096  0.83295073  1
  In  In69  1  0.33282321  0.82411878  0.81294584  1
  In  In70  1  0.32367385  0.18560260  0.80449814  1
  In  In71  1  0.34001482  0.02853586  0.64148622  1
  Te  Te72  1  0.10443504  0.07848332  0.09548014  1
  Te  Te73  1  0.09664004  0.07824131  0.41864221  1
  Te  Te74  1  0.09453619  0.09797352  0.71770096  1
  Te  Te75  1  0.08965753  0.39493101  0.09152463  1
  Te  Te76  1  0.08842556  0.42781335  0.39757488  1
  Te  Te77  1  0.12728254  0.41378382  0.75217537  1
  Te  Te78  1  0.09003862  0.75351907  0.07528410  1
  Te  Te79  1  0.10603906  0.73655630  0.43068941  1
  Te  Te80  1  0.06939901  0.75659058  0.75141024  1
  Te  Te81  1  0.41109845  0.07082235  0.07301963  1
  Te  Te82  1  0.46343636  0.09541384  0.41300819  1
  Te  Te83  1  0.42647582  0.08646606  0.74897303  1
  Te  Te84  1  0.40576517  0.41687288  0.09350436  1
  Te  Te85  1  0.42687469  0.41695517  0.43815118  1
  Te  Te86  1  0.38794687  0.41067563  0.74161385  1
  Te  Te87  1  0.42369889  0.75501066  0.07219519  1
  Te  Te88  1  0.37532879  0.71644806  0.44378040  1
  Te  Te89  1  0.43806915  0.73376755  0.75299446  1
  Te  Te90  1  0.74530315  0.09909465  0.10108832  1
  Te  Te91  1  0.75666839  0.06801935  0.38824321  1
  Te  Te92  1  0.73942893  0.08320519  0.74895530  1
  Te  Te93  1  0.73191410  0.41671927  0.10379196  1
  Te  Te94  1  0.74790418  0.41478615  0.43361571  1
  Te  Te95  1  0.75259235  0.40262186  0.75419344  1
  Te  Te96  1  0.74822823  0.74912965  0.07272059  1
  Te  Te97  1  0.74105999  0.74170627  0.39968377  1
  Te  Te98  1  0.70440953  0.74879613  0.79998827  1
  Te  Te99  1  0.07066405  0.24406772  0.26032813  1
  Te  Te100  1  0.09310241  0.26546663  0.56293438  1
  Te  Te101  1  0.08735255  0.23755629  0.90025420  1
  Te  Te102  1  0.08533351  0.59457442  0.24305902  1
  Te  Te103  1  0.10291341  0.60003084  0.55159872  1
  Te  Te104  1  0.08689307  0.56482611  0.92689999  1
  Te  Te105  1  0.12137736  0.90224598  0.25987303  1
  Te  Te106  1  0.10083291  0.91133878  0.56936960  1
  Te  Te107  1  0.10601450  0.92771654  0.92753408  1
  Te  Te108  1  0.42071016  0.26115889  0.28315080  1
  Te  Te109  1  0.36846359  0.24030956  0.59491915  1
  Te  Te110  1  0.39963793  0.26894223  0.91288091  1
  Te  Te111  1  0.39116019  0.60323282  0.24815490  1
  Te  Te112  1  0.41009885  0.54528224  0.53924202  1
  Te  Te113  1  0.43917702  0.57926963  0.90259018  1
  Te  Te114  1  0.40681906  0.89858272  0.26549990  1
  Te  Te115  1  0.39199604  0.92316829  0.55145908  1
  Te  Te116  1  0.40710815  0.90226529  0.91244966  1
  Te  Te117  1  0.69935371  0.25165836  0.29179876  1
  Te  Te118  1  0.71308723  0.20854641  0.54918479  1
  Te  Te119  1  0.74111916  0.25289330  0.94154875  1
  Te  Te120  1  0.69281703  0.54589503  0.29539703  1
  Te  Te121  1  0.74112683  0.58265382  0.59324496  1
  Te  Te122  1  0.76016638  0.58082548  0.91265958  1
  Te  Te123  1  0.74631461  0.90601543  0.23206345  1
  Te  Te124  1  0.74684152  0.91014931  0.59563692  1
  Te  Te125  1  0.72287362  0.91901262  0.90696196  1
  Te  Te126  1  0.27216625  0.25127665  0.08873101  1
  Te  Te127  1  0.29422082  0.21155277  0.45736078  1
  Te  Te128  1  0.20170279  0.26064332  0.77942895  1
  Te  Te129  1  0.25565428  0.55500052  0.05667005  1
  Te  Te130  1  0.29304174  0.58238271  0.44275444  1
  Te  Te131  1  0.25492197  0.59853168  0.73927197  1
  Te  Te132  1  0.30203942  0.95773737  0.10462029  1
  Te  Te133  1  0.26719000  0.92378067  0.43592604  1
  Te  Te134  1  0.24854981  0.92353156  0.73192216  1
  Te  Te135  1  0.58255278  0.24188898  0.09640106  1
  Te  Te136  1  0.61956317  0.32468149  0.40545431  1
  Te  Te137  1  0.56866075  0.24896872  0.74094269  1
  Te  Te138  1  0.59929936  0.58847534  0.07558287  1
  Te  Te139  1  0.58020364  0.59241559  0.40830309  1
  Te  Te140  1  0.56988351  0.55169456  0.72190474  1
  Te  Te141  1  0.56694786  0.90554159  0.06366018  1
  Te  Te142  1  0.56878721  0.90785060  0.43273246  1
  Te  Te143  1  0.58127777  0.92388662  0.70422163  1
  Te  Te144  1  0.89506407  0.26943497  0.10225295  1
  Te  Te145  1  0.89044119  0.25095498  0.42402156  1
  Te  Te146  1  0.92303034  0.25084589  0.74633124  1
  Te  Te147  1  0.91062672  0.58793879  0.08171685  1
  Te  Te148  1  0.91490251  0.56892026  0.41028847  1
  Te  Te149  1  0.90678716  0.60129082  0.75937323  1
  Te  Te150  1  0.94305987  0.91733855  0.09092980  1
  Te  Te151  1  0.93908937  0.91181569  0.42674298  1
  Te  Te152  1  0.89988831  0.91254804  0.73913268  1
  Te  Te153  1  0.25260925  0.09046164  0.26064700  1
  Te  Te154  1  0.24922489  0.12697895  0.58092134  1
  Te  Te155  1  0.27369974  0.08201768  0.91172382  1
  Te  Te156  1  0.25688124  0.44182743  0.24669165  1
  Te  Te157  1  0.27532212  0.39655469  0.59194251  1
  Te  Te158  1  0.23766174  0.44291976  0.94995202  1
  Te  Te159  1  0.27603518  0.72401255  0.24720812  1
  Te  Te160  1  0.28547620  0.74340231  0.57387644  1
  Te  Te161  1  0.24130074  0.75221623  0.91881832  1
  Te  Te162  1  0.57879320  0.08329317  0.23829745  1
  Te  Te163  1  0.61170704  0.09742247  0.57241862  1
  Te  Te164  1  0.56974965  0.08341614  0.91082616  1
  Te  Te165  1  0.58331843  0.44560460  0.24465520  1
  Te  Te166  1  0.56077502  0.42077037  0.60726870  1
  Te  Te167  1  0.59456483  0.40394526  0.92779252  1
  Te  Te168  1  0.56875446  0.74721587  0.26782771  1
  Te  Te169  1  0.56559974  0.73243970  0.57296859  1
  Te  Te170  1  0.56988099  0.75316783  0.86593147  1
  Te  Te171  1  0.91720804  0.09151030  0.26221958  1
  Te  Te172  1  0.91684511  0.08498866  0.58740975  1
  Te  Te173  1  0.88887055  0.10555815  0.93717075  1
  Te  Te174  1  0.89703954  0.43871904  0.25718967  1
  Te  Te175  1  0.93647544  0.42964022  0.57730775  1
  Te  Te176  1  0.93738222  0.42267745  0.90987205  1
  Te  Te177  1  0.89955489  0.73790484  0.24575572  1
  Te  Te178  1  0.90988185  0.74922069  0.57862821  1
  Te  Te179  1  0.90570649  0.76864987  0.91273133  1
