# generated using pymatgen
data_In2Te3
_symmetry_space_group_name_H-M   'P 1'
_cell_length_a   18.83606867
_cell_length_b   18.82807309
_cell_length_c   18.83011885
_cell_angle_alpha   90.03160386
_cell_angle_beta   89.99994322
_cell_angle_gamma   89.88456102
_symmetry_Int_Tables_number   1
_chemical_formula_structural   In2Te3
_chemical_formula_sum   'In72 Te108'
_cell_volume   6678.02828346
_cell_formula_units_Z   36
loop_
 _symmetry_equiv_pos_site_id
 _symmetry_equiv_pos_as_xyz
  1  'x, y, z'
loop_
 _atom_site_type_symbol
 _atom_site_label
 _atom_site_symmetry_multiplicity
 _atom_site_fract_x
 _atom_site_fract_y
 _atom_site_fract_z
 _atom_site_occupancy
  In  In0  1  0.69411202  0.01225015  0.01366714  1
  In  In1  1  -0.02638839  0.66130589  0.02472007  1
  In  In2  1  0.32355980  0.31754059  0.62769796  1
  In  In3  1  0.66247895  0.83695928  0.83163688  1
  In  In4  1  0.14597868  0.83204026  0.64621809  1
  In  In5  1  0.82306905  0.33244359  0.83201703  1
  In  In6  1  0.81050332  0.67852879  0.50633364  1
  In  In7  1  0.51207247  0.00857626  0.18096969  1
  In  In8  1  0.84204349  0.85047403  0.65933775  1
  In  In9  1  0.51846120  0.49955697  0.65304366  1
  In  In10  1  -0.01244447  0.49514273  0.17825416  1
  In  In11  1  0.84410274  0.15951082  0.04997582  1
  In  In12  1  0.66280033  0.17035764  0.84309883  1
  In  In13  1  0.67756985  0.85737515  0.47057225  1
  In  In14  1  0.14296102  0.67276860  0.47715957  1
  In  In15  1  0.69874540  -0.00003861  0.30845898  1
  In  In16  1  0.17812691  0.48096516  0.33225033  1
  In  In17  1  -0.02510701  0.84822064  0.18771985  1
  In  In18  1  0.50854207  0.47794762  0.01080514  1
  In  In19  1  0.50154471  0.16502780  0.65328965  1
  In  In20  1  -0.00669087  0.68945347  0.68166190  1
  In  In21  1  0.18826275  0.49149550  0.65752656  1
  In  In22  1  0.35045294  0.63219833  0.66006951  1
  In  In23  1  0.83506106  0.48571350  0.32645729  1
  In  In24  1  -0.00667480  0.68901502  0.33058644  1
  In  In25  1  -0.01144496  0.17290402  0.21401710  1
  In  In26  1  0.82863293  0.15608632  0.62987280  1
  In  In27  1  0.68236536  0.67310611  0.32657638  1
  In  In28  1  0.70673775  0.68213137  0.02838656  1
  In  In29  1  0.16153576  0.32457039  0.19354032  1
  In  In30  1  0.84476393  0.46828067  0.65458734  1
  In  In31  1  -0.01873509  0.30660731  0.00272477  1
  In  In32  1  0.69198187  0.34412540  0.04940314  1
  In  In33  1  0.00844330  0.31410230  0.64392575  1
  In  In34  1  0.01289502  0.48821668  0.48861801  1
  In  In35  1  0.17509913  0.00606485  0.82115277  1
  In  In36  1  0.34863276  0.19657904  0.24556520  1
  In  In37  1  0.64634746  0.66023011  0.67397897  1
  In  In38  1  0.33722153  0.83150861  0.18715685  1
  In  In39  1  0.49001273  0.83621882  0.01845032  1
  In  In40  1  0.35838757  -0.01723852  0.00219596  1
  In  In41  1  0.30627599  0.85353488  0.50990557  1
  In  In42  1  -0.00603163  0.49737397  0.84118595  1
  In  In43  1  0.51705097  0.17827178  0.01306532  1
  In  In44  1  0.83906340  0.67531448  0.86703196  1
  In  In45  1  0.49133385  0.66311375  0.83642558  1
  In  In46  1  0.30421253  0.83170753  0.85890921  1
  In  In47  1  0.17616772  0.83002426  -0.00648996  1
  In  In48  1  0.65872688  0.17708763  0.50319689  1
  In  In49  1  0.32703113  0.34785810  0.02051374  1
  In  In50  1  0.50131219  0.85737262  0.65676723  1
  In  In51  1  0.86590649  -0.00605712  0.46589533  1
  In  In52  1  0.48024549  0.66035338  0.52313633  1
  In  In53  1  0.14982713  0.01320505  0.18989787  1
  In  In54  1  0.18065121  0.66233872  0.15051399  1
  In  In55  1  0.67213311  0.31799904  0.29858061  1
  In  In56  1  0.50065410  0.46590165  0.35113276  1
  In  In57  1  0.65877168  0.47602462  0.47219647  1
  In  In58  1  0.34611405  0.02021012  0.65301089  1
  In  In59  1  0.16518202  0.50964235  0.00989139  1
  In  In60  1  0.49944406  0.66640237  0.17018117  1
  In  In61  1  0.33237546  0.49694324  0.82616562  1
  In  In62  1  0.01191557  0.15147497  0.82822029  1
  In  In63  1  0.15188854  0.01492465  0.47077247  1
  In  In64  1  0.50418840  0.84049690  0.34004915  1
  In  In65  1  0.31676731  0.66732645  0.32224659  1
  In  In66  1  0.49847345  0.32962813  0.83942072  1
  In  In67  1  -0.00566122  -0.02080242  0.02183249  1
  In  In68  1  0.33448040  0.17666245  0.79275484  1
  In  In69  1  0.16370690  0.17869668  -0.01021446  1
  In  In70  1  0.83198072  -0.00905739  0.82993247  1
  In  In71  1  0.16790587  0.17191382  0.64172717  1
  Te  Te72  1  0.07079861  0.09964209  0.08242857  1
  Te  Te73  1  0.05295128  0.11719669  0.41808013  1
  Te  Te74  1  0.08269552  0.07153123  0.72010501  1
  Te  Te75  1  0.07994420  0.40358045  0.08130086  1
  Te  Te76  1  0.09505168  0.38842242  0.41411228  1
  Te  Te77  1  0.07106525  0.42302417  0.73324252  1
  Te  Te78  1  0.07677552  0.76673692  0.09432641  1
  Te  Te79  1  0.06963150  0.78513904  0.41437765  1
  Te  Te80  1  0.09072329  0.76262594  0.76339981  1
  Te  Te81  1  0.41563814  0.09050492  0.09340071  1
  Te  Te82  1  0.38417575  0.12838123  0.37523436  1
  Te  Te83  1  0.43690049  0.07200445  0.76391027  1
  Te  Te84  1  0.44159534  0.38593020  0.10616039  1
  Te  Te85  1  0.37678252  0.38648626  0.38101470  1
  Te  Te86  1  0.41279930  0.40429494  0.73599616  1
  Te  Te87  1  0.39401879  0.73687872  0.08266842  1
  Te  Te88  1  0.40644390  0.75369866  0.42017071  1
  Te  Te89  1  0.42001293  0.74919589  0.73249719  1
  Te  Te90  1  0.71447906  0.12057102  0.11712616  1
  Te  Te91  1  0.75713009  0.09059315  0.41889086  1
  Te  Te92  1  0.75136842  0.08970236  0.74843890  1
  Te  Te93  1  0.77223444  0.44231903  0.12422032  1
  Te  Te94  1  0.75978044  0.38141159  0.40863744  1
  Te  Te95  1  0.73989394  0.41445475  0.74251833  1
  Te  Te96  1  0.77196262  0.76931711  0.12801469  1
  Te  Te97  1  0.77692203  0.77398272  0.39089774  1
  Te  Te98  1  0.75430506  0.74573243  0.74073488  1
  Te  Te99  1  0.11441548  0.21718035  0.28784643  1
  Te  Te100  1  0.07725111  0.23228150  0.53852156  1
  Te  Te101  1  0.08356112  0.26808566  0.89574739  1
  Te  Te102  1  0.08739705  0.58613922  0.25435210  1
  Te  Te103  1  0.07405388  0.58611724  0.59039205  1
  Te  Te104  1  0.07233471  0.59707304  0.92491563  1
  Te  Te105  1  0.03949934  0.95612372  0.27474210  1
  Te  Te106  1  0.07397009  0.93141552  0.56708023  1
  Te  Te107  1  0.08509352  0.92209993  0.91120831  1
  Te  Te108  1  0.46093075  0.29388878  0.29513669  1
  Te  Te109  1  0.42038829  0.23721299  0.55296284  1
  Te  Te110  1  0.40225695  0.24365384  0.92116124  1
  Te  Te111  1  0.42586967  0.57666372  0.26725437  1
  Te  Te112  1  0.40238052  0.53403090  0.55574735  1
  Te  Te113  1  0.41467236  0.57079374  0.93023694  1
  Te  Te114  1  0.40737196  0.93594390  0.26880356  1
  Te  Te115  1  0.42648659  0.93860525  0.55067691  1
  Te  Te116  1  0.43265014  0.90476054  0.89346925  1
  Te  Te117  1  0.76508730  0.21542032  0.23826697  1
  Te  Te118  1  0.74260316  0.26643140  0.58778709  1
  Te  Te119  1  0.75747970  0.23943908  0.94187312  1
  Te  Te120  1  0.73036324  0.55714812  0.24127294  1
  Te  Te121  1  0.73638637  0.56755635  0.58105716  1
  Te  Te122  1  0.74002125  0.58394205  0.92317913  1
  Te  Te123  1  0.76123217  0.90177105  0.21455020  1
  Te  Te124  1  0.75821968  0.93848570  0.56991941  1
  Te  Te125  1  0.76056074  0.90137945  0.93061435  1
  Te  Te126  1  0.25317953  0.23684874  0.09839558  1
  Te  Te127  1  0.29078998  0.25070237  0.37989763  1
  Te  Te128  1  0.22793410  0.26810128  0.74463306  1
  Te  Te129  1  0.26932756  0.55032874  0.10946037  1
  Te  Te130  1  0.25078143  0.57748287  0.42640317  1
  Te  Te131  1  0.23803197  0.59555186  0.75848543  1
  Te  Te132  1  0.24516229  0.92987089  0.09504545  1
  Te  Te133  1  0.23786830  0.91699319  0.39713157  1
  Te  Te134  1  0.26364254  0.91698862  0.73218043  1
  Te  Te135  1  0.57686204  0.27086821  0.11228424  1
  Te  Te136  1  0.57803490  0.25357089  0.39927563  1
  Te  Te137  1  0.58896572  0.25652355  0.74141993  1
  Te  Te138  1  0.58989517  0.58934792  0.07606773  1
  Te  Te139  1  0.58180422  0.60389833  0.42070832  1
  Te  Te140  1  0.58726404  0.56134030  0.77477224  1
  Te  Te141  1  0.59430844  0.91798368  0.08935661  1
  Te  Te142  1  0.58107530  0.95371689  0.40498255  1
  Te  Te143  1  0.60492803  0.92895883  0.73248768  1
  Te  Te144  1  0.90353543  0.27659690  0.12791674  1
  Te  Te145  1  0.93426924  0.20064746  0.35820070  1
  Te  Te146  1  0.91498093  0.24160913  0.74814992  1
  Te  Te147  1  0.88648362  0.55274655  0.08264432  1
  Te  Te148  1  0.90978507  0.58783811  0.42181645  1
  Te  Te149  1  0.90148225  0.58228256  0.74404682  1
  Te  Te150  1  0.88467010  0.95194481  0.12048129  1
  Te  Te151  1  0.93291260  0.89800328  0.37415273  1
  Te  Te152  1  0.93299294  0.91714761  0.75319052  1
  Te  Te153  1  0.24633476  0.08311084  0.28078711  1
  Te  Te154  1  0.26222193  0.09417865  0.55185249  1
  Te  Te155  1  0.26157637  0.08045600  0.92183606  1
  Te  Te156  1  0.26821747  0.42425030  0.22727514  1
  Te  Te157  1  0.22078417  0.39348132  0.55223139  1
  Te  Te158  1  0.23928536  0.41414460  0.91382918  1
  Te  Te159  1  0.21920999  0.76601379  0.25775483  1
  Te  Te160  1  0.25224977  0.72877958  0.58076405  1
  Te  Te161  1  0.25476506  0.71755950  0.93641982  1
  Te  Te162  1  0.58971558  0.09595176  0.27014060  1
  Te  Te163  1  0.59065189  0.07148412  0.58197583  1
  Te  Te164  1  0.58232853  0.07065559  0.92604147  1
  Te  Te165  1  0.60789613  0.44631748  0.24911396  1
  Te  Te166  1  0.56651250  0.39870067  0.55771436  1
  Te  Te167  1  0.60386185  0.39313845  0.92780857  1
  Te  Te168  1  0.59134406  0.76407641  0.24199546  1
  Te  Te169  1  0.59564669  0.76210580  0.56630245  1
  Te  Te170  1  0.58292697  0.74630959  0.92723362  1
  Te  Te171  1  0.86598734  0.09638864  0.26313770  1
  Te  Te172  1  0.93638479  0.07795447  0.56784705  1
  Te  Te173  1  0.91654492  0.08714491  0.92834701  1
  Te  Te174  1  0.95163989  0.40188865  0.28756334  1
  Te  Te175  1  0.91329883  0.38614621  0.54692687  1
  Te  Te176  1  0.90159438  0.41760023  0.93173066  1
  Te  Te177  1  0.89928585  0.72001136  0.21862569  1
  Te  Te178  1  0.92408090  0.76134387  0.56580973  1
  Te  Te179  1  0.91795495  0.77170251  0.94313156  1
