# generated using pymatgen
data_In2Te3
_symmetry_space_group_name_H-M   'P 1'
_cell_length_a   18.87291883
_cell_length_b   18.89142083
_cell_length_c   18.88235210
_cell_angle_alpha   90.20583418
_cell_angle_beta   89.94137930
_cell_angle_gamma   89.99667080
_symmetry_Int_Tables_number   1
_chemical_formula_structural   In2Te3
_chemical_formula_sum   'In72 Te108'
_cell_volume   6732.19606854
_cell_formula_units_Z   36
loop_
 _symmetry_equiv_pos_site_id
 _symmetry_equiv_pos_as_xyz
  1  'x, y, z'
loop_
 _atom_site_type_symbol
 _atom_site_label
 _atom_site_symmetry_multiplicity
 _atom_site_fract_x
 _atom_site_fract_y
 _atom_site_fract_z
 _atom_site_occupancy
  In  In0  1  0.66545789  0.01874490  -0.00740409  1
  In  In1  1  0.64524105  0.64231231  0.02160996  1
  In  In2  1  0.17947763  0.49060082  0.32457698  1
  In  In3  1  0.65947911  0.67528377  0.32011517  1
  In  In4  1  -0.00834109  0.14315389  0.50015441  1
  In  In5  1  0.01711181  0.84239708  0.49975917  1
  In  In6  1  0.85515438  0.82902366  0.01280536  1
  In  In7  1  0.48644546  0.14996513  0.01864612  1
  In  In8  1  0.16313091  0.65680046  0.48507830  1
  In  In9  1  0.33575192  0.49280001  0.50141155  1
  In  In10  1  0.48959304  0.29361984  0.50222562  1
  In  In11  1  0.47661218  0.34884187  0.16691679  1
  In  In12  1  0.00018663  0.45936218  0.20982479  1
  In  In13  1  -0.02691119  0.51073305  0.47177595  1
  In  In14  1  0.47440983  -0.00964304  0.15686770  1
  In  In15  1  0.20773448  0.34907814  0.86438878  1
  In  In16  1  0.33674862  0.00232329  0.64089554  1
  In  In17  1  0.65451238  0.84556095  0.82196018  1
  In  In18  1  0.84362707  0.50323578  0.00470835  1
  In  In19  1  0.17943802  0.16567745  0.00293419  1
  In  In20  1  0.49339226  0.48249358  0.68404339  1
  In  In21  1  0.46755452  0.82979254  0.67095044  1
  In  In22  1  0.19644376  0.12927389  0.65994548  1
  In  In23  1  0.49301609  0.49964918  0.33027099  1
  In  In24  1  0.69030615  0.18436873  0.19075648  1
  In  In25  1  0.16798986  0.84209010  0.69504290  1
  In  In26  1  0.63559617  0.03269795  0.36703082  1
  In  In27  1  -0.00005061  0.32541332  0.66947995  1
  In  In28  1  0.32386320  0.64791930  0.01434753  1
  In  In29  1  0.01256644  0.66627623  -0.01019224  1
  In  In30  1  0.84853763  -0.00436439  0.17373275  1
  In  In31  1  0.33229740  0.83265504  0.17674579  1
  In  In32  1  0.65507617  0.85136155  0.48066837  1
  In  In33  1  0.63324723  0.81901563  0.18651351  1
  In  In34  1  0.15589590  0.86367456  -0.02960846  1
  In  In35  1  0.17449510  0.31952570  0.49323158  1
  In  In36  1  0.83015428  0.67894694  0.19220056  1
  In  In37  1  0.85400399  0.19678749  -0.01321394  1
  In  In38  1  -0.01637794  0.82713968  0.17333898  1
  In  In39  1  0.29651790  0.86125742  0.47770773  1
  In  In40  1  0.83053593  0.83572114  0.35155966  1
  In  In41  1  0.64246919  0.16706690  0.83838955  1
  In  In42  1  0.16427405  0.01565530  0.17157398  1
  In  In43  1  0.68451256  0.33433827  0.65612589  1
  In  In44  1  0.49350442  0.34152792  0.84349948  1
  In  In45  1  0.63778005  0.36078038  0.00459700  1
  In  In46  1  0.46000697  0.86925542  -0.02732468  1
  In  In47  1  0.65247903  0.49259513  0.17061871  1
  In  In48  1  0.49256462  0.69820635  0.48217148  1
  In  In49  1  0.16597742  0.66948633  0.82580260  1
  In  In50  1  0.83817681  0.34423545  0.81781441  1
  In  In51  1  0.01390543  0.51591000  0.83832636  1
  In  In52  1  0.19146907  0.33919535  0.16579073  1
  In  In53  1  0.02608177  0.31617459  0.03184414  1
  In  In54  1  0.83071598  0.82928751  0.64043210  1
  In  In55  1  0.17519149  0.17421015  0.32434667  1
  In  In56  1  0.01196869  0.00920028  0.66516183  1
  In  In57  1  0.83140231  0.01069620  0.81251913  1
  In  In58  1  0.00396968  -0.01504445  0.33652127  1
  In  In59  1  0.18254150  0.65736299  0.16998771  1
  In  In60  1  0.48989426  0.65846248  0.85816099  1
  In  In61  1  0.00657290  0.16309352  0.80670439  1
  In  In62  1  0.32804281  0.66237890  0.67566617  1
  In  In63  1  0.49158231  0.17391971  0.32211378  1
  In  In64  1  0.83321103  0.31892886  0.50210636  1
  In  In65  1  0.67994576  0.65238641  0.65229366  1
  In  In66  1  0.69018277  0.49488903  0.50790820  1
  In  In67  1  0.33473124  0.15641872  0.82728379  1
  In  In68  1  0.84364125  0.66507304  0.86108506  1
  In  In69  1  0.17901963  0.49414644  0.64844053  1
  In  In70  1  0.83792406  0.16382676  0.34724806  1
  In  In71  1  0.61479284  0.02413314  0.63672446  1
  Te  Te72  1  0.07825379  0.09638396  0.08386086  1
  Te  Te73  1  0.09730177  0.07297307  0.41837760  1
  Te  Te74  1  0.11577485  0.05676475  0.77780725  1
  Te  Te75  1  0.09092824  0.43756591  0.09047841  1
  Te  Te76  1  0.08666089  0.41758765  0.42006314  1
  Te  Te77  1  0.09352631  0.41416089  0.75234363  1
  Te  Te78  1  0.08930957  0.75577668  0.08655070  1
  Te  Te79  1  0.10493063  0.76648133  0.40665706  1
  Te  Te80  1  0.07518559  0.73475132  0.73215089  1
  Te  Te81  1  0.37809275  0.07523993  0.08547223  1
  Te  Te82  1  0.42507626  0.09623482  0.42990800  1
  Te  Te83  1  0.42517373  0.09826427  0.72173780  1
  Te  Te84  1  0.40638976  0.42464981  0.06424412  1
  Te  Te85  1  0.41585515  0.39838410  0.41371025  1
  Te  Te86  1  0.39350950  0.40014226  0.75054094  1
  Te  Te87  1  0.41551716  0.76207803  0.06726260  1
  Te  Te88  1  0.37891054  0.75578843  0.40970451  1
  Te  Te89  1  0.39689047  0.75018702  0.77942244  1
  Te  Te90  1  0.76522741  0.09092297  0.08255092  1
  Te  Te91  1  0.74884026  0.08991995  0.44064762  1
  Te  Te92  1  0.71980402  0.08139983  0.73920343  1
  Te  Te93  1  0.75467212  0.41207212  0.08762844  1
  Te  Te94  1  0.76714733  0.41595663  0.40885710  1
  Te  Te95  1  0.74540251  0.43174202  0.74754515  1
  Te  Te96  1  0.74547885  0.74832776  0.08299657  1
  Te  Te97  1  0.74438937  0.73900430  0.43041250  1
  Te  Te98  1  0.75425548  0.74877023  0.75868001  1
  Te  Te99  1  0.09222545  0.27069185  0.25078949  1
  Te  Te100  1  0.09103540  0.22890143  0.59345115  1
  Te  Te101  1  0.08439912  0.25529449  0.90462056  1
  Te  Te102  1  0.07851948  0.58082350  0.25587048  1
  Te  Te103  1  0.07444926  0.57389784  0.57630762  1
  Te  Te104  1  0.11656824  0.57076381  0.93572939  1
  Te  Te105  1  0.09314062  0.90124762  0.24826678  1
  Te  Te106  1  0.11126639  0.92995449  0.58360117  1
  Te  Te107  1  0.08138749  0.93447452  0.86921111  1
  Te  Te108  1  0.40144647  0.23221644  0.21942219  1
  Te  Te109  1  0.42801371  0.20666803  0.60675982  1
  Te  Te110  1  0.41096326  0.24433191  0.92654475  1
  Te  Te111  1  0.44052419  0.59778054  0.23436106  1
  Te  Te112  1  0.42538462  0.59082690  0.58180886  1
  Te  Te113  1  0.39931823  0.55852908  0.92071015  1
  Te  Te114  1  0.41984375  0.91282051  0.26867414  1
  Te  Te115  1  0.42390309  0.91186271  0.55293477  1
  Te  Te116  1  0.36896263  0.94784993  0.88969303  1
  Te  Te117  1  0.77819352  0.27864619  0.26746456  1
  Te  Te118  1  0.73248861  0.22943251  0.56402658  1
  Te  Te119  1  0.73636038  0.26181457  0.91466670  1
  Te  Te120  1  0.75103920  0.56933967  0.26013791  1
  Te  Te121  1  0.78514507  0.58130785  0.58019137  1
  Te  Te122  1  0.73741222  0.57295442  0.92073413  1
  Te  Te123  1  0.74915438  0.90686160  0.24461364  1
  Te  Te124  1  0.72762928  0.92960752  0.58804146  1
  Te  Te125  1  0.76054535  0.91630481  0.91953634  1
  Te  Te126  1  0.27265572  0.23336182  0.09721301  1
  Te  Te127  1  0.27235456  0.24105926  0.41606864  1
  Te  Te128  1  0.23616506  0.24605672  0.75419519  1
  Te  Te129  1  0.28932089  0.55973167  0.13055728  1
  Te  Te130  1  0.27118208  0.58645397  0.40261126  1
  Te  Te131  1  0.25607707  0.56135136  0.76148055  1
  Te  Te132  1  0.24214690  0.91663812  0.08323138  1
  Te  Te133  1  0.24528322  0.96266977  0.38500809  1
  Te  Te134  1  0.28271672  0.91797992  0.75572402  1
  Te  Te135  1  0.59005573  0.24210952  0.08796785  1
  Te  Te136  1  0.58972021  0.25016807  0.40254709  1
  Te  Te137  1  0.57861925  0.26256719  0.74193648  1
  Te  Te138  1  0.54351345  0.56975120  0.10270768  1
  Te  Te139  1  0.58323906  0.58629397  0.42847462  1
  Te  Te140  1  0.57583605  0.59321592  0.74846243  1
  Te  Te141  1  0.58569127  0.91512529  0.07132533  1
  Te  Te142  1  0.56470985  0.90315641  0.37635257  1
  Te  Te143  1  0.55579625  0.92981852  0.74595368  1
  Te  Te144  1  0.91462602  0.25681696  0.10533449  1
  Te  Te145  1  0.94257234  0.25538462  0.41472211  1
  Te  Te146  1  0.89377286  0.23292012  0.73010267  1
  Te  Te147  1  0.92047675  0.60087885  0.09228199  1
  Te  Te148  1  0.91402167  0.60425690  0.37830368  1
  Te  Te149  1  0.90968263  0.58110289  0.75993665  1
  Te  Te150  1  0.94579645  0.93612891  0.07220896  1
  Te  Te151  1  0.90407134  0.93431473  0.43846148  1
  Te  Te152  1  0.91746470  0.91158971  0.73709585  1
  Te  Te153  1  0.26834482  0.06492075  0.27041937  1
  Te  Te154  1  0.28227719  0.10114222  0.54044515  1
  Te  Te155  1  0.26325941  0.06706548  0.92479369  1
  Te  Te156  1  0.28423807  0.41578320  0.25338443  1
  Te  Te157  1  0.27205906  0.38793813  0.59094478  1
  Te  Te158  1  0.28729493  0.42237529  0.96260695  1
  Te  Te159  1  0.25077857  0.74683269  0.26586733  1
  Te  Te160  1  0.24604389  0.75019368  0.58451505  1
  Te  Te161  1  0.24604574  0.75077940  0.92538148  1
  Te  Te162  1  0.59229430  0.07313666  0.22704252  1
  Te  Te163  1  0.53397474  0.10695417  0.53582546  1
  Te  Te164  1  0.55076942  0.06698913  0.90624444  1
  Te  Te165  1  0.58433031  0.39467462  0.26482825  1
  Te  Te166  1  0.57126743  0.41398664  0.57163860  1
  Te  Te167  1  0.57809104  0.44727952  0.90461122  1
  Te  Te168  1  0.53628135  0.72227139  0.24756553  1
  Te  Te169  1  0.58663950  0.76000994  0.59487438  1
  Te  Te170  1  0.58724313  0.75616002  0.92613743  1
  Te  Te171  1  0.93482344  0.09160146  0.25240345  1
  Te  Te172  1  0.90322424  0.08210071  0.59921606  1
  Te  Te173  1  0.92306413  0.08544837  0.90971007  1
  Te  Te174  1  0.88206502  0.39842123  0.26887378  1
  Te  Te175  1  0.91763957  0.41729205  0.58501569  1
  Te  Te176  1  0.93102731  0.40911916  0.92144973  1
  Te  Te177  1  0.93384220  0.73524528  0.29321133  1
  Te  Te178  1  0.92682327  0.74728040  0.56740954  1
  Te  Te179  1  0.94507930  0.77133043  0.90393236  1
