# generated using pymatgen
data_In2Te3
_symmetry_space_group_name_H-M   'P 1'
_cell_length_a   18.97691800
_cell_length_b   18.96823201
_cell_length_c   18.95470805
_cell_angle_alpha   89.96536812
_cell_angle_beta   90.12870941
_cell_angle_gamma   89.91415250
_symmetry_Int_Tables_number   1
_chemical_formula_structural   In2Te3
_chemical_formula_sum   'In72 Te108'
_cell_volume   6822.88372646
_cell_formula_units_Z   36
loop_
 _symmetry_equiv_pos_site_id
 _symmetry_equiv_pos_as_xyz
  1  'x, y, z'
loop_
 _atom_site_type_symbol
 _atom_site_label
 _atom_site_symmetry_multiplicity
 _atom_site_fract_x
 _atom_site_fract_y
 _atom_site_fract_z
 _atom_site_occupancy
  In  In0  1  0.01597416  0.84864935  0.18480997  1
  In  In1  1  0.67812005  0.01107195  0.01070449  1
  In  In2  1  0.83444389  0.47155131  0.65908119  1
  In  In3  1  0.14387860  0.36545062  0.82310110  1
  In  In4  1  0.48021915  0.00386835  0.16129019  1
  In  In5  1  0.15645836  0.81885667  -0.00672052  1
  In  In6  1  0.32236882  0.66128672  -0.01034886  1
  In  In7  1  0.32980373  0.34618192  -0.02676231  1
  In  In8  1  0.17427392  0.68148793  0.15715353  1
  In  In9  1  0.49764339  0.01484945  0.82858632  1
  In  In10  1  -0.01775564  0.32321161  -0.00728001  1
  In  In11  1  0.17815031  -0.01082000  0.83848277  1
  In  In12  1  0.64138480  0.48875985  0.83695376  1
  In  In13  1  0.17085277  0.19050786  0.65756039  1
  In  In14  1  -0.01699838  0.17081329  0.18233125  1
  In  In15  1  0.00579656  0.32530023  0.65850250  1
  In  In16  1  0.83701708  0.65287947  0.50416994  1
  In  In17  1  0.19791762  0.15561546  0.32628409  1
  In  In18  1  -0.01988756  0.14324568  0.81734978  1
  In  In19  1  0.51240797  0.65397766  0.49332042  1
  In  In20  1  0.49220611  0.32075110  0.75672466  1
  In  In21  1  0.65801784  0.84737894  0.85926227  1
  In  In22  1  0.83117573  0.17091965  0.64998942  1
  In  In23  1  0.88549446  0.80700402  0.68786595  1
  In  In24  1  0.48890175  0.81448920  0.66825721  1
  In  In25  1  0.67718911  0.33285588  0.33901588  1
  In  In26  1  0.01082349  0.51934484  0.81652158  1
  In  In27  1  0.29097370  0.64110249  0.68913091  1
  In  In28  1  0.48719521  0.16990669  0.32195668  1
  In  In29  1  0.31925039  0.01362154  0.66497946  1
  In  In30  1  0.16665475  0.36874216  0.17091122  1
  In  In31  1  -0.00048142  0.67737236  0.33693408  1
  In  In32  1  0.52029967  0.03802111  0.49548842  1
  In  In33  1  0.32131124  0.49870537  0.49063145  1
  In  In34  1  0.48568418  0.12798322  0.00227419  1
  In  In35  1  -0.00984657  0.49087456  0.15757332  1
  In  In36  1  0.50570874  0.50000559  0.33304004  1
  In  In37  1  0.18090962  0.32915886  0.49017562  1
  In  In38  1  0.84108959  0.49821985  0.34116454  1
  In  In39  1  0.66873157  0.33634704  0.65614975  1
  In  In40  1  0.69678620  0.66773743  0.66233885  1
  In  In41  1  0.82257550  0.00516159  0.18776691  1
  In  In42  1  0.51911606  0.49676198  0.01020282  1
  In  In43  1  0.48701549  0.29921678  0.50696029  1
  In  In44  1  0.13743677  0.18381566  0.02345288  1
  In  In45  1  0.33372139  0.83423518  0.50738168  1
  In  In46  1  0.17201673  0.50171495  0.33884786  1
  In  In47  1  0.50217796  0.67220669  0.82029823  1
  In  In48  1  0.33444386  -0.00769145  0.02688978  1
  In  In49  1  -0.01497455  0.30987125  0.35083454  1
  In  In50  1  0.33154801  0.83598937  0.17312735  1
  In  In51  1  0.46573516  0.46778373  0.64848101  1
  In  In52  1  0.48326716  0.32806856  0.16817711  1
  In  In53  1  0.85917410  0.66318160  0.17594035  1
  In  In54  1  0.16984624  0.83348114  0.33561222  1
  In  In55  1  0.71252395  0.83582121  0.48591514  1
  In  In56  1  -0.00544070  -0.00762139  0.65127807  1
  In  In57  1  0.64784415  0.81868237  0.14984009  1
  In  In58  1  0.50688198  0.83527846  0.32921181  1
  In  In59  1  0.70124242  0.30937710  -0.02962716  1
  In  In60  1  0.12366597  0.81205978  0.66189794  1
  In  In61  1  0.83934424  0.64839714  0.84765864  1
  In  In62  1  0.65660523  0.17744642  0.19401605  1
  In  In63  1  0.16802544  0.01631034  0.50904988  1
  In  In64  1  0.69686669  0.00517736  0.62349837  1
  In  In65  1  0.47608798  0.83010107  -0.03910841  1
  In  In66  1  0.49534462  0.64006776  0.17075580  1
  In  In67  1  0.83454883  0.82276206  -0.00976013  1
  In  In68  1  0.82858972  0.47559407  0.00228865  1
  In  In69  1  0.00070735  0.01639756  0.00651218  1
  In  In70  1  0.70859386  0.00927953  0.36195915  1
  In  In71  1  0.31438268  0.15279924  0.82565561  1
  Te  Te72  1  0.08503337  0.07655334  0.11592303  1
  Te  Te73  1  0.09342972  0.09299838  0.40786161  1
  Te  Te74  1  0.10306607  0.08306786  0.74194264  1
  Te  Te75  1  0.07916567  0.42176176  0.05633078  1
  Te  Te76  1  0.07840758  0.41312492  0.41679773  1
  Te  Te77  1  0.08732538  0.44389073  0.70537586  1
  Te  Te78  1  0.05867283  0.74541886  0.08237245  1
  Te  Te79  1  0.10597877  0.73239670  0.42238707  1
  Te  Te80  1  0.07209319  0.73663500  0.78699206  1
  Te  Te81  1  0.37815817  0.11264947  0.11917572  1
  Te  Te82  1  0.40992740  0.08831251  0.41651808  1
  Te  Te83  1  0.42376804  0.10249622  0.72997430  1
  Te  Te84  1  0.40607809  0.42442974  0.07967275  1
  Te  Te85  1  0.42220099  0.41052392  0.42337993  1
  Te  Te86  1  0.40484667  0.43707266  0.77778501  1
  Te  Te87  1  0.42454234  0.75580043  0.08487287  1
  Te  Te88  1  0.41939498  0.74712068  0.41662779  1
  Te  Te89  1  0.38773582  0.74747623  0.75556302  1
  Te  Te90  1  0.75382404  0.10662577  0.09844876  1
  Te  Te91  1  0.77739718  0.10056314  0.45748717  1
  Te  Te92  1  0.76897080  0.06713307  0.73411656  1
  Te  Te93  1  0.75409143  0.38061951  0.08673019  1
  Te  Te94  1  0.76818722  0.40418696  0.43086216  1
  Te  Te95  1  0.74826010  0.40874523  0.76674274  1
  Te  Te96  1  0.75457594  0.73620819  0.08349187  1
  Te  Te97  1  0.75987372  0.72736560  0.40290654  1
  Te  Te98  1  0.75013784  0.75965270  0.77036443  1
  Te  Te99  1  0.09119482  0.26270616  0.24904917  1
  Te  Te100  1  0.07089603  0.23579556  0.55375514  1
  Te  Te101  1  0.07996348  0.24042901  0.89427179  1
  Te  Te102  1  0.07749208  0.58524355  0.23848236  1
  Te  Te103  1  0.05799425  0.67344378  0.65171380  1
  Te  Te104  1  0.10088695  0.61544225  0.88758807  1
  Te  Te105  1  0.07476595  0.93501266  0.28652738  1
  Te  Te106  1  0.07056947  0.90870479  0.55187091  1
  Te  Te107  1  0.06911299  0.91840353  0.91398724  1
  Te  Te108  1  0.39217191  0.27150103  0.26991646  1
  Te  Te109  1  0.42773228  0.25968961  0.63603534  1
  Te  Te110  1  0.41048356  0.22886112  0.91590451  1
  Te  Te111  1  0.39984535  0.57279233  0.25949363  1
  Te  Te112  1  0.41158312  0.59874710  0.59412016  1
  Te  Te113  1  0.43022709  0.58174617  0.91789000  1
  Te  Te114  1  0.40364339  0.92854311  0.26877034  1
  Te  Te115  1  0.42484013  0.92845430  0.58858991  1
  Te  Te116  1  0.38845820  0.93391150  0.89420261  1
  Te  Te117  1  0.76921417  0.22942000  0.27754698  1
  Te  Te118  1  0.77468774  0.28272299  0.56550819  1
  Te  Te119  1  0.79607963  0.21957267  0.90970154  1
  Te  Te120  1  0.76659258  0.56832390  0.23542200  1
  Te  Te121  1  0.74085642  0.55623676  0.57240392  1
  Te  Te122  1  0.73492961  0.57076534  0.92462614  1
  Te  Te123  1  0.72611330  0.90456833  0.24648417  1
  Te  Te124  1  0.79622838  0.89591257  0.59415384  1
  Te  Te125  1  0.76715848  0.93667829  0.91341792  1
  Te  Te126  1  0.24429895  0.27411314  0.07840699  1
  Te  Te127  1  0.27332796  0.26456949  0.39420006  1
  Te  Te128  1  0.24852466  0.27153919  0.75837128  1
  Te  Te129  1  0.23912509  0.57936660  0.07597403  1
  Te  Te130  1  0.22836417  0.59848537  0.43507776  1
  Te  Te131  1  0.22674065  0.57574874  0.80432399  1
  Te  Te132  1  0.22644701  0.91144388  0.09600914  1
  Te  Te133  1  0.25632295  0.92868760  0.42005705  1
  Te  Te134  1  0.23101350  0.90790172  0.72319065  1
  Te  Te135  1  0.56513234  0.22991445  0.08508162  1
  Te  Te136  1  0.58931701  0.23445498  0.41503965  1
  Te  Te137  1  0.61266163  0.23861994  0.74972664  1
  Te  Te138  1  0.60410397  0.56830875  0.10415798  1
  Te  Te139  1  0.60354590  0.57707272  0.41141233  1
  Te  Te140  1  0.58692879  0.58380455  0.73074968  1
  Te  Te141  1  0.56487751  0.91971246  0.05874762  1
  Te  Te142  1  0.59016662  0.91227499  0.43244277  1
  Te  Te143  1  0.57784360  0.91349143  0.74888258  1
  Te  Te144  1  0.90161113  0.26070288  0.09819534  1
  Te  Te145  1  0.87912186  0.21131524  0.38771615  1
  Te  Te146  1  0.90975591  0.25973416  0.75433011  1
  Te  Te147  1  0.92008865  0.58279737  0.05997772  1
  Te  Te148  1  0.94174668  0.57152129  0.42826870  1
  Te  Te149  1  0.90641569  0.58674399  0.72615099  1
  Te  Te150  1  0.90916162  0.92031298  0.08862283  1
  Te  Te151  1  0.85124965  0.98072254  0.40622851  1
  Te  Te152  1  0.93076180  0.92391426  0.76307468  1
  Te  Te153  1  0.26298972  0.08197650  0.21969489  1
  Te  Te154  1  0.26833842  0.11725639  0.56799574  1
  Te  Te155  1  0.23484953  0.08616008  0.94365823  1
  Te  Te156  1  0.26946190  0.44451335  0.24495330  1
  Te  Te157  1  0.25528486  0.41111880  0.58711128  1
  Te  Te158  1  0.23534921  0.44409782  0.91066743  1
  Te  Te159  1  0.26529233  0.73640304  0.26409244  1
  Te  Te160  1  0.24331522  0.74422535  0.58607197  1
  Te  Te161  1  0.26551106  0.76998954  0.90941370  1
  Te  Te162  1  0.58557488  0.05926363  0.25737620  1
  Te  Te163  1  0.60305524  0.11210674  0.58892089  1
  Te  Te164  1  0.60008478  0.09320345  0.90735609  1
  Te  Te165  1  0.58805345  0.40892964  0.24209794  1
  Te  Te166  1  0.57480873  0.41310481  0.56261781  1
  Te  Te167  1  0.57676786  0.38313229  0.92503152  1
  Te  Te168  1  0.58755482  0.73070215  0.25727114  1
  Te  Te169  1  0.59981642  0.75551014  0.58233356  1
  Te  Te170  1  0.58950104  0.73326089  0.93030520  1
  Te  Te171  1  0.92348097  0.06951619  0.27693137  1
  Te  Te172  1  0.94633056  0.10985288  0.57757434  1
  Te  Te173  1  0.90155461  0.10830476  0.94122901  1
  Te  Te174  1  0.91386078  0.40007560  0.24840479  1
  Te  Te175  1  0.91173469  0.39033734  0.56239698  1
  Te  Te176  1  0.92210203  0.42224290  0.89454595  1
  Te  Te177  1  0.90996345  0.77670578  0.26577534  1
  Te  Te178  1  0.93866679  0.74735775  0.56225223  1
  Te  Te179  1  0.93011749  0.74790508  0.90673033  1
