# generated using pymatgen
data_In2Te3
_symmetry_space_group_name_H-M   'P 1'
_cell_length_a   18.79142109
_cell_length_b   18.79780547
_cell_length_c   18.79638331
_cell_angle_alpha   89.96602539
_cell_angle_beta   89.86525710
_cell_angle_gamma   89.98964106
_symmetry_Int_Tables_number   1
_chemical_formula_structural   In2Te3
_chemical_formula_sum   'In72 Te108'
_cell_volume   6639.56740282
_cell_formula_units_Z   36
loop_
 _symmetry_equiv_pos_site_id
 _symmetry_equiv_pos_as_xyz
  1  'x, y, z'
loop_
 _atom_site_type_symbol
 _atom_site_label
 _atom_site_symmetry_multiplicity
 _atom_site_fract_x
 _atom_site_fract_y
 _atom_site_fract_z
 _atom_site_occupancy
  In  In0  1  0.83341215  0.66005987  0.83603925  1
  In  In1  1  0.49371641  0.67155347  0.18925120  1
  In  In2  1  0.51063092  0.12157997  -0.02574900  1
  In  In3  1  0.82708922  0.48878330  0.64310670  1
  In  In4  1  0.67266950  0.30988696  0.33178638  1
  In  In5  1  0.50641693  0.65930932  0.80798191  1
  In  In6  1  0.84131049  0.84358117  0.04194441  1
  In  In7  1  0.84298060  0.83909934  0.63738723  1
  In  In8  1  0.85417652  0.01687365  0.17617694  1
  In  In9  1  0.85041804  0.31738445  0.83984346  1
  In  In10  1  0.17598265  -0.01307195  0.48756015  1
  In  In11  1  0.16597886  0.84035048  0.64720329  1
  In  In12  1  0.48606270  0.85274558  0.00668874  1
  In  In13  1  -0.00163324  0.67660696  0.63899711  1
  In  In14  1  0.67500823  0.15097525  0.48871278  1
  In  In15  1  0.67465493  0.32871323  -0.00564991  1
  In  In16  1  0.32490330  0.00602980  -0.00641668  1
  In  In17  1  0.83326811  -0.00984966  0.49771997  1
  In  In18  1  0.66975505  -0.00785001  0.35089910  1
  In  In19  1  0.15791258  -0.00441494  0.83750863  1
  In  In20  1  0.66681172  0.33049645  0.65569277  1
  In  In21  1  0.33347100  0.69710301  0.33588554  1
  In  In22  1  0.48101767  0.34209228  0.17180856  1
  In  In23  1  0.50953154  0.84913854  0.66074428  1
  In  In24  1  0.49139614  0.14983035  0.65378411  1
  In  In25  1  0.00603396  0.84500991  0.83590051  1
  In  In26  1  0.33514115  -0.00326621  0.68353587  1
  In  In27  1  0.50500171  0.30961124  0.84729391  1
  In  In28  1  0.66244016  0.66958900  0.64605751  1
  In  In29  1  0.47826604  0.50802175  0.66776150  1
  In  In30  1  0.50139165  0.18335796  0.33846798  1
  In  In31  1  0.01091956  0.15497645  0.83693785  1
  In  In32  1  0.84266908  0.53765043  0.01529479  1
  In  In33  1  0.32099845  0.32437730  0.01612753  1
  In  In34  1  0.15903874  0.15741214  0.00746780  1
  In  In35  1  0.15369890  0.66626974  0.49707467  1
  In  In36  1  0.33801671  0.15599792  0.51296714  1
  In  In37  1  0.85636855  0.68060961  0.15704296  1
  In  In38  1  0.33223568  0.67647296  0.65683830  1
  In  In39  1  0.48891395  0.48205592  -0.00071302  1
  In  In40  1  0.31453675  0.35096697  0.33394171  1
  In  In41  1  0.02376584  0.31581656  0.31277205  1
  In  In42  1  0.67494830  0.70151003  0.32648925  1
  In  In43  1  0.82629131  -0.00723580  0.83062090  1
  In  In44  1  0.65382224  0.85143809  0.81877980  1
  In  In45  1  -0.00340289  0.15131403  0.50739248  1
  In  In46  1  0.17918269  0.65985690  0.85081157  1
  In  In47  1  0.69213452  0.67549165  -0.00450886  1
  In  In48  1  0.49536094  -0.00344509  0.48908838  1
  In  In49  1  0.82721466  0.32415620  0.49947883  1
  In  In50  1  0.00449813  0.47941004  0.83202445  1
  In  In51  1  0.15997753  0.34022590  0.52574081  1
  In  In52  1  0.66506500  0.16818446  0.15120305  1
  In  In53  1  0.67371229  0.51366657  0.49596251  1
  In  In54  1  0.33285776  0.49400736  0.51118247  1
  In  In55  1  0.14275861  0.52532906  0.30841877  1
  In  In56  1  0.48689098  0.50969811  0.32883194  1
  In  In57  1  0.15319331  0.83328440  0.32961042  1
  In  In58  1  0.16842517  0.81982574  0.01502776  1
  In  In59  1  0.16794244  0.15140926  0.32326106  1
  In  In60  1  0.15703768  -0.00141194  0.17300618  1
  In  In61  1  0.86254415  0.34556044  0.16487774  1
  In  In62  1  0.83482349  0.83925560  0.33660306  1
  In  In63  1  0.32996526  0.48577917  0.84223265  1
  In  In64  1  0.47061823  -0.02678327  0.18998576  1
  In  In65  1  0.01169144  0.32777024  0.69252176  1
  In  In66  1  -0.00532071  0.53636638  0.48003354  1
  In  In67  1  0.67949976  0.53763976  0.17956060  1
  In  In68  1  0.83645346  0.16923559  0.00475763  1
  In  In69  1  0.00877164  0.67303859  0.02745659  1
  In  In70  1  0.30541446  0.65620181  0.03016005  1
  In  In71  1  0.03650261  0.34833932  0.02413012  1
  Te  Te72  1  0.06395291  0.07379051  0.08324069  1
  Te  Te73  1  0.07200612  0.06629688  0.40506531  1
  Te  Te74  1  0.08174395  0.07157607  0.73755871  1
  Te  Te75  1  0.12413093  0.43591495  0.10490758  1
  Te  Te76  1  0.08885079  0.42230104  0.41706719  1
  Te  Te77  1  0.11958457  0.40832201  0.76382437  1
  Te  Te78  1  0.09909454  0.74382993  0.12847784  1
  Te  Te79  1  0.06301776  0.74147685  0.40933371  1
  Te  Te80  1  0.08390836  0.73923924  0.75641323  1
  Te  Te81  1  0.42102609  0.07980302  0.09166975  1
  Te  Te82  1  0.40530594  0.08000398  0.39860685  1
  Te  Te83  1  0.39910033  0.10448332  0.76111425  1
  Te  Te84  1  0.38549623  0.43725991  0.10075953  1
  Te  Te85  1  0.42507863  0.40733897  0.42341388  1
  Te  Te86  1  0.41811479  0.39614429  0.75574275  1
  Te  Te87  1  0.40603028  0.75276507  0.09346711  1
  Te  Te88  1  0.44748699  0.78138305  0.38266709  1
  Te  Te89  1  0.41436356  0.76433998  0.75030751  1
  Te  Te90  1  0.74503677  0.06733517  0.07182989  1
  Te  Te91  1  0.77527276  0.09407393  0.39071585  1
  Te  Te92  1  0.71634629  0.06919007  0.77104734  1
  Te  Te93  1  0.74434816  0.42436226  0.09146505  1
  Te  Te94  1  0.75331887  0.41819106  0.40562631  1
  Te  Te95  1  0.76005885  0.40633050  0.75134463  1
  Te  Te96  1  0.73190176  0.76066025  0.11244055  1
  Te  Te97  1  0.74352282  0.77398262  0.43483473  1
  Te  Te98  1  0.75548616  0.75394209  0.74573315  1
  Te  Te99  1  0.11178097  0.24209457  0.21726270  1
  Te  Te100  1  0.09169611  0.22620734  0.60276074  1
  Te  Te101  1  0.09204863  0.25977754  0.91251650  1
  Te  Te102  1  0.06629557  0.62521732  0.23004202  1
  Te  Te103  1  0.09300428  0.56510521  0.59512812  1
  Te  Te104  1  0.07629518  0.57649192  0.92675927  1
  Te  Te105  1  0.05628941  0.92657266  0.25989107  1
  Te  Te106  1  0.07104593  0.91106838  0.56248040  1
  Te  Te107  1  0.07793943  0.92139420  0.94541532  1
  Te  Te108  1  0.39355903  0.24651798  0.25046770  1
  Te  Te109  1  0.41762842  0.25748046  0.58286087  1
  Te  Te110  1  0.40746637  0.22963934  0.93047788  1
  Te  Te111  1  0.38423411  0.57961719  0.24382707  1
  Te  Te112  1  0.42720792  0.60483424  0.55985556  1
  Te  Te113  1  0.41566299  0.59167365  0.91802071  1
  Te  Te114  1  0.39340229  0.88414482  0.28318073  1
  Te  Te115  1  0.39947159  0.91267003  0.57347598  1
  Te  Te116  1  0.41927544  0.93426418  0.90384081  1
  Te  Te117  1  0.77359396  0.23758647  0.23879850  1
  Te  Te118  1  0.75918386  0.22548849  0.59333269  1
  Te  Te119  1  0.74074723  0.22892964  0.90062520  1
  Te  Te120  1  0.78405535  0.59284090  0.27413732  1
  Te  Te121  1  0.77602663  0.60647470  0.56285793  1
  Te  Te122  1  0.73956385  0.56176950  0.90478423  1
  Te  Te123  1  0.74919505  0.92448650  0.24057176  1
  Te  Te124  1  0.73214883  0.91789660  0.58091492  1
  Te  Te125  1  0.75369453  0.89525871  0.92733752  1
  Te  Te126  1  0.24159853  0.23458149  0.10610233  1
  Te  Te127  1  0.24016165  0.24977715  0.42663671  1
  Te  Te128  1  0.20832005  0.29062872  0.70851070  1
  Te  Te129  1  0.19627971  0.57402416  0.08206129  1
  Te  Te130  1  0.25381160  0.57794482  0.41097782  1
  Te  Te131  1  0.25363985  0.57958506  0.74383271  1
  Te  Te132  1  0.26080519  0.91157985  0.09391380  1
  Te  Te133  1  0.26462341  0.91595087  0.38953401  1
  Te  Te134  1  0.24689019  0.89675048  0.76188136  1
  Te  Te135  1  0.56224000  0.25620238  0.07266984  1
  Te  Te136  1  0.57943443  0.26117334  0.44361627  1
  Te  Te137  1  0.58761723  0.23507032  0.74400635  1
  Te  Te138  1  0.57537917  0.58645180  0.07729330  1
  Te  Te139  1  0.58636627  0.59712347  0.40219307  1
  Te  Te140  1  0.60324206  0.56424091  0.73946893  1
  Te  Te141  1  0.57382007  0.93444993  0.09167531  1
  Te  Te142  1  0.57412935  0.89518652  0.41147414  1
  Te  Te143  1  0.55558453  0.95041683  0.76376176  1
  Te  Te144  1  0.94261929  0.24295604  0.08596850  1
  Te  Te145  1  0.92493945  0.24693423  0.41204954  1
  Te  Te146  1  0.91009706  0.22188615  0.74001418  1
  Te  Te147  1  0.95006985  0.55807362  0.11814115  1
  Te  Te148  1  0.90179091  0.58470542  0.37988453  1
  Te  Te149  1  0.92146928  0.57489930  0.74397317  1
  Te  Te150  1  0.94703705  0.91466999  0.11590937  1
  Te  Te151  1  0.92948051  0.93830173  0.39627218  1
  Te  Te152  1  0.92729482  0.92422972  0.73487195  1
  Te  Te153  1  0.26416013  0.06641327  0.25098151  1
  Te  Te154  1  0.23780042  0.07667609  0.59525506  1
  Te  Te155  1  0.24977677  0.10070046  0.89794013  1
  Te  Te156  1  0.22274896  0.41802621  0.23663996  1
  Te  Te157  1  0.26692546  0.40258575  0.61283119  1
  Te  Te158  1  0.23727991  0.40886709  0.92673185  1
  Te  Te159  1  0.23435705  0.74524048  0.23653588  1
  Te  Te160  1  0.25879122  0.76194484  0.55378537  1
  Te  Te161  1  0.27181022  0.75859684  0.92006268  1
  Te  Te162  1  0.58450977  0.08679054  0.25398020  1
  Te  Te163  1  0.59661722  0.06124064  0.58314829  1
  Te  Te164  1  0.60844661  0.05848140  0.88225608  1
  Te  Te165  1  0.59112158  0.41784701  0.24702203  1
  Te  Te166  1  0.57851574  0.42779812  0.57875896  1
  Te  Te167  1  0.59198499  0.42127560  0.90439591  1
  Te  Te168  1  0.58092377  0.77868874  0.24048867  1
  Te  Te169  1  0.56808382  0.74986328  0.56852271  1
  Te  Te170  1  0.58245796  0.74462046  0.91368328  1
  Te  Te171  1  0.89577973  0.13273490  0.25538521  1
  Te  Te172  1  0.90004651  0.08110754  0.59447355  1
  Te  Te173  1  0.92030874  0.06838141  0.92514416  1
  Te  Te174  1  0.92881412  0.42307923  0.27123116  1
  Te  Te175  1  0.93580063  0.40470707  0.57645233  1
  Te  Te176  1  0.91218710  0.41276311  0.94133137  1
  Te  Te177  1  0.93350164  0.75447629  0.25905838  1
  Te  Te178  1  0.93120655  0.76407036  0.54241477  1
  Te  Te179  1  0.91595031  0.75100093  0.92607935  1
