# generated using pymatgen
data_In2Te3
_symmetry_space_group_name_H-M   'P 1'
_cell_length_a   18.75870526
_cell_length_b   18.74976577
_cell_length_c   18.77063007
_cell_angle_alpha   89.99864246
_cell_angle_beta   90.03394114
_cell_angle_gamma   90.05570964
_symmetry_Int_Tables_number   1
_chemical_formula_structural   In2Te3
_chemical_formula_sum   'In72 Te108'
_cell_volume   6602.02668650
_cell_formula_units_Z   36
loop_
 _symmetry_equiv_pos_site_id
 _symmetry_equiv_pos_as_xyz
  1  'x, y, z'
loop_
 _atom_site_type_symbol
 _atom_site_label
 _atom_site_symmetry_multiplicity
 _atom_site_fract_x
 _atom_site_fract_y
 _atom_site_fract_z
 _atom_site_occupancy
  In  In0  1  0.34298349  0.16507170  0.83118292  1
  In  In1  1  0.05364921  0.80221646  0.47777651  1
  In  In2  1  0.00991438  0.01071050  0.34456257  1
  In  In3  1  0.83660466  0.80369487  -0.00703959  1
  In  In4  1  0.15524799  0.63196099  0.84043346  1
  In  In5  1  0.00579199  0.66483458  0.67226634  1
  In  In6  1  0.02594011  -0.00220774  0.63262606  1
  In  In7  1  0.17567126  0.50844082  0.66806787  1
  In  In8  1  0.01147386  0.20625766  0.17506291  1
  In  In9  1  0.83611254  0.50305235  0.68433991  1
  In  In10  1  0.64663050  -0.00040691  0.31038207  1
  In  In11  1  0.17360910  0.37138844  0.83711015  1
  In  In12  1  0.01058914  0.18789964  0.49017518  1
  In  In13  1  0.48174499  0.33476793  0.48468120  1
  In  In14  1  0.50244204  0.51114411  0.68616736  1
  In  In15  1  0.02875137  0.80813180  0.17192327  1
  In  In16  1  0.47574459  -0.00390057  0.82995667  1
  In  In17  1  0.15688002  0.16640851  0.01472235  1
  In  In18  1  0.48800872  0.84014097  0.34037593  1
  In  In19  1  0.34820204  0.19444564  0.20437325  1
  In  In20  1  0.18694772  0.01241283  0.19649495  1
  In  In21  1  0.64877981  0.79739881  0.49075324  1
  In  In22  1  0.81064666  -0.00077852  0.15620663  1
  In  In23  1  0.21185430  -0.03262810  0.49007533  1
  In  In24  1  0.83831720  0.00030327  0.50072239  1
  In  In25  1  0.34320755  0.35429776  0.66724032  1
  In  In26  1  0.64921865  0.34972148  -0.01007904  1
  In  In27  1  0.64100474  0.18101437  0.83755340  1
  In  In28  1  0.67074167  0.83442035  0.14130342  1
  In  In29  1  0.88414896  0.80520282  0.30670310  1
  In  In30  1  0.00367231  0.81467661  0.82597533  1
  In  In31  1  0.32676020  0.49087903  0.16626929  1
  In  In32  1  0.81365768  0.81302385  0.69136486  1
  In  In33  1  0.17165547  0.64159606  0.16671739  1
  In  In34  1  0.04559200  0.48962614  0.48085357  1
  In  In35  1  0.19975556  -0.02997548  0.79933806  1
  In  In36  1  0.66410663  0.81935145  0.84108662  1
  In  In37  1  -0.00720771  -0.01023427  -0.00985047  1
  In  In38  1  0.86039643  0.65380386  0.50862168  1
  In  In39  1  0.36404940  0.83754309  0.17170299  1
  In  In40  1  0.48134345  0.51378556  -0.01665032  1
  In  In41  1  0.82907606  0.34602240  0.83022087  1
  In  In42  1  0.83587056  0.18009436  0.33077272  1
  In  In43  1  0.65662744  0.16029573  0.16949147  1
  In  In44  1  0.63649251  0.17644348  0.49352095  1
  In  In45  1  0.67406640  0.32951702  0.68671170  1
  In  In46  1  0.31507594  0.18424217  0.47891158  1
  In  In47  1  0.16662522  0.17266335  0.64329166  1
  In  In48  1  0.50938380  0.66409608  0.15273917  1
  In  In49  1  0.49162772  0.16846287  0.00298875  1
  In  In50  1  0.64091158  0.48029375  0.18022053  1
  In  In51  1  0.84821496  0.49091670  0.32520953  1
  In  In52  1  0.19313339  0.80146607  -0.01489184  1
  In  In53  1  0.66390707  0.50129511  0.49098394  1
  In  In54  1  0.32912676  0.65781512  0.32224967  1
  In  In55  1  -0.00850299  0.17514111  0.82939509  1
  In  In56  1  0.32751207  0.34786052  -0.00747701  1
  In  In57  1  0.34321701  -0.01422274  -0.00301365  1
  In  In58  1  0.66746793  0.64437790  0.33845157  1
  In  In59  1  0.83780133  0.35727248  0.49163934  1
  In  In60  1  0.84755128  0.34969726  0.17377372  1
  In  In61  1  0.82329182  0.18205958  0.69714763  1
  In  In62  1  0.83574219  -0.03043995  0.84942787  1
  In  In63  1  0.45365675  -0.00665479  0.51122146  1
  In  In64  1  -0.00448114  0.35539925  0.02954853  1
  In  In65  1  0.47089896  0.67758486  0.50365320  1
  In  In66  1  0.31507210  0.50223161  0.48797385  1
  In  In67  1  0.64771415  0.66812679  0.69491839  1
  In  In68  1  0.14909229  0.35886453  0.17946837  1
  In  In69  1  0.51346704  0.83049187  -0.00072802  1
  In  In70  1  0.84180629  0.53960642  -0.00312087  1
  In  In71  1  0.64542151  -0.01099173  0.66694648  1
  Te  Te72  1  0.07264693  0.06861762  0.09764129  1
  Te  Te73  1  0.10451718  0.07686718  0.44126396  1
  Te  Te74  1  0.08627457  0.07998202  0.75434550  1
  Te  Te75  1  0.10081000  0.45135022  0.07203027  1
  Te  Te76  1  0.12621184  0.39765106  0.39427499  1
  Te  Te77  1  0.07350386  0.44607554  0.75848095  1
  Te  Te78  1  0.07832221  0.72091838  0.04894787  1
  Te  Te79  1  0.09984822  0.71446566  0.36562665  1
  Te  Te80  1  0.11200063  0.74936811  0.74289272  1
  Te  Te81  1  0.39537425  0.09208046  0.09297450  1
  Te  Te82  1  0.40904228  0.09064921  0.40815171  1
  Te  Te83  1  0.40298823  0.07688030  0.72988253  1
  Te  Te84  1  0.43049790  0.41246784  0.08595698  1
  Te  Te85  1  0.39205407  0.41389837  0.39270316  1
  Te  Te86  1  0.41392543  0.42735663  0.77305425  1
  Te  Te87  1  0.40669069  0.73744685  0.06792061  1
  Te  Te88  1  0.37521738  0.77524883  0.42473105  1
  Te  Te89  1  0.38149607  0.74886198  0.70926930  1
  Te  Te90  1  0.73433422  0.08607007  0.06704531  1
  Te  Te91  1  0.74387935  0.08585421  0.41113414  1
  Te  Te92  1  0.74314190  0.06556826  0.75952656  1
  Te  Te93  1  0.75513760  0.42395293  0.07596648  1
  Te  Te94  1  0.73380547  0.40947691  0.39258912  1
  Te  Te95  1  0.72517480  0.44537768  0.77301605  1
  Te  Te96  1  0.74832725  0.72525100  0.08316983  1
  Te  Te97  1  0.76897081  0.74102542  0.41201724  1
  Te  Te98  1  0.76812644  0.70430893  0.79286044  1
  Te  Te99  1  0.12077242  0.23673763  0.26919702  1
  Te  Te100  1  0.07566898  0.27528248  0.59047436  1
  Te  Te101  1  0.07901959  0.26176696  0.92385163  1
  Te  Te102  1  0.09073031  0.58811846  0.27796479  1
  Te  Te103  1  0.10131113  0.60183659  0.57075209  1
  Te  Te104  1  0.06954682  0.59670330  0.95885189  1
  Te  Te105  1  0.09598711  0.91069351  0.26813072  1
  Te  Te106  1  0.11974501  0.88872618  0.58883542  1
  Te  Te107  1  0.09759129  0.90948147  0.91322509  1
  Te  Te108  1  0.42399241  0.30517761  0.27069682  1
  Te  Te109  1  0.40980845  0.24506651  0.58546355  1
  Te  Te110  1  0.42645172  0.26748058  0.90679907  1
  Te  Te111  1  0.43200802  0.57429108  0.24819085  1
  Te  Te112  1  0.39801807  0.57692643  0.59356735  1
  Te  Te113  1  0.37665273  0.60559504  0.92988838  1
  Te  Te114  1  0.41216796  0.94261578  0.26327972  1
  Te  Te115  1  0.39102767  0.88752578  0.59786325  1
  Te  Te116  1  0.40310775  0.88281969  0.90429953  1
  Te  Te117  1  0.74263054  0.26333123  0.24647822  1
  Te  Te118  1  0.75504902  0.25141825  0.57004942  1
  Te  Te119  1  0.74754030  0.25236837  0.91924295  1
  Te  Te120  1  0.75272400  0.57335385  0.23609732  1
  Te  Te121  1  0.73844257  0.59733950  0.58561521  1
  Te  Te122  1  0.74359525  0.59412173  0.90271467  1
  Te  Te123  1  0.76039567  0.90487638  0.26690074  1
  Te  Te124  1  0.74372533  0.90347336  0.58551692  1
  Te  Te125  1  0.73246656  0.91045784  0.94337909  1
  Te  Te126  1  0.25021309  0.25860442  0.09378877  1
  Te  Te127  1  0.22165360  0.27216925  0.40393043  1
  Te  Te128  1  0.23993360  0.25598093  0.75849971  1
  Te  Te129  1  0.27174430  0.58996827  0.06733354  1
  Te  Te130  1  0.22875822  0.60797453  0.42260304  1
  Te  Te131  1  0.27067851  0.57969137  0.75743576  1
  Te  Te132  1  0.23845458  0.91383914  0.08515496  1
  Te  Te133  1  0.27222283  0.88728894  0.38228750  1
  Te  Te134  1  0.29999404  0.88554505  0.72919455  1
  Te  Te135  1  0.57215961  0.26356468  0.09049014  1
  Te  Te136  1  0.57027159  0.25833545  0.38951895  1
  Te  Te137  1  0.56156108  0.24726645  0.73426154  1
  Te  Te138  1  0.59826909  0.57610209  0.06831269  1
  Te  Te139  1  0.55436561  0.57712407  0.41626351  1
  Te  Te140  1  0.54707959  0.61121495  0.78981605  1
  Te  Te141  1  0.56279009  0.92502131  0.10168470  1
  Te  Te142  1  0.58273041  0.92588137  0.43817193  1
  Te  Te143  1  0.56380565  0.89403121  0.75239679  1
  Te  Te144  1  0.90264181  0.24088299  0.07746908  1
  Te  Te145  1  0.93104875  0.27958948  0.39655562  1
  Te  Te146  1  0.93264785  0.28165923  0.73564688  1
  Te  Te147  1  0.94017274  0.58584406  0.09591919  1
  Te  Te148  1  0.94300662  0.58317492  0.40524002  1
  Te  Te149  1  0.93339663  0.57756116  0.76768019  1
  Te  Te150  1  0.92156642  0.90017085  0.09289557  1
  Te  Te151  1  0.93284569  0.90377277  0.42565454  1
  Te  Te152  1  0.93066577  0.92622362  0.73732768  1
  Te  Te153  1  0.26975958  0.09660257  0.28800959  1
  Te  Te154  1  0.26575397  0.07458396  0.58698365  1
  Te  Te155  1  0.24334804  0.08253463  0.91989519  1
  Te  Te156  1  0.23503217  0.43880642  0.27468361  1
  Te  Te157  1  0.23531802  0.40194416  0.57373137  1
  Te  Te158  1  0.24946116  0.45872184  0.93066827  1
  Te  Te159  1  0.25072660  0.75653491  0.23413945  1
  Te  Te160  1  0.28733936  0.76283335  0.59918828  1
  Te  Te161  1  0.27519942  0.71978858  0.88741995  1
  Te  Te162  1  0.55160906  0.09572436  0.25324008  1
  Te  Te163  1  0.55897106  0.08581205  0.58721468  1
  Te  Te164  1  0.57547018  0.07038257  0.92050474  1
  Te  Te165  1  0.55320641  0.39703590  0.26410046  1
  Te  Te166  1  0.58134757  0.41299993  0.58488982  1
  Te  Te167  1  0.56507123  0.42601205  0.89548115  1
  Te  Te168  1  0.58612702  0.75261391  0.26077774  1
  Te  Te169  1  0.55870808  0.75604733  0.60469593  1
  Te  Te170  1  0.57525090  0.72350268  0.91464092  1
  Te  Te171  1  0.91617652  0.08096857  0.24573387  1
  Te  Te172  1  0.91634270  0.10095498  0.59457571  1
  Te  Te173  1  0.90143750  0.09075010  0.92077069  1
  Te  Te174  1  0.95410362  0.42328292  0.24509640  1
  Te  Te175  1  0.92772514  0.44586116  0.57580935  1
  Te  Te176  1  0.92063692  0.42927898  0.91868222  1
  Te  Te177  1  0.92548207  0.69930805  0.20460440  1
  Te  Te178  1  0.92439730  0.76797607  0.58767573  1
  Te  Te179  1  0.92731575  0.71980962  0.90992489  1
