# generated using pymatgen
data_In2Te3
_symmetry_space_group_name_H-M   'P 1'
_cell_length_a   18.81589982
_cell_length_b   18.81488150
_cell_length_c   18.80271930
_cell_angle_alpha   90.05046745
_cell_angle_beta   89.90684661
_cell_angle_gamma   89.93344650
_symmetry_Int_Tables_number   1
_chemical_formula_structural   In2Te3
_chemical_formula_sum   'In72 Te108'
_cell_volume   6656.50260016
_cell_formula_units_Z   36
loop_
 _symmetry_equiv_pos_site_id
 _symmetry_equiv_pos_as_xyz
  1  'x, y, z'
loop_
 _atom_site_type_symbol
 _atom_site_label
 _atom_site_symmetry_multiplicity
 _atom_site_fract_x
 _atom_site_fract_y
 _atom_site_fract_z
 _atom_site_occupancy
  In  In0  1  0.82382679  0.14074717  0.35689890  1
  In  In1  1  0.68223667  0.17344790  0.55537945  1
  In  In2  1  0.83792499  0.32100714  0.14308105  1
  In  In3  1  0.67410960  0.31534385  0.00721515  1
  In  In4  1  0.84662048  0.66993894  0.53467036  1
  In  In5  1  0.84269465  0.14455316  -0.01852535  1
  In  In6  1  0.47799441  0.00995683  0.14675282  1
  In  In7  1  0.32486157  0.51523193  0.78771477  1
  In  In8  1  0.14441752  0.81349814  0.34696107  1
  In  In9  1  0.12299527  0.68419433  0.15215498  1
  In  In10  1  -0.02289119  0.16185262  0.50854907  1
  In  In11  1  0.18250892  -0.01679221  0.51497158  1
  In  In12  1  0.51969566  0.67572519  0.84019898  1
  In  In13  1  0.80423613  0.69831770  0.80270832  1
  In  In14  1  -0.00685461  0.48735183  0.83270148  1
  In  In15  1  0.17772871  0.49590529  0.36326550  1
  In  In16  1  0.63941171  0.13088172  0.78940980  1
  In  In17  1  0.84287524  0.48837559  -0.01493193  1
  In  In18  1  0.01489467  0.50461658  0.53075857  1
  In  In19  1  0.83119369  0.82554195  0.33009366  1
  In  In20  1  0.68669329  -0.00359165  -0.02967044  1
  In  In21  1  0.00576542  0.48892458  0.17426194  1
  In  In22  1  0.33900089  0.29892338  -0.03120438  1
  In  In23  1  0.37159834  0.88662316  0.81068308  1
  In  In24  1  0.64252119  0.17050821  0.16897679  1
  In  In25  1  0.68493956  0.83658218  0.16919801  1
  In  In26  1  0.16278703  0.31551930  0.48203001  1
  In  In27  1  0.50554880  0.67966214  0.17787679  1
  In  In28  1  0.68592500  0.65924302  0.35389625  1
  In  In29  1  0.17068409  0.15828208  0.66400410  1
  In  In30  1  0.64964604  0.69451115  -0.00880787  1
  In  In31  1  0.32436655  0.66182058  0.69107269  1
  In  In32  1  0.49314189  0.83829668  -0.01885930  1
  In  In33  1  0.30731236  0.85594346  0.17028796  1
  In  In34  1  0.15267726  -0.00870311  0.85478960  1
  In  In35  1  0.51465146  0.48849297  -0.00383162  1
  In  In36  1  0.82536170  0.34304722  0.81641221  1
  In  In37  1  0.51142614  0.49826940  0.65770678  1
  In  In38  1  0.00836861  0.00706526  0.32649255  1
  In  In39  1  0.35290969  0.49464488  0.16886080  1
  In  In40  1  -0.00427850  0.69591335  0.34754465  1
  In  In41  1  -0.01208939  0.82604701  0.13741418  1
  In  In42  1  0.50193356  0.31581143  0.51700408  1
  In  In43  1  0.84063883  -0.01798020  0.17186096  1
  In  In44  1  0.81949580  0.86959653  -0.03002486  1
  In  In45  1  0.81479285  0.49991495  0.33519726  1
  In  In46  1  0.31623036  0.67634880  -0.02661748  1
  In  In47  1  0.17806400  0.17347267  0.32356718  1
  In  In48  1  -0.01098158  0.82971467  0.50834706  1
  In  In49  1  0.34727760  0.49352861  0.52362896  1
  In  In50  1  0.67567712  0.35073172  0.33966514  1
  In  In51  1  0.17342256  0.49715647  0.00831375  1
  In  In52  1  0.52990005  0.50341314  0.36185113  1
  In  In53  1  0.31303929  0.32177512  0.32926867  1
  In  In54  1  0.16686003  0.69091723  0.82627283  1
  In  In55  1  0.16340518  0.84054021  0.66811902  1
  In  In56  1  -0.00399555  0.17771335  0.82770189  1
  In  In57  1  0.35106976  0.00970168  0.33757090  1
  In  In58  1  0.61369201  0.90292176  0.56917916  1
  In  In59  1  0.51733823  0.30959373  0.17812861  1
  In  In60  1  0.15184659  0.02073977  0.11973332  1
  In  In61  1  0.34631695  0.13194310  0.81258094  1
  In  In62  1  -0.01168574  0.69050371  -0.00861486  1
  In  In63  1  0.82631878  0.49817109  0.67148127  1
  In  In64  1  0.70179801  0.47919273  0.82412528  1
  In  In65  1  0.36659847  0.85342150  0.52236842  1
  In  In66  1  0.80818089  0.00307168  0.53054813  1
  In  In67  1  0.16195458  0.28856355  0.14576513  1
  In  In68  1  0.33930490  0.31445396  0.65457432  1
  In  In69  1  0.35412131  0.70157872  0.36216248  1
  In  In70  1  0.14174104  0.33282873  0.85018749  1
  In  In71  1  0.48487473  0.15808494  0.33760146  1
  Te  Te72  1  0.06510956  0.12062280  0.05626510  1
  Te  Te73  1  0.09409377  0.08126863  0.42782721  1
  Te  Te74  1  0.07696392  0.07400649  0.74820583  1
  Te  Te75  1  0.07972021  0.39806443  0.07470716  1
  Te  Te76  1  0.06542105  0.40861565  0.41153709  1
  Te  Te77  1  0.07025834  0.40067240  0.74159097  1
  Te  Te78  1  0.10861312  0.78606767  0.03626838  1
  Te  Te79  1  0.09452260  0.72493625  0.46119268  1
  Te  Te80  1  0.06483818  0.76630366  0.75123450  1
  Te  Te81  1  0.39979371  0.12056096  0.09138245  1
  Te  Te82  1  0.44378434  0.05998149  0.44266525  1
  Te  Te83  1  0.44621053  0.05764337  0.72700634  1
  Te  Te84  1  0.41753409  0.39492080  0.07168446  1
  Te  Te85  1  0.41232903  0.40684236  0.40753823  1
  Te  Te86  1  0.42401580  0.40760143  0.74418640  1
  Te  Te87  1  0.41195239  0.75021141  0.07867722  1
  Te  Te88  1  0.46459742  0.76925080  0.43998598  1
  Te  Te89  1  0.43168996  0.75805101  0.74687560  1
  Te  Te90  1  0.74596249  0.08023295  0.09147695  1
  Te  Te91  1  0.71108596  0.07781298  0.43664323  1
  Te  Te92  1  0.77129311  0.06959915  0.75172507  1
  Te  Te93  1  0.74416528  0.42700076  0.08404682  1
  Te  Te94  1  0.74773790  0.42488693  0.44412959  1
  Te  Te95  1  0.71344630  0.37163798  0.71294217  1
  Te  Te96  1  0.76635965  0.75975281  0.06604324  1
  Te  Te97  1  0.75667077  0.76213351  0.44389244  1
  Te  Te98  1  0.71187859  0.75144491  0.69544452  1
  Te  Te99  1  0.07334650  0.25125513  0.25662334  1
  Te  Te100  1  0.07564511  0.25017787  0.58802543  1
  Te  Te101  1  0.10151058  0.21408817  0.93289927  1
  Te  Te102  1  0.08672041  0.58454601  0.26620464  1
  Te  Te103  1  0.09726358  0.59940025  0.60217615  1
  Te  Te104  1  0.08668772  0.58744469  0.92122165  1
  Te  Te105  1  0.07882321  0.90310587  0.23916919  1
  Te  Te106  1  0.06286470  0.93282819  0.59372574  1
  Te  Te107  1  0.06896588  0.90627764  0.94171921  1
  Te  Te108  1  0.39659837  0.23279353  0.23630362  1
  Te  Te109  1  0.42990318  0.21427548  0.59418012  1
  Te  Te110  1  0.43969454  0.23758418  0.87398435  1
  Te  Te111  1  0.41942962  0.58653014  0.27261444  1
  Te  Te112  1  0.42722448  0.60451861  0.58878742  1
  Te  Te113  1  0.41891024  0.57640870  0.91188694  1
  Te  Te114  1  0.42426098  0.90536011  0.25126724  1
  Te  Te115  1  0.43383604  0.94276295  0.62132774  1
  Te  Te116  1  0.43508810  0.96271605  0.92335594  1
  Te  Te117  1  0.74941010  0.24396202  0.24974816  1
  Te  Te118  1  0.78316860  0.25962267  0.62033848  1
  Te  Te119  1  0.74895733  0.23494539  0.90258382  1
  Te  Te120  1  0.75300667  0.59349293  0.24025964  1
  Te  Te121  1  0.73791661  0.58834412  0.59442569  1
  Te  Te122  1  0.75180406  0.59779533  0.91738338  1
  Te  Te123  1  0.73850181  0.93378705  0.27560617  1
  Te  Te124  1  0.76293565  0.88388748  0.60838317  1
  Te  Te125  1  0.74536446  0.92805541  0.84461146  1
  Te  Te126  1  0.27219105  0.21344850  0.07507804  1
  Te  Te127  1  0.27247844  0.21994441  0.43494585  1
  Te  Te128  1  0.24766052  0.24966076  0.76293148  1
  Te  Te129  1  0.25436868  0.59322399  0.09450989  1
  Te  Te130  1  0.26965196  0.59311210  0.43429254  1
  Te  Te131  1  0.19597534  0.57129620  0.72170384  1
  Te  Te132  1  0.26203010  0.94180398  0.06008123  1
  Te  Te133  1  0.25689188  0.89786230  0.40998485  1
  Te  Te134  1  0.24902360  0.94335658  0.73885462  1
  Te  Te135  1  0.55959273  0.22592446  0.05408070  1
  Te  Te136  1  0.58807630  0.24617219  0.40978064  1
  Te  Te137  1  0.54998771  0.24309992  0.76021802  1
  Te  Te138  1  0.58754859  0.58884818  0.08498169  1
  Te  Te139  1  0.59258634  0.59872404  0.45318257  1
  Te  Te140  1  0.59769136  0.57404665  0.75806304  1
  Te  Te141  1  0.59064001  0.91552632  0.07906895  1
  Te  Te142  1  0.53861501  0.90844738  0.43870004  1
  Te  Te143  1  0.56139071  0.94310097  0.71600548  1
  Te  Te144  1  0.92989952  0.22621568  0.07279476  1
  Te  Te145  1  0.89319821  0.24941097  0.42544852  1
  Te  Te146  1  0.90335665  0.24590876  0.72959077  1
  Te  Te147  1  0.92661793  0.57767881  0.07718086  1
  Te  Te148  1  0.91773908  0.58699807  0.41975775  1
  Te  Te149  1  0.90996638  0.59036418  0.75971566  1
  Te  Te150  1  0.93077270  0.94194630  0.05446924  1
  Te  Te151  1  0.91094425  0.93077174  0.41608693  1
  Te  Te152  1  0.87949080  0.95969346  0.77002168  1
  Te  Te153  1  0.23878949  0.05948983  0.24582266  1
  Te  Te154  1  0.26797200  0.07829252  0.58682072  1
  Te  Te155  1  0.25422784  0.08043732  0.91649964  1
  Te  Te156  1  0.23767557  0.41740729  0.23682727  1
  Te  Te157  1  0.23902066  0.40541754  0.58216453  1
  Te  Te158  1  0.26286303  0.42469582  0.90801620  1
  Te  Te159  1  0.24597247  0.73856542  0.25117180  1
  Te  Te160  1  0.26451924  0.75926583  0.58742737  1
  Te  Te161  1  0.27106166  0.78747501  0.88283223  1
  Te  Te162  1  0.57428224  0.06511312  0.25365343  1
  Te  Te163  1  0.60691379  0.05847468  0.61852088  1
  Te  Te164  1  0.57156102  0.06771281  0.90991877  1
  Te  Te165  1  0.58883715  0.43056187  0.24061467  1
  Te  Te166  1  0.59543680  0.41932049  0.56304578  1
  Te  Te167  1  0.59573459  0.39983831  0.90477598  1
  Te  Te168  1  0.59732619  0.75888740  0.26662573  1
  Te  Te169  1  0.57380752  0.77055061  0.63033902  1
  Te  Te170  1  0.60485847  0.79450055  0.88513621  1
  Te  Te171  1  0.91907223  0.09411696  0.24130564  1
  Te  Te172  1  0.90401812  0.08257994  0.61112959  1
  Te  Te173  1  0.92183404  0.05706892  0.88690505  1
  Te  Te174  1  0.90652832  0.40441821  0.25094194  1
  Te  Te175  1  0.91794341  0.41358520  0.59199350  1
  Te  Te176  1  0.92930512  0.38100108  0.92355164  1
  Te  Te177  1  0.90529736  0.73639809  0.23103622  1
  Te  Te178  1  0.92823513  0.75760643  0.62326754  1
  Te  Te179  1  0.90863180  0.77139602  0.89009505  1
