# generated using pymatgen
data_In2Te3
_symmetry_space_group_name_H-M   'P 1'
_cell_length_a   18.76119880
_cell_length_b   18.76122241
_cell_length_c   18.76107138
_cell_angle_alpha   90.09475676
_cell_angle_beta   90.05539832
_cell_angle_gamma   90.05356168
_symmetry_Int_Tables_number   1
_chemical_formula_structural   In2Te3
_chemical_formula_sum   'In72 Te108'
_cell_volume   6603.56361355
_cell_formula_units_Z   36
loop_
 _symmetry_equiv_pos_site_id
 _symmetry_equiv_pos_as_xyz
  1  'x, y, z'
loop_
 _atom_site_type_symbol
 _atom_site_label
 _atom_site_symmetry_multiplicity
 _atom_site_fract_x
 _atom_site_fract_y
 _atom_site_fract_z
 _atom_site_occupancy
  In  In0  1  0.50111725  0.33406344  0.17437709  1
  In  In1  1  0.32888024  0.15432500  0.52162598  1
  In  In2  1  0.33589191  0.80849125  0.49734261  1
  In  In3  1  0.83173964  0.49041247  0.00287859  1
  In  In4  1  0.68593110  0.32907063  0.67277465  1
  In  In5  1  0.49756220  0.16436500  -0.00411127  1
  In  In6  1  0.67692886  -0.00060571  0.33054138  1
  In  In7  1  0.00678809  0.16089790  0.52240527  1
  In  In8  1  0.66405651  0.84876682  0.83424109  1
  In  In9  1  0.02539153  0.34101211  0.67128106  1
  In  In10  1  0.14592338  0.16689704  0.32705722  1
  In  In11  1  0.46511530  0.68318963  0.80413503  1
  In  In12  1  0.01662617  0.68101684  -0.01356916  1
  In  In13  1  0.49784732  0.34693466  0.82722740  1
  In  In14  1  0.66488509  0.51656788  0.51201582  1
  In  In15  1  -0.00063868  0.48126220  0.16350712  1
  In  In16  1  0.18556790  0.84008288  0.33844480  1
  In  In17  1  0.32616079  -0.01930125  0.67934811  1
  In  In18  1  0.81545647  0.83079078  0.33719789  1
  In  In19  1  0.65158647  0.82291850  0.50487140  1
  In  In20  1  0.48626261  -0.00006983  0.17073747  1
  In  In21  1  0.33764168  -0.01078249  0.33112917  1
  In  In22  1  0.02113253  0.15854043  0.82119673  1
  In  In23  1  0.02119965  0.85650327  0.53748628  1
  In  In24  1  0.67022492  0.51420125  0.84871586  1
  In  In25  1  0.67024412  0.15877312  0.16829716  1
  In  In26  1  0.16237109  0.01300017  0.15256512  1
  In  In27  1  0.49061474  0.67457709  0.18342249  1
  In  In28  1  0.30155654  0.32216968  0.70650665  1
  In  In29  1  0.84013415  0.00696332  0.83362704  1
  In  In30  1  0.16377140  0.67193561  0.53125151  1
  In  In31  1  0.48675391  0.50798822  -0.02603808  1
  In  In32  1  -0.02685130  0.86616741  0.13271010  1
  In  In33  1  0.01546225  0.52300527  0.49877961  1
  In  In34  1  0.49092396  0.83312977  0.00982988  1
  In  In35  1  0.65432483  0.32774905  0.32992226  1
  In  In36  1  -0.00213826  0.32445618  0.29985466  1
  In  In37  1  0.46515913  0.51926320  0.64012684  1
  In  In38  1  0.49773649  -0.00406991  0.48252951  1
  In  In39  1  -0.01890995  0.65894978  0.35184038  1
  In  In40  1  0.65163520  0.66398474  0.34059810  1
  In  In41  1  0.01268020  0.83349545  0.83641218  1
  In  In42  1  0.83487257  0.81949054  0.65438455  1
  In  In43  1  0.19866325  0.49864801  0.33613180  1
  In  In44  1  0.30578877  0.32546543  0.01201161  1
  In  In45  1  0.83321941  0.18124705  -0.00290315  1
  In  In46  1  0.83931409  0.33917302  0.51076777  1
  In  In47  1  0.32550829  0.00769452  -0.01232124  1
  In  In48  1  0.83510363  0.16029728  0.65175494  1
  In  In49  1  0.50200415  0.33233879  0.47947876  1
  In  In50  1  0.66862846  -0.00238879  0.68079193  1
  In  In51  1  0.83047650  0.33404003  0.85376943  1
  In  In52  1  0.00631888  0.16020033  0.16190113  1
  In  In53  1  -0.00553302  0.00231308  0.34491083  1
  In  In54  1  0.34329956  0.34375320  0.32208627  1
  In  In55  1  0.68395551  0.67547368  0.00211811  1
  In  In56  1  0.81977830  0.67262394  0.17098132  1
  In  In57  1  0.33419031  0.66203588  0.33793546  1
  In  In58  1  0.15954373  0.33042066  0.51130676  1
  In  In59  1  0.17530768  0.50346049  0.66919073  1
  In  In60  1  0.01008927  0.31471354  -0.01472747  1
  In  In61  1  0.49231764  -0.00941010  0.81723094  1
  In  In62  1  0.65999079  0.00152179  -0.00116054  1
  In  In63  1  0.49613168  0.15180774  0.66306632  1
  In  In64  1  0.82209478  0.15738564  0.33239031  1
  In  In65  1  0.17053731  -0.00440173  0.82895998  1
  In  In66  1  0.66786006  0.67348388  0.66476852  1
  In  In67  1  0.18449394  0.83445767  -0.01199528  1
  In  In68  1  0.17723193  0.67928359  0.81938830  1
  In  In69  1  0.17723626  0.51905294  -0.01914496  1
  In  In70  1  0.18143112  0.65117798  0.16360957  1
  In  In71  1  0.66762784  0.48858085  0.16386813  1
  Te  Te72  1  0.09692530  0.10595442  0.05753215  1
  Te  Te73  1  0.09706882  0.07072447  0.43466618  1
  Te  Te74  1  0.06882500  0.04819127  0.72799327  1
  Te  Te75  1  0.09284797  0.41713973  0.06486627  1
  Te  Te76  1  0.08055339  0.41147006  0.40857962  1
  Te  Te77  1  0.10251239  0.41945734  0.76965754  1
  Te  Te78  1  0.09180299  0.75832174  0.09579962  1
  Te  Te79  1  0.09125394  0.74992976  0.41800692  1
  Te  Te80  1  0.07697394  0.74892814  0.73234478  1
  Te  Te81  1  0.39933402  0.09649204  0.08970995  1
  Te  Te82  1  0.41485834  0.09980886  0.40813111  1
  Te  Te83  1  0.39554732  0.09384254  0.76084189  1
  Te  Te84  1  0.41774531  0.41605967  0.07547399  1
  Te  Te85  1  0.41474345  0.43287902  0.41771341  1
  Te  Te86  1  0.39920725  0.43447904  0.75052728  1
  Te  Te87  1  0.40535701  0.73314157  0.07554359  1
  Te  Te88  1  0.43791869  0.73638788  0.41666281  1
  Te  Te89  1  0.36725423  0.76625123  0.73002059  1
  Te  Te90  1  0.76652093  0.07192279  0.08614663  1
  Te  Te91  1  0.76077249  0.06918216  0.43210932  1
  Te  Te92  1  0.74497371  0.10237654  0.76189303  1
  Te  Te93  1  0.75033084  0.39742437  0.08192944  1
  Te  Te94  1  0.74119956  0.41657763  0.42337799  1
  Te  Te95  1  0.76606123  0.43780512  0.74784576  1
  Te  Te96  1  0.75490791  0.77399958  0.08628922  1
  Te  Te97  1  0.75394457  0.73238631  0.43461422  1
  Te  Te98  1  0.75659251  0.74828382  0.76485492  1
  Te  Te99  1  0.11784822  0.27091885  0.21471009  1
  Te  Te100  1  0.11071245  0.22817588  0.61325027  1
  Te  Te101  1  0.11330620  0.26046512  0.88612091  1
  Te  Te102  1  0.08335963  0.58151146  0.26130513  1
  Te  Te103  1  0.06313327  0.59936780  0.62257355  1
  Te  Te104  1  0.07308928  0.58415587  0.88584342  1
  Te  Te105  1  0.08498304  0.91825185  0.25074229  1
  Te  Te106  1  0.10965033  0.94456683  0.61568781  1
  Te  Te107  1  0.07981299  0.93018614  0.93530725  1
  Te  Te108  1  0.42137033  0.23873339  0.25316778  1
  Te  Te109  1  0.41098497  0.26229941  0.59658726  1
  Te  Te110  1  0.40984174  0.25561306  0.91242975  1
  Te  Te111  1  0.40924464  0.57013209  0.24955655  1
  Te  Te112  1  0.39322267  0.60257764  0.54211909  1
  Te  Te113  1  0.39149807  0.60022108  0.90474844  1
  Te  Te114  1  0.42021670  0.89617032  0.25263947  1
  Te  Te115  1  0.42217204  0.91071163  0.58114402  1
  Te  Te116  1  0.40397252  0.90426851  0.90600404  1
  Te  Te117  1  0.75927583  0.26114046  0.24043787  1
  Te  Te118  1  0.73737471  0.23735892  0.56153338  1
  Te  Te119  1  0.72937967  0.24647262  0.91439831  1
  Te  Te120  1  0.75045113  0.57366879  0.26140111  1
  Te  Te121  1  0.77530966  0.58750331  0.59736154  1
  Te  Te122  1  0.78116009  0.60061937  0.90953971  1
  Te  Te123  1  0.75738298  0.91886295  0.23504760  1
  Te  Te124  1  0.74777665  0.91875472  0.57688092  1
  Te  Te125  1  0.76609164  0.91187972  0.92962999  1
  Te  Te126  1  0.22454570  0.24174258  0.10226319  1
  Te  Te127  1  0.24771845  0.24640119  0.41842661  1
  Te  Te128  1  0.22482798  0.21872327  0.78026418  1
  Te  Te129  1  0.27489305  0.57663958  0.07870126  1
  Te  Te130  1  0.26123411  0.57676093  0.45610999  1
  Te  Te131  1  0.27152249  0.59321517  0.74053387  1
  Te  Te132  1  0.26367802  0.91457553  0.09230805  1
  Te  Te133  1  0.25365550  0.92658944  0.44310627  1
  Te  Te134  1  0.25429931  0.88434405  0.77028515  1
  Te  Te135  1  0.59046926  0.25256300  0.07864046  1
  Te  Te136  1  0.58678892  0.23005191  0.41749965  1
  Te  Te137  1  0.58320401  0.24561839  0.75005089  1
  Te  Te138  1  0.58514345  0.58245603  0.07339473  1
  Te  Te139  1  0.56180621  0.58899837  0.43379996  1
  Te  Te140  1  0.57153617  0.57516238  0.74862444  1
  Te  Te141  1  0.58897112  0.91040931  0.09776598  1
  Te  Te142  1  0.57784328  0.90063317  0.39526981  1
  Te  Te143  1  0.56607415  0.89281072  0.72583903  1
  Te  Te144  1  0.91581292  0.26465975  0.09531890  1
  Te  Te145  1  0.93059432  0.24480659  0.41629827  1
  Te  Te146  1  0.91534609  0.25230767  0.74791351  1
  Te  Te147  1  0.92525677  0.59251673  0.08516119  1
  Te  Te148  1  0.89440147  0.56389399  0.42283046  1
  Te  Te149  1  0.86704484  0.55436417  0.71273655  1
  Te  Te150  1  0.89735793  0.95804881  0.05099123  1
  Te  Te151  1  0.91720642  0.90231264  0.42798544  1
  Te  Te152  1  0.91883748  0.91556027  0.74233140  1
  Te  Te153  1  0.25300702  0.08913533  0.24953642  1
  Te  Te154  1  0.23479589  0.07134176  0.60168699  1
  Te  Te155  1  0.24359964  0.10278102  0.90613475  1
  Te  Te156  1  0.25360276  0.41651398  0.22746893  1
  Te  Te157  1  0.26495347  0.40982433  0.58518819  1
  Te  Te158  1  0.25169806  0.41449787  0.90489964  1
  Te  Te159  1  0.26553887  0.75735970  0.23965577  1
  Te  Te160  1  0.25557940  0.75632212  0.61624199  1
  Te  Te161  1  0.26670870  0.72373395  0.93404224  1
  Te  Te162  1  0.57267686  0.08980331  0.26052933  1
  Te  Te163  1  0.59243556  0.07745881  0.57233428  1
  Te  Te164  1  0.58367270  0.08438707  0.89710149  1
  Te  Te165  1  0.56771544  0.43694436  0.26727508  1
  Te  Te166  1  0.58033505  0.41398475  0.59828984  1
  Te  Te167  1  0.59583271  0.40825155  0.92851286  1
  Te  Te168  1  0.60190312  0.75591883  0.23624805  1
  Te  Te169  1  0.56119288  0.73627885  0.58419182  1
  Te  Te170  1  0.57646776  0.74300677  0.90743792  1
  Te  Te171  1  0.90946401  0.07126347  0.23968175  1
  Te  Te172  1  0.91348266  0.06031119  0.57772017  1
  Te  Te173  1  0.93365893  0.08747184  0.92575482  1
  Te  Te174  1  0.90123263  0.42750035  0.25972576  1
  Te  Te175  1  0.92724272  0.43030631  0.59544306  1
  Te  Te176  1  0.93581154  0.42816481  0.90919442  1
  Te  Te177  1  0.92950931  0.75940086  0.24696018  1
  Te  Te178  1  0.93123734  0.74434596  0.57114265  1
  Te  Te179  1  0.91235760  0.75515717  0.91420829  1
