# generated using pymatgen
data_In2Te3
_symmetry_space_group_name_H-M   'P 1'
_cell_length_a   18.98032623
_cell_length_b   18.97910444
_cell_length_c   18.98021243
_cell_angle_alpha   90.02382291
_cell_angle_beta   89.97597685
_cell_angle_gamma   89.88777155
_symmetry_Int_Tables_number   1
_chemical_formula_structural   In2Te3
_chemical_formula_sum   'In72 Te108'
_cell_volume   6837.21990479
_cell_formula_units_Z   36
loop_
 _symmetry_equiv_pos_site_id
 _symmetry_equiv_pos_as_xyz
  1  'x, y, z'
loop_
 _atom_site_type_symbol
 _atom_site_label
 _atom_site_symmetry_multiplicity
 _atom_site_fract_x
 _atom_site_fract_y
 _atom_site_fract_z
 _atom_site_occupancy
  In  In0  1  0.65744454  0.81746594  0.47635917  1
  In  In1  1  0.67914797  0.32900073  0.02334168  1
  In  In2  1  0.48430268  0.17057972  0.65970910  1
  In  In3  1  0.30848838  0.49104173  0.83210389  1
  In  In4  1  0.19406358  -0.00562373  0.17547678  1
  In  In5  1  0.17768977  0.66375179  0.48230167  1
  In  In6  1  0.49809975  0.32357842  0.48908053  1
  In  In7  1  0.17562268  0.17656521  0.00861809  1
  In  In8  1  0.67749760  0.64690191  0.30208519  1
  In  In9  1  -0.01093150  0.82727995  0.52074209  1
  In  In10  1  0.00415520  0.34983842  -0.02427338  1
  In  In11  1  -0.02467290  0.52504289  0.17633480  1
  In  In12  1  0.82409967  0.15656422  -0.01208054  1
  In  In13  1  0.82041611  0.01338373  0.82737208  1
  In  In14  1  0.64570161  0.34261223  0.66191243  1
  In  In15  1  0.49102785  -0.00588319  0.84876136  1
  In  In16  1  0.31717721  0.50410015  0.49427537  1
  In  In17  1  0.50594735  0.17076690  0.33057251  1
  In  In18  1  0.66787963  0.15788368  0.49146945  1
  In  In19  1  0.51203181  0.34497160  0.19014784  1
  In  In20  1  0.49336192  0.82933966  0.02854018  1
  In  In21  1  0.82606162  0.82768787  0.31620078  1
  In  In22  1  0.82214999  0.67164277  0.84258657  1
  In  In23  1  0.34743719  0.81547054  0.47038509  1
  In  In24  1  0.68904918  0.62725927  0.64147242  1
  In  In25  1  0.63816738  0.83586916  0.86036675  1
  In  In26  1  0.32751303  -0.00735492  0.65680149  1
  In  In27  1  0.16990651  0.35043727  0.82226775  1
  In  In28  1  0.16454629  -0.00160248  0.48121354  1
  In  In29  1  0.80215103  0.39643473  0.49018717  1
  In  In30  1  0.01317203  0.65409147  0.34657573  1
  In  In31  1  0.32511087  0.80337505  0.20110811  1
  In  In32  1  0.34773810  0.00397066  0.34059532  1
  In  In33  1  0.33004763  0.50237009  0.17552461  1
  In  In34  1  0.68980398  0.00896928  0.65492569  1
  In  In35  1  0.83940193  0.34938212  0.17443979  1
  In  In36  1  0.01884660  0.34141111  0.33001064  1
  In  In37  1  -0.01367547  0.16331299  0.16598161  1
  In  In38  1  0.67178933  -0.00086946  0.01185964  1
  In  In39  1  0.16522659  0.17760896  0.67214277  1
  In  In40  1  0.50614978  0.82793358  0.33090299  1
  In  In41  1  -0.00117726  0.48690805  0.48964566  1
  In  In42  1  0.12110612  0.54835356  0.02153004  1
  In  In43  1  0.15975933  0.01591908  0.83275692  1
  In  In44  1  0.18351954  0.33421039  0.15562324  1
  In  In45  1  0.68718993  0.49715430  0.85019756  1
  In  In46  1  -0.01797403  0.65946485  0.69018812  1
  In  In47  1  0.46983523  0.51721309  0.66635598  1
  In  In48  1  0.49313509  0.15252637  -0.00552158  1
  In  In49  1  0.83985361  0.17355875  0.32959481  1
  In  In50  1  0.16815419  0.84822747  0.64983869  1
  In  In51  1  0.16250371  0.64058563  0.84843130  1
  In  In52  1  0.81783091  0.82351909  0.67991150  1
  In  In53  1  0.49360734  0.34947025  0.83211801  1
  In  In54  1  0.84817686  0.32223043  0.83260906  1
  In  In55  1  0.02644925  0.80721593  0.13841971  1
  In  In56  1  0.00638521  -0.00852605  0.33385968  1
  In  In57  1  -0.01691515  -0.00302768  -0.00613817  1
  In  In58  1  0.01756670  0.17602432  0.51554614  1
  In  In59  1  0.50961606  0.50412403  0.31956359  1
  In  In60  1  0.30680962  0.20178657  0.46024779  1
  In  In61  1  -0.00603474  0.85820407  0.83159572  1
  In  In62  1  0.33523732  -0.01921156  0.01471028  1
  In  In63  1  0.32403286  0.64447831  0.00602157  1
  In  In64  1  0.84045428  0.80329069  0.01456780  1
  In  In65  1  0.66499872  0.00062561  0.32591641  1
  In  In66  1  0.33825613  0.33167147  0.00793696  1
  In  In67  1  0.50351646  0.67077647  0.84230639  1
  In  In68  1  0.56107701  0.51842624  0.06317691  1
  In  In69  1  0.15972088  0.49903616  0.65863761  1
  In  In70  1  0.85596199  0.19165842  0.65480641  1
  In  In71  1  0.50299594  0.81953279  0.66165169  1
  Te  Te72  1  0.08506772  0.07661239  0.08361309  1
  Te  Te73  1  0.08897961  0.09965893  0.39937643  1
  Te  Te74  1  0.07429423  0.08194254  0.73572919  1
  Te  Te75  1  0.06828404  0.41746823  0.09689267  1
  Te  Te76  1  0.11330359  0.41966210  0.41752948  1
  Te  Te77  1  0.07018405  0.44348095  0.76325852  1
  Te  Te78  1  0.08198740  0.69090444  0.06861608  1
  Te  Te79  1  0.08695039  0.76914882  0.42257375  1
  Te  Te80  1  0.07826970  0.76582645  0.74324510  1
  Te  Te81  1  0.43256819  0.05997065  0.08932082  1
  Te  Te82  1  0.41783068  0.10080174  0.43281533  1
  Te  Te83  1  0.40758825  0.07816105  0.75369911  1
  Te  Te84  1  0.42925356  0.42845339  0.07980242  1
  Te  Te85  1  0.41761363  0.42288326  0.40969485  1
  Te  Te86  1  0.39263201  0.40737560  0.73615976  1
  Te  Te87  1  0.41347264  0.72442267  0.10165213  1
  Te  Te88  1  0.44469735  0.72302919  0.41280958  1
  Te  Te89  1  0.41696152  0.75095852  0.75687500  1
  Te  Te90  1  0.75272988  0.08781603  0.09395618  1
  Te  Te91  1  0.76533755  0.07213656  0.41692834  1
  Te  Te92  1  0.74988525  0.11489403  0.74184705  1
  Te  Te93  1  0.75597140  0.43494897  0.08773083  1
  Te  Te94  1  0.70235881  0.46203024  0.40052130  1
  Te  Te95  1  0.75121408  0.40923421  0.74554114  1
  Te  Te96  1  0.78059108  0.71997254  0.12144994  1
  Te  Te97  1  0.75826019  0.72990401  0.40926880  1
  Te  Te98  1  0.71225216  0.74750086  0.75627830  1
  Te  Te99  1  0.09041634  0.24356776  0.23825017  1
  Te  Te100  1  0.10502740  0.27517140  0.58022876  1
  Te  Te101  1  0.09018992  0.24671282  0.90699108  1
  Te  Te102  1  0.08618078  0.55448727  0.26658882  1
  Te  Te103  1  0.07659573  0.60211811  0.58049989  1
  Te  Te104  1  0.05279983  0.55116760  0.88867867  1
  Te  Te105  1  0.09063370  0.90610736  0.24124795  1
  Te  Te106  1  0.06955240  0.94141964  0.58400840  1
  Te  Te107  1  0.09312819  0.91585573  0.92973555  1
  Te  Te108  1  0.41431671  0.26368215  0.26130216  1
  Te  Te109  1  0.39386693  0.25763883  0.57695547  1
  Te  Te110  1  0.41009073  0.24625085  0.90644901  1
  Te  Te111  1  0.42883990  0.59368183  0.23442483  1
  Te  Te112  1  0.39871101  0.60055430  0.57075216  1
  Te  Te113  1  0.41397198  0.56803221  0.90964622  1
  Te  Te114  1  0.41951137  0.91487842  0.24129334  1
  Te  Te115  1  0.41958867  0.90865947  0.57164926  1
  Te  Te116  1  0.40953606  0.88828375  0.91671772  1
  Te  Te117  1  0.75270986  0.25775071  0.24827467  1
  Te  Te118  1  0.74132262  0.26782050  0.56811621  1
  Te  Te119  1  0.73593838  0.24963969  0.90841726  1
  Te  Te120  1  0.79961126  0.60179140  0.22222874  1
  Te  Te121  1  0.75271409  0.53128958  0.54971475  1
  Te  Te122  1  0.73788172  0.60104599  0.94009401  1
  Te  Te123  1  0.73304851  0.90627096  0.23399670  1
  Te  Te124  1  0.74934430  0.90190271  0.56862140  1
  Te  Te125  1  0.76776942  0.90031906  0.91388579  1
  Te  Te126  1  0.28168592  0.22877212  0.10311259  1
  Te  Te127  1  0.22462909  0.30968581  0.40195453  1
  Te  Te128  1  0.25516834  0.24782574  0.76417136  1
  Te  Te129  1  0.22882198  0.60181792  0.11718714  1
  Te  Te130  1  0.26410664  0.59816738  0.38013626  1
  Te  Te131  1  0.25131110  0.59339339  0.73632340  1
  Te  Te132  1  0.24930298  0.88243895  0.09066341  1
  Te  Te133  1  0.24814406  0.90482408  0.39770476  1
  Te  Te134  1  0.24974529  0.91381662  0.75868864  1
  Te  Te135  1  0.57037545  0.24788029  0.08793220  1
  Te  Te136  1  0.60528146  0.26187171  0.40223568  1
  Te  Te137  1  0.57470776  0.24664885  0.75471025  1
  Te  Te138  1  0.61141453  0.61797885  0.16027243  1
  Te  Te139  1  0.59784287  0.58160367  0.41394898  1
  Te  Te140  1  0.59052563  0.57262453  0.74973234  1
  Te  Te141  1  0.60719878  0.89606563  0.09458746  1
  Te  Te142  1  0.57150396  0.92931116  0.42283852  1
  Te  Te143  1  0.58848654  0.92748323  0.74476581  1
  Te  Te144  1  0.91579801  0.25277189  0.06663803  1
  Te  Te145  1  0.92807721  0.25774805  0.41760090  1
  Te  Te146  1  0.94695011  0.26673631  0.74006418  1
  Te  Te147  1  0.88673029  0.60717865  0.09079635  1
  Te  Te148  1  0.91116997  0.58581890  0.42686640  1
  Te  Te149  1  0.87247283  0.57755464  0.74085632  1
  Te  Te150  1  0.91593257  0.90790735  0.09415744  1
  Te  Te151  1  0.91242521  0.90796010  0.41764391  1
  Te  Te152  1  0.90816946  0.93337887  0.73218298  1
  Te  Te153  1  0.25463011  0.09026084  0.26637937  1
  Te  Te154  1  0.25470974  0.08821132  0.56348490  1
  Te  Te155  1  0.26024037  0.08068661  0.92693347  1
  Te  Te156  1  0.26388331  0.39977362  0.26158347  1
  Te  Te157  1  0.24211362  0.40765174  0.57868272  1
  Te  Te158  1  0.23522649  0.42335807  0.94676339  1
  Te  Te159  1  0.24180200  0.71855972  0.28569729  1
  Te  Te160  1  0.25808836  0.75177793  0.57786351  1
  Te  Te161  1  0.24327547  0.73465753  0.92315504  1
  Te  Te162  1  0.58119753  0.08482427  0.24032147  1
  Te  Te163  1  0.57615340  0.07816366  0.58102192  1
  Te  Te164  1  0.59850676  0.08164730  0.90874171  1
  Te  Te165  1  0.61973529  0.42075283  0.25943756  1
  Te  Te166  1  0.56026718  0.43136233  0.57656687  1
  Te  Te167  1  0.58240059  0.42047851  0.93184914  1
  Te  Te168  1  0.59563207  0.75617842  0.23448531  1
  Te  Te169  1  0.59177634  0.72613760  0.57972796  1
  Te  Te170  1  0.58859165  0.72903410  0.95340321  1
  Te  Te171  1  0.90666617  0.06426633  0.24465882  1
  Te  Te172  1  0.90887903  0.09017760  0.56490068  1
  Te  Te173  1  0.92821812  0.09592712  0.89463628  1
  Te  Te174  1  0.90919151  0.43277939  0.27926551  1
  Te  Te175  1  0.91846238  0.40304993  0.57833784  1
  Te  Te176  1  0.89026624  0.42659822  0.92774215  1
  Te  Te177  1  0.94276951  0.75269931  0.25246550  1
  Te  Te178  1  0.89308372  0.73064138  0.58699728  1
  Te  Te179  1  0.93629124  0.74379208  0.91333325  1
