# generated using pymatgen
data_In2Te3
_symmetry_space_group_name_H-M   'P 1'
_cell_length_a   18.80330687
_cell_length_b   18.80102780
_cell_length_c   18.79642124
_cell_angle_alpha   90.02875888
_cell_angle_beta   90.05933782
_cell_angle_gamma   90.12676455
_symmetry_Int_Tables_number   1
_chemical_formula_structural   In2Te3
_chemical_formula_sum   'In72 Te108'
_cell_volume   6644.91827119
_cell_formula_units_Z   36
loop_
 _symmetry_equiv_pos_site_id
 _symmetry_equiv_pos_as_xyz
  1  'x, y, z'
loop_
 _atom_site_type_symbol
 _atom_site_label
 _atom_site_symmetry_multiplicity
 _atom_site_fract_x
 _atom_site_fract_y
 _atom_site_fract_z
 _atom_site_occupancy
  In  In0  1  0.16369553  0.50482248  0.65409340  1
  In  In1  1  0.32391263  0.67343486  0.64931380  1
  In  In2  1  0.30498642  0.19132646  0.47231496  1
  In  In3  1  0.80836685  0.00411758  0.49040943  1
  In  In4  1  0.35359912  0.47088476  0.49919440  1
  In  In5  1  0.49624167  0.82247762  0.64904358  1
  In  In6  1  0.82541373  0.15170034  0.33465901  1
  In  In7  1  0.16551063  0.18089233  0.66350645  1
  In  In8  1  0.14302623  0.68886875  0.82426087  1
  In  In9  1  0.84859617  0.32909645  0.18515701  1
  In  In10  1  -0.02149019  0.51949132  0.82164733  1
  In  In11  1  0.67534654  0.82560505  0.52748873  1
  In  In12  1  0.16643751  0.00543546  0.15864141  1
  In  In13  1  0.81981143  0.34925593  0.79193228  1
  In  In14  1  0.85001149  -0.00318904  0.15963542  1
  In  In15  1  0.52983522  0.46120860  0.64593065  1
  In  In16  1  0.66874554  0.16032793  0.17394359  1
  In  In17  1  0.00851918  0.18349055  0.50731525  1
  In  In18  1  0.32602270  0.01221391  0.00308227  1
  In  In19  1  -0.03166132  0.81462685  0.82155169  1
  In  In20  1  0.66759351  0.00851889  0.67032372  1
  In  In21  1  0.84324161  0.17834871  -0.00358249  1
  In  In22  1  0.49680353  0.16736209  0.67973340  1
  In  In23  1  0.01523205  0.34621171  0.00892693  1
  In  In24  1  0.00351217  0.65055049  0.33000990  1
  In  In25  1  0.34197137  0.34086372  0.66826584  1
  In  In26  1  0.31016087  0.83992829  0.82569426  1
  In  In27  1  0.50910749  0.02486788  0.83744659  1
  In  In28  1  0.34037703  0.00361081  0.31363059  1
  In  In29  1  0.66806673  0.50017685  0.16150889  1
  In  In30  1  0.84045715  0.52232089  -0.00434476  1
  In  In31  1  0.01481363  0.32797577  0.32070326  1
  In  In32  1  -0.01605123  0.00494187  0.34426958  1
  In  In33  1  0.83123479  0.84292764  -0.02111212  1
  In  In34  1  0.17315269  0.00155292  0.85571870  1
  In  In35  1  0.16790679  0.66292116  0.49406286  1
  In  In36  1  0.52112131  0.44480869  -0.01765386  1
  In  In37  1  0.15403577  0.49585504  -0.00704563  1
  In  In38  1  0.66187432  0.86454176  0.16623247  1
  In  In39  1  0.51693131  0.84000907  0.00324918  1
  In  In40  1  0.81572021  0.33355805  0.52742394  1
  In  In41  1  0.49540881  0.32853817  0.17174067  1
  In  In42  1  0.33307333  0.67704436  -0.01983355  1
  In  In43  1  0.15093908  0.82020828  0.32997511  1
  In  In44  1  0.69661773  0.67158344  -0.02696900  1
  In  In45  1  0.32697786  0.16797020  0.14837470  1
  In  In46  1  -0.03066087  0.51437977  0.52355855  1
  In  In47  1  0.49783797  -0.01446065  0.50861951  1
  In  In48  1  0.35683010  0.49331803  0.81753934  1
  In  In49  1  0.30598329  0.49200384  0.18080361  1
  In  In50  1  0.17119567  0.33265359  0.83174389  1
  In  In51  1  0.15796867  0.48732565  0.32945754  1
  In  In52  1  -0.01088547  -0.01659234  0.68266366  1
  In  In53  1  0.52715999  0.62832722  0.80335136  1
  In  In54  1  0.64776359  0.65657303  0.35334508  1
  In  In55  1  0.66297220  0.32555273  -0.01459343  1
  In  In56  1  0.35259087  0.28640303  -0.01202268  1
  In  In57  1  0.00600395  0.00442557  0.00746658  1
  In  In58  1  0.85047925  0.47358672  0.34371671  1
  In  In59  1  0.48016535  0.85232967  0.33586640  1
  In  In60  1  0.69911260  0.82767015  0.81514530  1
  In  In61  1  0.14814725  0.00025645  0.51767726  1
  In  In62  1  0.82971531  0.83289365  0.32454552  1
  In  In63  1  0.30067406  0.67520287  0.29707056  1
  In  In64  1  0.52163329  0.66979036  0.50158675  1
  In  In65  1  0.81660695  0.16160358  0.67555788  1
  In  In66  1  -0.01947077  0.17866003  0.84421250  1
  In  In67  1  0.51259639  0.50111798  0.36409757  1
  In  In68  1  0.52647516  0.17495074  0.34028501  1
  In  In69  1  0.34332292  0.84069809  0.50046682  1
  In  In70  1  0.49926450  0.66170124  0.15300538  1
  In  In71  1  0.85047379  0.65856329  0.16269749  1
  Te  Te72  1  0.08997784  0.10276574  0.07716835  1
  Te  Te73  1  0.08802786  0.09347717  0.41326240  1
  Te  Te74  1  0.07465651  0.09241824  0.75202790  1
  Te  Te75  1  0.11387251  0.40500094  0.10402980  1
  Te  Te76  1  0.06040870  0.42937245  0.42833200  1
  Te  Te77  1  0.07902057  0.42502449  0.75350744  1
  Te  Te78  1  0.12143620  0.71753249  0.13703884  1
  Te  Te79  1  0.05957142  0.75112213  0.43217894  1
  Te  Te80  1  0.06515333  0.75887331  0.72206217  1
  Te  Te81  1  0.42750305  0.07734944  0.08946508  1
  Te  Te82  1  0.41403531  0.08195350  0.42336214  1
  Te  Te83  1  0.40276259  0.07519797  0.74845225  1
  Te  Te84  1  0.40935852  0.42034710  0.08339715  1
  Te  Te85  1  0.43699879  0.38056082  0.41454485  1
  Te  Te86  1  0.45475390  0.39418937  0.76098532  1
  Te  Te87  1  0.40927967  0.76213116  0.08236036  1
  Te  Te88  1  0.40987740  0.73281782  0.41430423  1
  Te  Te89  1  0.41504454  0.73838587  0.75517166  1
  Te  Te90  1  0.75518866  0.08132768  0.07485788  1
  Te  Te91  1  0.72262746  0.10779236  0.43115998  1
  Te  Te92  1  0.73913482  0.08403306  0.77452462  1
  Te  Te93  1  0.76153239  0.40762129  0.08293883  1
  Te  Te94  1  0.74396485  0.41083331  0.42219061  1
  Te  Te95  1  0.71041688  0.42347606  0.72500900  1
  Te  Te96  1  0.74137652  0.75186113  0.09809121  1
  Te  Te97  1  0.75183029  0.74497848  0.42314509  1
  Te  Te98  1  0.78467693  0.72584032  0.74851461  1
  Te  Te99  1  0.12533159  0.25172022  0.26353981  1
  Te  Te100  1  0.08513078  0.27944436  0.58878342  1
  Te  Te101  1  0.09245271  0.24238201  0.92561337  1
  Te  Te102  1  0.10975502  0.59949987  0.23532508  1
  Te  Te103  1  0.06858025  0.60785731  0.59792436  1
  Te  Te104  1  0.06554122  0.59776592  0.92031012  1
  Te  Te105  1  0.07077407  0.92306497  0.25032495  1
  Te  Te106  1  0.05850794  0.90205275  0.58015375  1
  Te  Te107  1  0.06615095  0.90725402  0.90781133  1
  Te  Te108  1  0.41186315  0.23826074  0.25864969  1
  Te  Te109  1  0.40904953  0.24282018  0.57385270  1
  Te  Te110  1  0.46239929  0.24452465  0.89731219  1
  Te  Te111  1  0.42388595  0.57425919  0.25426175  1
  Te  Te112  1  0.42360625  0.57228899  0.59312031  1
  Te  Te113  1  0.43329767  0.57583241  0.92228364  1
  Te  Te114  1  0.41188093  0.91390592  0.22191904  1
  Te  Te115  1  0.39736700  0.93210837  0.61074920  1
  Te  Te116  1  0.41703088  0.91318517  0.90782535  1
  Te  Te117  1  0.74016387  0.26065431  0.26500953  1
  Te  Te118  1  0.71654071  0.25588070  0.61221532  1
  Te  Te119  1  0.75704033  0.24759960  0.89260537  1
  Te  Te120  1  0.75155210  0.58474496  0.25751613  1
  Te  Te121  1  0.80909086  0.61102659  0.59420089  1
  Te  Te122  1  0.75331617  0.56697909  0.88402533  1
  Te  Te123  1  0.74893254  0.94594081  0.26328309  1
  Te  Te124  1  0.77050184  0.91240103  0.60774302  1
  Te  Te125  1  0.71681729  0.92000171  0.92842321  1
  Te  Te126  1  0.24289240  0.27463039  0.08542399  1
  Te  Te127  1  0.20717716  0.27119847  0.39407902  1
  Te  Te128  1  0.26972398  0.24201302  0.75997463  1
  Te  Te129  1  0.24917671  0.58792399  0.07450517  1
  Te  Te130  1  0.26550756  0.57452473  0.41833266  1
  Te  Te131  1  0.24765180  0.58546704  0.76230669  1
  Te  Te132  1  0.23196624  0.91394188  0.06260300  1
  Te  Te133  1  0.24651542  0.91915055  0.41240123  1
  Te  Te134  1  0.22461249  0.92330312  0.74136261  1
  Te  Te135  1  0.57627300  0.23741423  0.08035364  1
  Te  Te136  1  0.57217417  0.28656800  0.42620563  1
  Te  Te137  1  0.57592587  0.23452590  0.78862471  1
  Te  Te138  1  0.59163961  0.58302735  0.05985806  1
  Te  Te139  1  0.61729366  0.55513862  0.46485768  1
  Te  Te140  1  0.62539052  0.56002613  0.71000499  1
  Te  Te141  1  0.57643510  0.95089381  0.08192168  1
  Te  Te142  1  0.59398716  0.90643206  0.42155174  1
  Te  Te143  1  0.57625836  0.90828960  0.74893696  1
  Te  Te144  1  0.93812079  0.24458188  0.09562228  1
  Te  Te145  1  0.90859554  0.25631629  0.41407341  1
  Te  Te146  1  0.92539400  0.25797004  0.72764430  1
  Te  Te147  1  0.94391028  0.57463572  0.08615696  1
  Te  Te148  1  0.89160702  0.59885070  0.42142129  1
  Te  Te149  1  0.89482832  0.59991473  0.72529249  1
  Te  Te150  1  0.93079322  0.89310774  0.08407162  1
  Te  Te151  1  0.91070283  0.90537371  0.43305579  1
  Te  Te152  1  0.88305674  0.92436003  0.76636870  1
  Te  Te153  1  0.23834877  0.09876767  0.25788126  1
  Te  Te154  1  0.25462465  0.09055007  0.57871264  1
  Te  Te155  1  0.25733719  0.10833615  0.91371039  1
  Te  Te156  1  0.26883656  0.39544849  0.28869831  1
  Te  Te157  1  0.23791563  0.40090443  0.57121411  1
  Te  Te158  1  0.27026901  0.41370228  0.91677887  1
  Te  Te159  1  0.23898159  0.78559516  0.20859880  1
  Te  Te160  1  0.23278365  0.77240259  0.58359261  1
  Te  Te161  1  0.22222171  0.76735799  0.92967227  1
  Te  Te162  1  0.58112043  0.07025428  0.25279113  1
  Te  Te163  1  0.58526053  0.09117879  0.57389786  1
  Te  Te164  1  0.57261631  0.13106842  0.91938404  1
  Te  Te165  1  0.58813168  0.41464625  0.25652692  1
  Te  Te166  1  0.58985319  0.34890840  0.57027926  1
  Te  Te167  1  0.63674908  0.43867796  0.88780643  1
  Te  Te168  1  0.57991179  0.75058853  0.25089299  1
  Te  Te169  1  0.60792380  0.72325336  0.61791141  1
  Te  Te170  1  0.58152763  0.74290669  0.89972288  1
  Te  Te171  1  0.93141731  0.10095258  0.23728291  1
  Te  Te172  1  0.91437441  0.08442613  0.57655301  1
  Te  Te173  1  0.90379398  0.06628384  0.91115133  1
  Te  Te174  1  0.94584388  0.43656055  0.23263898  1
  Te  Te175  1  0.89884430  0.42094541  0.61448647  1
  Te  Te176  1  0.91213310  0.40444346  0.91171470  1
  Te  Te177  1  0.93373286  0.75797813  0.24363034  1
  Te  Te178  1  0.87479521  0.73981703  0.62146366  1
  Te  Te179  1  0.90816371  0.72917347  0.92806267  1
