# generated using pymatgen
data_In2Te3
_symmetry_space_group_name_H-M   'P 1'
_cell_length_a   18.78929904
_cell_length_b   18.79970327
_cell_length_c   18.80044931
_cell_angle_alpha   90.00971136
_cell_angle_beta   90.09524999
_cell_angle_gamma   90.02297943
_symmetry_Int_Tables_number   1
_chemical_formula_structural   In2Te3
_chemical_formula_sum   'In72 Te108'
_cell_volume   6640.93394197
_cell_formula_units_Z   36
loop_
 _symmetry_equiv_pos_site_id
 _symmetry_equiv_pos_as_xyz
  1  'x, y, z'
loop_
 _atom_site_type_symbol
 _atom_site_label
 _atom_site_symmetry_multiplicity
 _atom_site_fract_x
 _atom_site_fract_y
 _atom_site_fract_z
 _atom_site_occupancy
  In  In0  1  0.17998972  0.32489222  0.84409354  1
  In  In1  1  0.00640381  0.49484184  0.19565405  1
  In  In2  1  0.05220609  0.19836681  0.45910552  1
  In  In3  1  0.65659399  0.49743470  0.17521403  1
  In  In4  1  0.64983678  0.34832770  0.00338737  1
  In  In5  1  0.33480856  0.17845305  0.14637558  1
  In  In6  1  0.66506628  0.67717707  0.65659955  1
  In  In7  1  0.31578125  0.32645443  0.66586391  1
  In  In8  1  0.85347976  0.67439328  0.50328797  1
  In  In9  1  0.02446052  0.33269420  0.64032905  1
  In  In10  1  0.33088126  0.00133243  -0.02101007  1
  In  In11  1  0.85524200  0.83957762  0.33760085  1
  In  In12  1  0.00318924  0.31989606  0.02019226  1
  In  In13  1  0.34034573  0.65929133  0.01607695  1
  In  In14  1  0.65046517  0.29897987  0.65354844  1
  In  In15  1  0.84544085  0.64834988  0.84736459  1
  In  In16  1  0.19041859  0.51411339  0.66270653  1
  In  In17  1  0.18716829  0.49290324  -0.00670081  1
  In  In18  1  0.01036488  0.67571114  0.32135164  1
  In  In19  1  -0.02207170  0.50788591  0.81272308  1
  In  In20  1  0.82818955  0.48427650  0.31902273  1
  In  In21  1  0.82864673  0.49425824  0.01751729  1
  In  In22  1  0.67364334  0.18049968  0.51739167  1
  In  In23  1  0.19302418  0.15866367  -0.00785765  1
  In  In24  1  0.85785348  -0.01188132  0.49217797  1
  In  In25  1  0.61880695  0.16230893  0.86506600  1
  In  In26  1  0.19043629  0.66515908  0.82671989  1
  In  In27  1  0.66016175  0.34198993  0.32933826  1
  In  In28  1  0.83962520  0.17100064  0.65789260  1
  In  In29  1  0.64397731  0.66953029  0.04408978  1
  In  In30  1  0.83633663  0.31312653  0.81718844  1
  In  In31  1  0.48699006  0.48184150  0.33947692  1
  In  In32  1  0.17537615  0.83971367  0.32586432  1
  In  In33  1  0.84634703  0.16005090  0.00773450  1
  In  In34  1  0.47759948  0.16044242  0.69296042  1
  In  In35  1  0.03199251  0.18591585  0.20580253  1
  In  In36  1  0.01390871  0.66931951  0.01912068  1
  In  In37  1  0.49017158  0.48660219  0.66948458  1
  In  In38  1  0.04037012  0.48177106  0.47206629  1
  In  In39  1  0.83623627  0.01428611  0.17409070  1
  In  In40  1  0.48087241  0.82863082  0.01612873  1
  In  In41  1  0.49024683  0.33668155  0.51179210  1
  In  In42  1  0.33051846  0.81531379  0.17122818  1
  In  In43  1  0.46850995  0.68702079  0.84819815  1
  In  In44  1  0.04268831  0.03420638  0.66955309  1
  In  In45  1  0.66494086  0.82000153  0.50594012  1
  In  In46  1  0.86693200  0.18114748  0.34619673  1
  In  In47  1  -0.00103660  -0.00927433  -0.01297309  1
  In  In48  1  0.66632353  -0.01480990  0.34935353  1
  In  In49  1  0.02551562  0.85535467  0.83202035  1
  In  In50  1  0.65312618  0.00095868  0.69975342  1
  In  In51  1  0.83850839  0.50730963  0.66876262  1
  In  In52  1  0.62678740  0.67289878  0.30568106  1
  In  In53  1  0.81000786  0.83198367  -0.00164909  1
  In  In54  1  0.13152820  0.83716272  -0.00250941  1
  In  In55  1  0.48996271  -0.00437485  0.48628167  1
  In  In56  1  0.34591741  0.82018014  0.50142313  1
  In  In57  1  0.48242907  -0.01970693  0.15249187  1
  In  In58  1  0.66080080  0.17478193  0.15941546  1
  In  In59  1  0.31864997  0.85616828  0.82170185  1
  In  In60  1  0.18182746  0.65745109  0.48995268  1
  In  In61  1  0.47405453  0.16045009  0.31360618  1
  In  In62  1  0.64112930  0.48253931  0.83970011  1
  In  In63  1  0.83721746  0.82781166  0.65033022  1
  In  In64  1  0.17847372  0.85275353  0.66180176  1
  In  In65  1  0.64453242  0.85546023  0.81291337  1
  In  In66  1  0.49965087  0.66870182  0.49103235  1
  In  In67  1  0.32359280  0.49611192  0.48115910  1
  In  In68  1  0.15577237  -0.00042522  0.17513017  1
  In  In69  1  0.31159139  0.00128454  0.33880761  1
  In  In70  1  0.82781930  -0.00659703  0.83940910  1
  In  In71  1  0.32299654  0.48069669  0.17282214  1
  Te  Te72  1  0.07338658  0.09241829  0.08214288  1
  Te  Te73  1  0.12154588  0.07784616  0.39912002  1
  Te  Te74  1  0.13298262  0.10246278  0.76279415  1
  Te  Te75  1  0.09221732  0.41982900  0.08963477  1
  Te  Te76  1  0.12925351  0.39918763  0.38427615  1
  Te  Te77  1  0.09073961  0.42224973  0.75235881  1
  Te  Te78  1  0.09273801  0.75329970  0.11159953  1
  Te  Te79  1  0.08771644  0.75705632  0.42435052  1
  Te  Te80  1  0.09319259  0.75011169  0.74577480  1
  Te  Te81  1  0.43156837  0.09080978  0.06304915  1
  Te  Te82  1  0.39263980  0.09849220  0.42585958  1
  Te  Te83  1  0.37960909  0.07449575  0.76237779  1
  Te  Te84  1  0.37132265  0.38032945  0.06762924  1
  Te  Te85  1  0.38977878  0.38049449  0.40542094  1
  Te  Te86  1  0.41333926  0.39493779  0.75478191  1
  Te  Te87  1  0.44126129  0.71949115  0.11840288  1
  Te  Te88  1  0.40997262  0.73724058  0.39548806  1
  Te  Te89  1  0.39019511  0.75336746  0.74288111  1
  Te  Te90  1  0.73695968  0.07473080  0.07278520  1
  Te  Te91  1  0.75505642  0.08954189  0.41755326  1
  Te  Te92  1  0.74520152  0.10736040  0.76149166  1
  Te  Te93  1  0.75368152  0.39794390  0.10597532  1
  Te  Te94  1  0.74328475  0.42022921  0.42144427  1
  Te  Te95  1  0.74425959  0.41253624  0.74666260  1
  Te  Te96  1  0.76186197  0.73661326  0.09964647  1
  Te  Te97  1  0.74927208  0.74186212  0.40810733  1
  Te  Te98  1  0.75582890  0.75508403  0.75923482  1
  Te  Te99  1  0.11558323  0.29421239  0.26552510  1
  Te  Te100  1  0.11491859  0.21663476  0.60364754  1
  Te  Te101  1  0.07933432  0.23749745  0.91850656  1
  Te  Te102  1  0.10697112  0.57380213  0.27183530  1
  Te  Te103  1  0.08222611  0.58223241  0.58019322  1
  Te  Te104  1  0.07986769  0.58232878  0.90988849  1
  Te  Te105  1  0.06812834  0.90365409  0.24394441  1
  Te  Te106  1  0.08387797  0.92859226  0.57672032  1
  Te  Te107  1  0.12025073  0.95422079  0.89966908  1
  Te  Te108  1  0.39775707  0.26774650  0.24856391  1
  Te  Te109  1  0.40149313  0.23231162  0.58024322  1
  Te  Te110  1  0.44718589  0.28467062  0.97422248  1
  Te  Te111  1  0.41365925  0.57115244  0.24826054  1
  Te  Te112  1  0.40993529  0.57846241  0.57737897  1
  Te  Te113  1  0.41459133  0.57227418  0.92315511  1
  Te  Te114  1  0.40981312  0.90980665  0.26492262  1
  Te  Te115  1  0.39570269  0.93565653  0.58249742  1
  Te  Te116  1  0.44041088  0.92300515  0.90424735  1
  Te  Te117  1  0.75289640  0.24254552  0.25879161  1
  Te  Te118  1  0.77862371  0.27902757  0.56866086  1
  Te  Te119  1  0.74764451  0.25116045  0.92444190  1
  Te  Te120  1  0.74730955  0.59408904  0.24910035  1
  Te  Te121  1  0.74806022  0.58368794  0.57107915  1
  Te  Te122  1  0.73590213  0.57492549  0.92504868  1
  Te  Te123  1  0.75036114  0.91094025  0.24779826  1
  Te  Te124  1  0.73834876  0.93391262  0.58181492  1
  Te  Te125  1  0.71935740  0.93180828  0.92437844  1
  Te  Te126  1  0.23993561  0.27270190  0.07710544  1
  Te  Te127  1  0.20428510  0.21480397  0.43210835  1
  Te  Te128  1  0.23299574  0.22385090  0.74267081  1
  Te  Te129  1  0.23512356  0.59052687  0.10009419  1
  Te  Te130  1  0.25093553  0.58130618  0.38184998  1
  Te  Te131  1  0.28249975  0.56943986  0.76381725  1
  Te  Te132  1  0.25498502  0.91986350  0.08610913  1
  Te  Te133  1  0.23977679  0.91525617  0.44206067  1
  Te  Te134  1  0.26329829  0.96172700  0.72865233  1
  Te  Te135  1  0.55940662  0.24991028  0.07945399  1
  Te  Te136  1  0.57285260  0.23968586  0.41651622  1
  Te  Te137  1  0.55801453  0.26652350  0.77038879  1
  Te  Te138  1  0.56198683  0.55268916  0.07569927  1
  Te  Te139  1  0.58802073  0.57160481  0.41340821  1
  Te  Te140  1  0.57848764  0.59314892  0.75135711  1
  Te  Te141  1  0.59079517  0.89189954  0.09917448  1
  Te  Te142  1  0.56635822  0.88746862  0.40836347  1
  Te  Te143  1  0.53683573  0.91623179  0.73072672  1
  Te  Te144  1  0.91466354  0.24210072  0.11545215  1
  Te  Te145  1  0.94366797  0.28959008  0.41095006  1
  Te  Te146  1  0.94658334  0.24377257  0.74249695  1
  Te  Te147  1  0.91803237  0.58325729  0.10148967  1
  Te  Te148  1  0.92465215  0.57312063  0.41259292  1
  Te  Te149  1  0.92824237  0.61967271  0.72200371  1
  Te  Te150  1  0.91099489  0.91365833  0.08308165  1
  Te  Te151  1  0.95657309  0.92639919  0.40294387  1
  Te  Te152  1  0.92139693  0.92913141  0.73739352  1
  Te  Te153  1  0.24261500  0.10167937  0.24620140  1
  Te  Te154  1  0.19872627  0.10025064  0.53227490  1
  Te  Te155  1  0.31019695  0.12906235  0.90038202  1
  Te  Te156  1  0.23218026  0.40184391  0.26432561  1
  Te  Te157  1  0.23202428  0.40496642  0.56503138  1
  Te  Te158  1  0.28037913  0.41246173  0.91021351  1
  Te  Te159  1  0.26553944  0.73179929  0.27534526  1
  Te  Te160  1  0.25740713  0.73669623  0.59583157  1
  Te  Te161  1  0.25613409  0.76228213  0.93468034  1
  Te  Te162  1  0.58199429  0.07003107  0.25047860  1
  Te  Te163  1  0.57634121  0.08576722  0.58751718  1
  Te  Te164  1  0.54154158  0.05736180  0.92656024  1
  Te  Te165  1  0.55685046  0.39523716  0.23215970  1
  Te  Te166  1  0.59626701  0.42280006  0.57976005  1
  Te  Te167  1  0.53823897  0.41478431  0.92531560  1
  Te  Te168  1  0.57388929  0.76920654  0.20899726  1
  Te  Te169  1  0.55622002  0.76591823  0.59794174  1
  Te  Te170  1  0.58951951  0.75010668  0.91887186  1
  Te  Te171  1  0.94150379  0.07591061  0.26619649  1
  Te  Te172  1  0.93402505  0.09748573  0.56502473  1
  Te  Te173  1  0.92792490  0.09328399  0.89728442  1
  Te  Te174  1  0.92929577  0.38788646  0.26639809  1
  Te  Te175  1  0.93028302  0.43073393  0.57306946  1
  Te  Te176  1  0.91528531  0.41145712  0.91856553  1
  Te  Te177  1  0.91399401  0.74870144  0.23695787  1
  Te  Te178  1  0.94251187  0.77668252  0.56222991  1
  Te  Te179  1  0.92698281  0.76138956  0.91467811  1
