# generated using pymatgen
data_In2Te3
_symmetry_space_group_name_H-M   'P 1'
_cell_length_a   18.96013640
_cell_length_b   18.93308698
_cell_length_c   18.95187269
_cell_angle_alpha   90.01104925
_cell_angle_beta   90.06228564
_cell_angle_gamma   89.83120911
_symmetry_Int_Tables_number   1
_chemical_formula_structural   In2Te3
_chemical_formula_sum   'In72 Te108'
_cell_volume   6803.19420583
_cell_formula_units_Z   36
loop_
 _symmetry_equiv_pos_site_id
 _symmetry_equiv_pos_as_xyz
  1  'x, y, z'
loop_
 _atom_site_type_symbol
 _atom_site_label
 _atom_site_symmetry_multiplicity
 _atom_site_fract_x
 _atom_site_fract_y
 _atom_site_fract_z
 _atom_site_occupancy
  In  In0  1  0.81575370  0.68473787  0.50350661  1
  In  In1  1  0.82084849  0.52909307  0.64710882  1
  In  In2  1  0.48443011  0.33040147  0.48900775  1
  In  In3  1  0.81334972  0.19238638  0.30435548  1
  In  In4  1  0.16462629  0.16342298  0.00681861  1
  In  In5  1  0.68851409  -0.01570155  0.68310545  1
  In  In6  1  0.36570433  0.78836946  0.81812392  1
  In  In7  1  0.51409234  0.51020546  0.69895346  1
  In  In8  1  -0.00881399  0.66454874  0.30459737  1
  In  In9  1  -0.00173341  0.49518997  0.48975043  1
  In  In10  1  -0.01604864  0.32815533  0.30308800  1
  In  In11  1  0.32438700  0.50323250  0.17990891  1
  In  In12  1  0.19374223  0.67349810  0.82644420  1
  In  In13  1  -0.00118367  0.82980534  0.49110665  1
  In  In14  1  0.52731166  0.50289502  0.35149046  1
  In  In15  1  0.82474955  0.02069483  0.16701695  1
  In  In16  1  0.83389176  0.14711990  0.67694020  1
  In  In17  1  0.81713877  0.01791156  0.50958010  1
  In  In18  1  0.30992710  0.83070015  0.18146771  1
  In  In19  1  0.49521199  0.81521407  -0.02303505  1
  In  In20  1  0.16788170  0.66150779  0.50626996  1
  In  In21  1  0.14499933  -0.01679144  0.18371787  1
  In  In22  1  0.81968668  0.00719793  0.84930944  1
  In  In23  1  0.82780032  0.35758793  0.15823953  1
  In  In24  1  0.18261367  -0.03006967  0.50156071  1
  In  In25  1  0.33981934  0.19399558  0.18286635  1
  In  In26  1  0.80386999  0.20311356  0.02112993  1
  In  In27  1  0.32936762  0.00298655  0.35542960  1
  In  In28  1  0.77115713  0.51141955  0.35645696  1
  In  In29  1  0.18341568  0.16277333  0.67503126  1
  In  In30  1  0.52439034  0.17094888  0.66505381  1
  In  In31  1  0.51929440  0.17703790  0.30053593  1
  In  In32  1  0.66912772  0.51926394  0.15479712  1
  In  In33  1  0.48014331  -0.02349417  0.49216138  1
  In  In34  1  0.32732997  0.00770842  0.68258240  1
  In  In35  1  0.00497528  -0.01924587  0.30557164  1
  In  In36  1  0.53005725  0.34858174  0.14046007  1
  In  In37  1  -0.02159795  -0.00986491  -0.01276367  1
  In  In38  1  0.19761143  0.32964198  0.50908057  1
  In  In39  1  0.67448081  0.81562053  0.15482867  1
  In  In40  1  0.35094626  0.65571315  0.00014171  1
  In  In41  1  0.80902604  0.62290506  0.85507542  1
  In  In42  1  0.82853033  0.37844262  0.83727396  1
  In  In43  1  0.33922611  0.81363868  0.50796453  1
  In  In44  1  0.65646845  0.33209621  0.67786317  1
  In  In45  1  0.02632831  0.19084934  0.82773542  1
  In  In46  1  0.14900319  0.50034016  0.33016919  1
  In  In47  1  0.16727483  -0.01163386  0.85675290  1
  In  In48  1  0.17619296  0.50005644  0.68449958  1
  In  In49  1  0.33052858  0.66357358  0.32324592  1
  In  In50  1  0.16623941  0.82001154  0.64909437  1
  In  In51  1  0.00015834  0.35009122  0.65208226  1
  In  In52  1  0.53235633  0.02436254  0.86517058  1
  In  In53  1  0.00239076  0.50727429  0.86127550  1
  In  In54  1  0.51044808  0.82887604  0.31466712  1
  In  In55  1  0.21293323  0.36131052  0.88316076  1
  In  In56  1  0.83468709  0.81308941  0.68642373  1
  In  In57  1  0.51487698  0.01294120  0.15263473  1
  In  In58  1  0.63351144  0.80779261  0.50182274  1
  In  In59  1  -0.01220910  0.84094444  0.81965837  1
  In  In60  1  0.35850252  0.34259320  0.67257686  1
  In  In61  1  -0.00020985  0.17515803  0.45363575  1
  In  In62  1  0.34261654  -0.00255514  0.00654719  1
  In  In63  1  0.66113810  0.80821579  0.82489029  1
  In  In64  1  0.84928972  0.81875966  0.30874649  1
  In  In65  1  0.83063314  0.82221373  0.00387886  1
  In  In66  1  0.16548539  0.18594966  0.33405671  1
  In  In67  1  0.65205810  0.16915574  0.49913190  1
  In  In68  1  0.53030417  0.48917750  -0.01180378  1
  In  In69  1  0.15000228  0.36220563  0.13721070  1
  In  In70  1  0.00107079  0.66960574  0.02529239  1
  In  In71  1  0.37271506  0.20926200  0.85338441  1
  Te  Te72  1  0.07150042  0.06937368  0.07995135  1
  Te  Te73  1  0.09753242  0.05957604  0.40515656  1
  Te  Te74  1  0.08986862  0.07300112  0.75438661  1
  Te  Te75  1  0.04411389  0.45927554  0.10109861  1
  Te  Te76  1  0.07966025  0.38882502  0.41744691  1
  Te  Te77  1  0.08118056  0.41283058  0.76410442  1
  Te  Te78  1  0.07443087  0.74738864  0.12494104  1
  Te  Te79  1  0.08418015  0.73870907  0.40628431  1
  Te  Te80  1  0.08072323  0.74388857  0.74763080  1
  Te  Te81  1  0.41544452  0.10477406  0.08283947  1
  Te  Te82  1  0.43798602  0.09413844  0.40583009  1
  Te  Te83  1  0.42570880  0.09359861  0.75922380  1
  Te  Te84  1  0.41648143  0.43175685  0.08192967  1
  Te  Te85  1  0.41433627  0.43792844  0.41872224  1
  Te  Te86  1  0.40624037  0.43764111  0.77423100  1
  Te  Te87  1  0.41255258  0.75956642  0.09331393  1
  Te  Te88  1  0.42897170  0.74065368  0.41005444  1
  Te  Te89  1  0.47144959  0.71722964  0.73886114  1
  Te  Te90  1  0.74443010  0.07081697  0.05202801  1
  Te  Te91  1  0.74329659  0.09381195  0.40343577  1
  Te  Te92  1  0.72566119  0.10065463  0.77328695  1
  Te  Te93  1  0.73574944  0.42573127  0.05542543  1
  Te  Te94  1  0.77029815  0.37859482  0.41393759  1
  Te  Te95  1  0.73276847  0.44721426  0.74143557  1
  Te  Te96  1  0.73682951  0.72331488  0.05678540  1
  Te  Te97  1  0.74029487  0.76260051  0.39863088  1
  Te  Te98  1  0.73949388  0.71051951  0.74005159  1
  Te  Te99  1  0.08495569  0.24775441  0.22359782  1
  Te  Te100  1  0.08757717  0.24451849  0.58410758  1
  Te  Te101  1  0.09241099  0.27540317  0.93285293  1
  Te  Te102  1  0.06498844  0.56125663  0.22342293  1
  Te  Te103  1  0.07875779  0.57422818  0.59209447  1
  Te  Te104  1  0.09807228  0.60478971  0.92375534  1
  Te  Te105  1  0.06349485  0.86512441  0.22923310  1
  Te  Te106  1  0.06985755  0.92234161  0.59012672  1
  Te  Te107  1  0.07872395  0.88987687  0.93092385  1
  Te  Te108  1  0.43302433  0.29043827  0.24829533  1
  Te  Te109  1  0.41378491  0.23259640  0.58289159  1
  Te  Te110  1  0.43953180  0.29087631  0.95701863  1
  Te  Te111  1  0.43341258  0.57956386  0.25163796  1
  Te  Te112  1  0.45603196  0.61073739  0.60481939  1
  Te  Te113  1  0.43104704  0.57196516  0.90508383  1
  Te  Te114  1  0.41394416  0.93267513  0.24747622  1
  Te  Te115  1  0.41160234  0.90518503  0.60645221  1
  Te  Te116  1  0.41356163  0.92243486  0.89464932  1
  Te  Te117  1  0.72655922  0.26094207  0.20979408  1
  Te  Te118  1  0.74551558  0.24093586  0.59428843  1
  Te  Te119  1  0.75607813  0.26786897  0.89854051  1
  Te  Te120  1  0.76516815  0.60026003  0.23666701  1
  Te  Te121  1  0.71482045  0.59258434  0.56315033  1
  Te  Te122  1  0.73717507  0.53311977  0.94446554  1
  Te  Te123  1  0.74985425  0.91571729  0.24613725  1
  Te  Te124  1  0.75090730  0.89236361  0.57777978  1
  Te  Te125  1  0.73465967  0.90541630  0.91887279  1
  Te  Te126  1  0.25435378  0.26254375  0.07886113  1
  Te  Te127  1  0.27056997  0.24446125  0.41519090  1
  Te  Te128  1  0.24950178  0.26834862  0.76038949  1
  Te  Te129  1  0.24460774  0.58314159  0.07967222  1
  Te  Te130  1  0.25080076  0.57189813  0.41689542  1
  Te  Te131  1  0.27859261  0.56938270  0.76518436  1
  Te  Te132  1  0.23761486  0.91771428  0.07849561  1
  Te  Te133  1  0.25005325  0.88093790  0.40026465  1
  Te  Te134  1  0.24391365  0.90258725  0.75414634  1
  Te  Te135  1  0.57253650  0.24334349  0.04338945  1
  Te  Te136  1  0.59204218  0.26694914  0.40233806  1
  Te  Te137  1  0.56505111  0.26418711  0.77353485  1
  Te  Te138  1  0.56123853  0.59315166  0.08713492  1
  Te  Te139  1  0.64372736  0.56948020  0.41591718  1
  Te  Te140  1  0.55652139  0.60646415  0.80968642  1
  Te  Te141  1  0.57866076  0.90470373  0.06975638  1
  Te  Te142  1  0.59098225  0.92024298  0.40651121  1
  Te  Te143  1  0.57813543  0.91781999  0.75944627  1
  Te  Te144  1  0.91692410  0.25584402  0.09605095  1
  Te  Te145  1  0.88473754  0.27320783  0.41905719  1
  Te  Te146  1  0.91470968  0.26161897  0.74406324  1
  Te  Te147  1  0.92380627  0.54519866  0.04857510  1
  Te  Te148  1  0.91227155  0.59816828  0.41864880  1
  Te  Te149  1  0.91621081  0.57751819  0.75550777  1
  Te  Te150  1  0.90865171  0.91268927  0.09624984  1
  Te  Te151  1  0.90697048  0.92689801  0.41559572  1
  Te  Te152  1  0.90265443  0.93901170  0.74030838  1
  Te  Te153  1  0.25166760  0.08089015  0.24243311  1
  Te  Te154  1  0.25958292  0.08222191  0.56852577  1
  Te  Te155  1  0.26169762  0.09641105  0.90893364  1
  Te  Te156  1  0.23812675  0.40295193  0.25458746  1
  Te  Te157  1  0.27327489  0.43513329  0.58526402  1
  Te  Te158  1  0.24682732  0.45641180  0.98745598  1
  Te  Te159  1  0.22803057  0.72075739  0.23256116  1
  Te  Te160  1  0.27005510  0.71820585  0.60396348  1
  Te  Te161  1  0.26447650  0.76035993  0.92836682  1
  Te  Te162  1  0.61232095  0.08917532  0.22986157  1
  Te  Te163  1  0.58833369  0.05376075  0.58359712  1
  Te  Te164  1  0.59464234  0.10754501  0.96688042  1
  Te  Te165  1  0.60616507  0.41860241  0.25037843  1
  Te  Te166  1  0.56554804  0.41292801  0.58747658  1
  Te  Te167  1  0.56268948  0.36823871  0.90521083  1
  Te  Te168  1  0.58578951  0.73135614  0.23738350  1
  Te  Te169  1  0.54825346  0.73682865  0.59753329  1
  Te  Te170  1  0.59842654  0.71953351  0.92822614  1
  Te  Te171  1  0.92457453  0.09706159  0.25203432  1
  Te  Te172  1  0.92997616  0.09782789  0.56970946  1
  Te  Te173  1  0.92470927  0.10518462  0.90441065  1
  Te  Te174  1  0.89342123  0.43948576  0.26688916  1
  Te  Te175  1  0.89286325  0.41942805  0.57008612  1
  Te  Te176  1  0.92313724  0.41496147  0.94720911  1
  Te  Te177  1  0.88328345  0.71157431  0.21132808  1
  Te  Te178  1  0.92799486  0.74007886  0.59101251  1
  Te  Te179  1  0.90674306  0.74030075  0.89940230  1
