# generated using pymatgen
data_In2Te3
_symmetry_space_group_name_H-M   'P 1'
_cell_length_a   18.97639720
_cell_length_b   18.96911043
_cell_length_c   18.95905157
_cell_angle_alpha   90.01680435
_cell_angle_beta   90.07412745
_cell_angle_gamma   89.94667242
_symmetry_Int_Tables_number   1
_chemical_formula_structural   In2Te3
_chemical_formula_sum   'In72 Te108'
_cell_volume   6824.59313252
_cell_formula_units_Z   36
loop_
 _symmetry_equiv_pos_site_id
 _symmetry_equiv_pos_as_xyz
  1  'x, y, z'
loop_
 _atom_site_type_symbol
 _atom_site_label
 _atom_site_symmetry_multiplicity
 _atom_site_fract_x
 _atom_site_fract_y
 _atom_site_fract_z
 _atom_site_occupancy
  In  In0  1  0.81815395  0.49534515  0.34281646  1
  In  In1  1  0.19689351  -0.00065206  0.15884677  1
  In  In2  1  0.01714374  0.64569538  0.66983863  1
  In  In3  1  -0.00341366  0.64935876  0.02091871  1
  In  In4  1  0.33948271  0.50912279  0.83308067  1
  In  In5  1  0.46498786  0.68743126  0.14163147  1
  In  In6  1  0.65315815  0.00955337  0.68926328  1
  In  In7  1  0.16574993  0.51287477  0.00320933  1
  In  In8  1  0.51551307  0.32873651  0.49806853  1
  In  In9  1  -0.03624040  0.35234022  0.62184846  1
  In  In10  1  0.15494839  0.81389218  0.33478395  1
  In  In11  1  0.49046078  0.70025477  0.82335009  1
  In  In12  1  0.01624812  0.00036791  0.66263600  1
  In  In13  1  0.16700436  0.32850715  0.84740674  1
  In  In14  1  -0.01483627  -0.02267118  0.34067120  1
  In  In15  1  -0.00827842  0.13402078  0.18020647  1
  In  In16  1  0.52574104  0.49011305  0.34261326  1
  In  In17  1  0.82289414  0.34519357  0.14270094  1
  In  In18  1  0.01351213  0.00340969  0.00231894  1
  In  In19  1  0.51023195  0.16687874  0.65481320  1
  In  In20  1  0.02818545  0.87554640  0.82355951  1
  In  In21  1  0.85305069  0.18358448  0.66543928  1
  In  In22  1  0.84138185  -0.01054244  0.82099386  1
  In  In23  1  0.00394889  0.34112151  0.00787941  1
  In  In24  1  0.83940657  0.82815228  -0.00456767  1
  In  In25  1  0.66128577  0.48006343  0.17137330  1
  In  In26  1  0.80494452  0.01243743  0.20086896  1
  In  In27  1  0.52125115  0.50112446  -0.02444915  1
  In  In28  1  -0.01339023  0.82830413  0.15202710  1
  In  In29  1  0.17951603  0.51066906  0.63985604  1
  In  In30  1  0.63441642  0.18811128  0.17037762  1
  In  In31  1  0.66840516  0.33493805  0.33663086  1
  In  In32  1  0.33667333  0.00776849  0.64859440  1
  In  In33  1  0.67188295  0.67680778  -0.00237175  1
  In  In34  1  0.65165932  0.86963533  0.84758414  1
  In  In35  1  0.82899867  0.82634389  0.31019787  1
  In  In36  1  0.65188857  0.82503602  0.50043364  1
  In  In37  1  0.19223439  0.84917798  0.64930174  1
  In  In38  1  0.37492403  0.02363872  0.33071578  1
  In  In39  1  0.83602495  0.63754872  0.49801603  1
  In  In40  1  0.00349317  0.49876955  0.17789747  1
  In  In41  1  0.64634971  0.66215223  0.31773508  1
  In  In42  1  0.67348644  0.65935001  0.65469728  1
  In  In43  1  0.48955651  0.49900186  0.66530029  1
  In  In44  1  0.17261595  0.04078276  0.84510085  1
  In  In45  1  0.14105131  0.66144149  0.48929128  1
  In  In46  1  0.37156930  0.17339902  0.85277456  1
  In  In47  1  -0.00764455  0.17410236  0.51469249  1
  In  In48  1  0.51726671  0.00533449  0.16113525  1
  In  In49  1  0.33084715  0.47273899  0.18942871  1
  In  In50  1  0.18152606  -0.00465941  0.50690729  1
  In  In51  1  0.63318847  0.14872554  0.85995202  1
  In  In52  1  -0.00610581  0.47046736  0.83905668  1
  In  In53  1  0.15436683  0.17801862  0.33259856  1
  In  In54  1  0.19587832  0.67814427  0.83544586  1
  In  In55  1  0.16693300  0.66233223  0.17122893  1
  In  In56  1  0.68741440  0.48305580  0.81044272  1
  In  In57  1  0.80056037  0.79430502  0.65217058  1
  In  In58  1  0.33145494  0.35475590  0.68443848  1
  In  In59  1  0.34552023  0.31140482  0.05270155  1
  In  In60  1  0.82881257  0.13890531  -0.00723135  1
  In  In61  1  0.50788839  0.83382770  0.32977556  1
  In  In62  1  -0.00118762  0.33632060  0.38065443  1
  In  In63  1  0.34157374  0.49005097  0.47767856  1
  In  In64  1  0.78570574  0.01398462  0.46834684  1
  In  In65  1  0.34062725  0.67358274  0.34018119  1
  In  In66  1  0.35617531  0.01405068  0.01110697  1
  In  In67  1  0.33691503  0.83932750  0.86164429  1
  In  In68  1  0.30980714  0.16479086  0.49092340  1
  In  In69  1  0.84804776  0.66499659  0.84780773  1
  In  In70  1  0.34301162  0.83745568  0.47800814  1
  In  In71  1  0.68423908  0.31574507  0.66251618  1
  Te  Te72  1  0.10328356  0.09417830  0.08553672  1
  Te  Te73  1  0.07737171  0.07207265  0.42170278  1
  Te  Te74  1  0.07666547  0.10059476  0.74957998  1
  Te  Te75  1  0.10141546  0.41410231  0.09728769  1
  Te  Te76  1  0.11450054  0.42233381  0.36218278  1
  Te  Te77  1  0.10879301  0.42853685  0.74954247  1
  Te  Te78  1  0.09275430  0.75324783  0.07314763  1
  Te  Te79  1  0.05200918  0.75189824  0.41529550  1
  Te  Te80  1  0.09995766  0.75986529  0.74097251  1
  Te  Te81  1  0.41972265  0.11315204  0.10948074  1
  Te  Te82  1  0.43059029  0.09878330  0.44205394  1
  Te  Te83  1  0.42811054  0.07909931  0.74735331  1
  Te  Te84  1  0.43150331  0.43471286  0.08065109  1
  Te  Te85  1  0.42239495  0.39173493  0.39527690  1
  Te  Te86  1  0.43869200  0.40920998  0.77628223  1
  Te  Te87  1  0.38918059  0.77879460  0.05761537  1
  Te  Te88  1  0.44555242  0.73634945  0.42801062  1
  Te  Te89  1  0.38744040  0.76789175  0.74387406  1
  Te  Te90  1  0.72918494  0.09132031  0.09689621  1
  Te  Te91  1  0.70112728  0.09072778  0.37632368  1
  Te  Te92  1  0.75693725  0.09889631  0.75909841  1
  Te  Te93  1  0.70678806  0.38975977  0.06316321  1
  Te  Te94  1  0.74375029  0.41309922  0.44280166  1
  Te  Te95  1  0.78125460  0.38333307  0.75357078  1
  Te  Te96  1  0.76480595  0.74613174  0.08826435  1
  Te  Te97  1  0.74253146  0.73457850  0.41907111  1
  Te  Te98  1  0.73981803  0.75263791  0.78492625  1
  Te  Te99  1  0.04714616  0.25117083  0.25682597  1
  Te  Te100  1  0.07961707  0.27697934  0.57240328  1
  Te  Te101  1  0.07961118  0.24528375  0.92851692  1
  Te  Te102  1  0.08155867  0.58873612  0.26428256  1
  Te  Te103  1  0.05862729  0.55040095  0.55865077  1
  Te  Te104  1  0.08266129  0.59066438  0.90130308  1
  Te  Te105  1  0.08309091  0.92223618  0.23779461  1
  Te  Te106  1  0.07748094  0.90130848  0.56467171  1
  Te  Te107  1  0.12033542  0.92179247  0.93196045  1
  Te  Te108  1  0.38375682  0.25366312  0.18821753  1
  Te  Te109  1  0.40911012  0.26106910  0.58938521  1
  Te  Te110  1  0.44453614  0.26510597  0.94531254  1
  Te  Te111  1  0.42716347  0.58063564  0.25585576  1
  Te  Te112  1  0.41031343  0.57869885  0.57265334  1
  Te  Te113  1  0.42230546  0.60143261  0.91880052  1
  Te  Te114  1  0.41835501  0.91433488  0.23795755  1
  Te  Te115  1  0.42175629  0.93164436  0.55795205  1
  Te  Te116  1  0.43693752  0.94124242  0.90778555  1
  Te  Te117  1  0.75373328  0.25328265  0.24116645  1
  Te  Te118  1  0.75295802  0.22668920  0.56724354  1
  Te  Te119  1  0.74237496  0.22868794  0.91674294  1
  Te  Te120  1  0.74893142  0.58221588  0.23941247  1
  Te  Te121  1  0.77128497  0.55834864  0.60700322  1
  Te  Te122  1  0.75140927  0.57458392  0.91981642  1
  Te  Te123  1  0.72143617  0.90308557  0.24836585  1
  Te  Te124  1  0.74211453  0.92046202  0.59116887  1
  Te  Te125  1  0.75615091  0.93875305  0.93504367  1
  Te  Te126  1  0.23814251  0.27333961  0.15069408  1
  Te  Te127  1  0.25547535  0.26397310  0.39705643  1
  Te  Te128  1  0.26471047  0.24647473  0.76559073  1
  Te  Te129  1  0.26698850  0.57648500  0.09621529  1
  Te  Te130  1  0.24129879  0.58142793  0.40538071  1
  Te  Te131  1  0.26799122  0.59494240  0.73045680  1
  Te  Te132  1  0.27986853  0.90532799  0.08014210  1
  Te  Te133  1  0.25103079  0.92535286  0.39268416  1
  Te  Te134  1  0.24914048  0.93717056  0.75926841  1
  Te  Te135  1  0.53868488  0.20603178  0.05640456  1
  Te  Te136  1  0.60004462  0.23424517  0.42154101  1
  Te  Te137  1  0.58275663  0.24990809  0.75765090  1
  Te  Te138  1  0.58204994  0.59022437  0.08974354  1
  Te  Te139  1  0.60178033  0.57877892  0.42953104  1
  Te  Te140  1  0.58097227  0.58776461  0.76067333  1
  Te  Te141  1  0.57734828  0.93809353  0.04631372  1
  Te  Te142  1  0.58963110  0.92373829  0.41176962  1
  Te  Te143  1  0.56713578  0.89825522  0.73092668  1
  Te  Te144  1  0.91325766  0.22761385  0.08555071  1
  Te  Te145  1  0.89417196  0.24794583  0.43387389  1
  Te  Te146  1  0.92252491  0.28552997  0.74854991  1
  Te  Te147  1  0.90596765  0.55204776  0.07827970  1
  Te  Te148  1  0.92677416  0.57536795  0.40131941  1
  Te  Te149  1  0.91551811  0.56868956  0.75205336  1
  Te  Te150  1  0.90832039  0.94546942  0.09549475  1
  Te  Te151  1  0.88517549  0.90569782  0.42815446  1
  Te  Te152  1  0.90954893  0.89103567  0.72878498  1
  Te  Te153  1  0.26018005  0.09202403  0.25959831  1
  Te  Te154  1  0.22707244  0.10359433  0.60171572  1
  Te  Te155  1  0.26342436  0.11445845  0.94221174  1
  Te  Te156  1  0.22799196  0.39082555  0.26330893  1
  Te  Te157  1  0.25117710  0.40181426  0.56448195  1
  Te  Te158  1  0.26055744  0.42024113  0.92746311  1
  Te  Te159  1  0.26177641  0.75844151  0.24343952  1
  Te  Te160  1  0.25074285  0.74599317  0.55723737  1
  Te  Te161  1  0.27254365  0.73543787  0.94876152  1
  Te  Te162  1  0.58660149  0.08511349  0.26968116  1
  Te  Te163  1  0.60826434  0.09171484  0.57619445  1
  Te  Te164  1  0.55852754  0.04476757  0.93645583  1
  Te  Te165  1  0.56323210  0.38651380  0.23744441  1
  Te  Te166  1  0.59317010  0.41959081  0.59043170  1
  Te  Te167  1  0.61396953  0.40478541  0.91372129  1
  Te  Te168  1  0.57647727  0.75606304  0.21888201  1
  Te  Te169  1  0.57519717  0.75659557  0.60696325  1
  Te  Te170  1  0.57268873  0.77022183  0.93225758  1
  Te  Te171  1  0.89765328  0.09069102  0.29132220  1
  Te  Te172  1  0.90521453  0.06245240  0.57870865  1
  Te  Te173  1  0.93595980  0.08047226  0.89717657  1
  Te  Te174  1  0.90634751  0.40355980  0.25627320  1
  Te  Te175  1  0.85944909  0.42472577  0.54873998  1
  Te  Te176  1  0.90173476  0.42417257  0.94276283  1
  Te  Te177  1  0.92032736  0.73524664  0.24153171  1
  Te  Te178  1  0.92160030  0.73165112  0.58708615  1
  Te  Te179  1  0.94726180  0.76911416  0.90789781  1
