# generated using pymatgen
data_In2Te3
_symmetry_space_group_name_H-M   'P 1'
_cell_length_a   18.77889015
_cell_length_b   18.77379215
_cell_length_c   18.77359227
_cell_angle_alpha   90.04968175
_cell_angle_beta   89.93782807
_cell_angle_gamma   90.10001604
_symmetry_Int_Tables_number   1
_chemical_formula_structural   In2Te3
_chemical_formula_sum   'In72 Te108'
_cell_volume   6618.63190444
_cell_formula_units_Z   36
loop_
 _symmetry_equiv_pos_site_id
 _symmetry_equiv_pos_as_xyz
  1  'x, y, z'
loop_
 _atom_site_type_symbol
 _atom_site_label
 _atom_site_symmetry_multiplicity
 _atom_site_fract_x
 _atom_site_fract_y
 _atom_site_fract_z
 _atom_site_occupancy
  In  In0  1  0.47580546  0.84504354  0.34471377  1
  In  In1  1  0.65839443  0.83479642  0.15561610  1
  In  In2  1  0.17099294  0.32448093  0.49446527  1
  In  In3  1  0.66300394  0.69887973  0.63250782  1
  In  In4  1  0.32700119  0.16747939  0.18503391  1
  In  In5  1  0.17557726  0.50240067  0.33955382  1
  In  In6  1  0.49497252  0.66498608  0.18228272  1
  In  In7  1  0.81651211  0.50426587  0.31466049  1
  In  In8  1  0.15281037  0.33013067  0.17960241  1
  In  In9  1  0.84770519  0.65575813  0.83515401  1
  In  In10  1  -0.04131171  0.15683105  0.19583039  1
  In  In11  1  0.81443005  0.14370583  0.03631358  1
  In  In12  1  0.34884518  -0.00001491  0.63727388  1
  In  In13  1  0.83187027  0.30554398  0.84772111  1
  In  In14  1  -0.00095645  0.50332626  0.49842478  1
  In  In15  1  0.81828500  0.84642407  0.64642943  1
  In  In16  1  0.83739784  0.31341619  0.18620899  1
  In  In17  1  0.35996337  0.49497485  0.19088468  1
  In  In18  1  0.83152117  -0.02246302  0.82294851  1
  In  In19  1  0.32884552  0.67197643  0.64671945  1
  In  In20  1  -0.01011405  0.49806508  0.17666391  1
  In  In21  1  0.66145080  0.49581455  0.84023418  1
  In  In22  1  0.14830793  0.14941105  0.36556925  1
  In  In23  1  0.66824177  0.49826945  0.47425973  1
  In  In24  1  0.66341683  0.84003297  0.50548867  1
  In  In25  1  0.17381833  -0.00906080  0.17330475  1
  In  In26  1  0.00008842  0.84424904  0.49178343  1
  In  In27  1  0.16339525  0.69437971  0.17764928  1
  In  In28  1  0.00974984  0.17141162  0.81947206  1
  In  In29  1  0.17258569  0.83900589  0.63779369  1
  In  In30  1  0.34559517  0.48357999  0.82471345  1
  In  In31  1  0.84160694  0.14560404  0.63055410  1
  In  In32  1  0.32532366  0.50715907  0.49838252  1
  In  In33  1  0.68149243  0.31257639  0.34145417  1
  In  In34  1  0.15884074  0.00451395  0.81914276  1
  In  In35  1  0.47964932  0.68328812  0.80924990  1
  In  In36  1  0.85709845  0.47996677  0.65562634  1
  In  In37  1  -0.00228610  -0.00659434  -0.00252662  1
  In  In38  1  0.66729668  0.30666833  0.65782707  1
  In  In39  1  0.15696101  0.17287061  0.00142777  1
  In  In40  1  0.34452810  -0.01156284  0.01138468  1
  In  In41  1  0.50071986  0.32246265  0.83435244  1
  In  In42  1  0.15053302  0.50498255  0.64684785  1
  In  In43  1  0.16491463  0.49985579  -0.00880642  1
  In  In44  1  0.51235927  0.51285527  0.33862391  1
  In  In45  1  0.17343402  0.86120896  0.36279798  1
  In  In46  1  0.16875239  0.33952518  0.82112782  1
  In  In47  1  0.34045382  0.84970838  0.18063478  1
  In  In48  1  0.51841561  0.86543916  0.01086295  1
  In  In49  1  0.50550165  0.32328781  0.17385486  1
  In  In50  1  0.48072837  0.50534543  0.67659602  1
  In  In51  1  0.65934718  -0.00206328  0.64953850  1
  In  In52  1  0.48851262  0.32549571  0.50991865  1
  In  In53  1  -0.00316902  0.83142559  0.17193761  1
  In  In54  1  0.30889728  0.67215715  0.00570178  1
  In  In55  1  0.81472768  0.85063549  0.01171184  1
  In  In56  1  0.16816889  0.67808326  0.84370951  1
  In  In57  1  0.66174933  0.69775860  0.02875223  1
  In  In58  1  0.50220054  0.52589532  0.03693958  1
  In  In59  1  0.84455964  0.82921761  0.33727664  1
  In  In60  1  0.68192989  0.02004377  0.33860100  1
  In  In61  1  0.52243526  0.13937883  -0.01827562  1
  In  In62  1  0.68824200  0.32106388  0.00916778  1
  In  In63  1  0.01568668  0.49969599  0.83297038  1
  In  In64  1  0.66587594  0.86331719  0.83096646  1
  In  In65  1  0.83692663  0.67630585  0.49787769  1
  In  In66  1  0.49619244  0.15739477  0.64202067  1
  In  In67  1  0.48329714  0.13873142  0.35833217  1
  In  In68  1  -0.00805775  0.83784103  0.81635491  1
  In  In69  1  0.34827555  0.16071677  0.81561892  1
  In  In70  1  0.84360048  0.50552680  0.02357995  1
  In  In71  1  0.16508060  0.15448066  0.62271144  1
  Te  Te72  1  0.07652022  0.08714193  0.09971765  1
  Te  Te73  1  0.07232948  0.05127198  0.44742153  1
  Te  Te74  1  0.07141964  0.07526391  0.71887191  1
  Te  Te75  1  0.07325210  0.41318201  0.07890787  1
  Te  Te76  1  0.07763354  0.40738774  0.40620619  1
  Te  Te77  1  0.06777473  0.40320799  0.72659434  1
  Te  Te78  1  0.08871589  0.76560477  0.07394614  1
  Te  Te79  1  0.07940060  0.75482226  0.40483409  1
  Te  Te80  1  0.08966467  0.75171976  0.73588017  1
  Te  Te81  1  0.42110547  0.09067728  0.09275226  1
  Te  Te82  1  0.39776652  0.05052634  0.44605350  1
  Te  Te83  1  0.43733373  0.06050598  0.74779582  1
  Te  Te84  1  0.41620893  0.40595013  0.07992277  1
  Te  Te85  1  0.41596345  0.41833505  0.41332642  1
  Te  Te86  1  0.40753793  0.38154136  0.72893872  1
  Te  Te87  1  0.42326555  0.74906834  0.07628743  1
  Te  Te88  1  0.38586414  0.78251452  0.44816061  1
  Te  Te89  1  0.39357386  0.77378905  0.73312746  1
  Te  Te90  1  0.72244887  0.05295591  0.10456234  1
  Te  Te91  1  0.77474794  0.12946918  0.40010541  1
  Te  Te92  1  0.75438645  0.07871991  0.73825402  1
  Te  Te93  1  0.75251362  0.41660916  0.10782334  1
  Te  Te94  1  0.77388158  0.40117237  0.42501807  1
  Te  Te95  1  0.75101166  0.40782938  0.75367107  1
  Te  Te96  1  0.77845247  0.74288955  0.11522544  1
  Te  Te97  1  0.73571155  0.74480057  0.40970730  1
  Te  Te98  1  0.75564216  0.75255391  0.75718226  1
  Te  Te99  1  0.06864796  0.23807257  0.26737174  1
  Te  Te100  1  0.06501768  0.25187718  0.57208710  1
  Te  Te101  1  0.07263123  0.26916583  0.91902785  1
  Te  Te102  1  0.08337286  0.59102191  0.25634491  1
  Te  Te103  1  0.09035442  0.60545748  0.55827218  1
  Te  Te104  1  0.06881308  0.60326525  0.93316306  1
  Te  Te105  1  0.07219296  0.92758511  0.26545148  1
  Te  Te106  1  0.09837590  0.94108852  0.55902510  1
  Te  Te107  1  0.09032689  0.90626038  0.91404303  1
  Te  Te108  1  0.41608519  0.25277352  0.27494244  1
  Te  Te109  1  0.39085180  0.23727599  0.57619896  1
  Te  Te110  1  0.41409638  0.23928000  0.92838432  1
  Te  Te111  1  0.39937288  0.60686578  0.28618319  1
  Te  Te112  1  0.43417247  0.59549315  0.56455315  1
  Te  Te113  1  0.42115307  0.58110112  0.91580841  1
  Te  Te114  1  0.43900195  0.94184501  0.23792204  1
  Te  Te115  1  0.41464332  0.89793716  0.54640499  1
  Te  Te116  1  0.42601314  0.91890836  0.91029578  1
  Te  Te117  1  0.74426887  0.21382118  0.24736569  1
  Te  Te118  1  0.75542526  0.24409846  0.55901204  1
  Te  Te119  1  0.73621934  0.21056030  0.91613177  1
  Te  Te120  1  0.72503269  0.58930556  0.24077427  1
  Te  Te121  1  0.75539224  0.57541114  0.58843708  1
  Te  Te122  1  0.74321213  0.58987898  0.92909339  1
  Te  Te123  1  0.75099411  0.91520535  0.25139865  1
  Te  Te124  1  0.76654966  0.94788108  0.54764443  1
  Te  Te125  1  0.72479134  0.95927721  0.93986814  1
  Te  Te126  1  0.25110673  0.25697427  0.08666740  1
  Te  Te127  1  0.25816058  0.23926082  0.40998823  1
  Te  Te128  1  0.23835931  0.23109707  0.73882974  1
  Te  Te129  1  0.25066422  0.56856165  0.10300976  1
  Te  Te130  1  0.23019480  0.60233590  0.43550495  1
  Te  Te131  1  0.24901913  0.57657908  0.75178079  1
  Te  Te132  1  0.23970634  0.89611772  0.07445173  1
  Te  Te133  1  0.28271014  0.94503963  0.42451221  1
  Te  Te134  1  0.25585046  0.92375008  0.73503271  1
  Te  Te135  1  0.59245452  0.23260499  0.08822067  1
  Te  Te136  1  0.58241912  0.23622829  0.43034821  1
  Te  Te137  1  0.58678172  0.22496794  0.75639114  1
  Te  Te138  1  0.61731976  0.57834645  0.12544808  1
  Te  Te139  1  0.58526958  0.60922529  0.42515057  1
  Te  Te140  1  0.59283810  0.59362722  0.74533347  1
  Te  Te141  1  0.59355921  0.96131830  0.09964070  1
  Te  Te142  1  0.58212619  0.93227064  0.41560300  1
  Te  Te143  1  0.57176396  0.90172232  0.72426729  1
  Te  Te144  1  0.91960678  0.24583166  0.07458942  1
  Te  Te145  1  0.91578353  0.18767983  0.40517673  1
  Te  Te146  1  0.90953770  0.24620169  0.73296325  1
  Te  Te147  1  0.92556135  0.60383656  0.09510967  1
  Te  Te148  1  0.91367342  0.58775865  0.40219777  1
  Te  Te149  1  0.93750689  0.58651504  0.73277440  1
  Te  Te150  1  0.90477877  0.93637674  0.10229422  1
  Te  Te151  1  0.90914926  0.93853387  0.41710517  1
  Te  Te152  1  0.92846638  0.93174745  0.71412612  1
  Te  Te153  1  0.25180146  0.07143258  0.27525051  1
  Te  Te154  1  0.26083142  0.07260955  0.53586820  1
  Te  Te155  1  0.24910756  0.08314816  0.91807788  1
  Te  Te156  1  0.26053380  0.40238439  0.26178115  1
  Te  Te157  1  0.25582834  0.40982318  0.59260264  1
  Te  Te158  1  0.26276415  0.40263201  0.92458598  1
  Te  Te159  1  0.25919060  0.76214466  0.27365730  1
  Te  Te160  1  0.25301272  0.75301730  0.54365058  1
  Te  Te161  1  0.27057847  0.76769848  0.90122659  1
  Te  Te162  1  0.58244614  0.09526442  0.25687406  1
  Te  Te163  1  0.58824611  0.08418184  0.55237349  1
  Te  Te164  1  0.60148106  0.04879688  0.89745132  1
  Te  Te165  1  0.59550959  0.41090400  0.26053738  1
  Te  Te166  1  0.58689682  0.42344906  0.59047349  1
  Te  Te167  1  0.57785901  0.41114192  0.93529537  1
  Te  Te168  1  0.57909471  0.76087314  0.26416593  1
  Te  Te169  1  0.54962916  0.78416560  0.58847853  1
  Te  Te170  1  0.58228359  0.75159797  0.90936020  1
  Te  Te171  1  0.89955728  0.07097011  0.30512985  1
  Te  Te172  1  0.95556469  0.10371993  0.54064533  1
  Te  Te173  1  0.91507255  0.08409141  0.90651144  1
  Te  Te174  1  0.92526820  0.39980281  0.27418231  1
  Te  Te175  1  0.92560792  0.38979499  0.56198884  1
  Te  Te176  1  0.90913813  0.42136948  0.91295290  1
  Te  Te177  1  0.92824884  0.73372261  0.26077936  1
  Te  Te178  1  0.92686488  0.75251214  0.59302251  1
  Te  Te179  1  0.90974154  0.76465390  0.92362231  1
