# generated using pymatgen
data_In2Te3
_symmetry_space_group_name_H-M   'P 1'
_cell_length_a   18.90800069
_cell_length_b   18.87449194
_cell_length_c   18.89886683
_cell_angle_alpha   89.96466642
_cell_angle_beta   89.84128393
_cell_angle_gamma   89.99650285
_symmetry_Int_Tables_number   1
_chemical_formula_structural   In2Te3
_chemical_formula_sum   'In72 Te108'
_cell_volume   6744.57975716
_cell_formula_units_Z   36
loop_
 _symmetry_equiv_pos_site_id
 _symmetry_equiv_pos_as_xyz
  1  'x, y, z'
loop_
 _atom_site_type_symbol
 _atom_site_label
 _atom_site_symmetry_multiplicity
 _atom_site_fract_x
 _atom_site_fract_y
 _atom_site_fract_z
 _atom_site_occupancy
  In  In0  1  0.51269479  0.79839513  0.01513012  1
  In  In1  1  0.16074502  0.82843131  0.67375779  1
  In  In2  1  -0.00619531  0.83956600  0.48444621  1
  In  In3  1  0.70152598  0.52308400  0.19782784  1
  In  In4  1  0.32483360  0.15698779  0.50721442  1
  In  In5  1  0.17902422  0.51382778  0.00923183  1
  In  In6  1  0.32972927  -0.02735185  0.34065473  1
  In  In7  1  0.66667980  0.31073095  0.67659848  1
  In  In8  1  0.31670224  0.73296934  0.36031024  1
  In  In9  1  0.03717567  0.46188516  0.80950443  1
  In  In10  1  0.00139232  0.13808104  0.82126799  1
  In  In11  1  0.16609791  0.33844405  0.53209778  1
  In  In12  1  0.31122791  0.50771683  0.16707611  1
  In  In13  1  0.85448316  0.49564352  0.65514625  1
  In  In14  1  0.65302501  0.01051669  0.66062778  1
  In  In15  1  0.50269486  0.01645190  0.83033500  1
  In  In16  1  0.17497593  -0.01012709  0.49850624  1
  In  In17  1  -0.03578107  0.67590340  0.34357310  1
  In  In18  1  0.53723887  0.15250665  0.33425779  1
  In  In19  1  0.15641639  0.50896557  0.32691482  1
  In  In20  1  0.33934515  -0.01457311  0.00112680  1
  In  In21  1  0.00721500  0.68086007  0.02450418  1
  In  In22  1  0.15299894  0.17555968  0.35546440  1
  In  In23  1  0.65539743  0.50140118  0.85736156  1
  In  In24  1  -0.00588482  0.51450003  0.50039716  1
  In  In25  1  0.65828918  0.48966930  0.48153020  1
  In  In26  1  0.33950684  0.65750277  0.02426512  1
  In  In27  1  0.82382186  0.34419624  0.49645407  1
  In  In28  1  0.85715929  0.69142645  0.85684954  1
  In  In29  1  0.32937931  0.33962049  0.66189757  1
  In  In30  1  0.50174092  0.32038584  0.48739432  1
  In  In31  1  0.51793898  0.32701247  0.14056279  1
  In  In32  1  0.50054666  0.67554568  0.83584142  1
  In  In33  1  0.67208082  0.86369862  0.18342350  1
  In  In34  1  0.47531053  -0.00137268  0.17952967  1
  In  In35  1  0.46808398  0.52012765  0.64260363  1
  In  In36  1  0.66769612  0.66953153  0.02173227  1
  In  In37  1  0.34131767  0.16887000  0.80058804  1
  In  In38  1  0.17364299  0.66509657  0.50555753  1
  In  In39  1  0.67208891  0.33850254  0.01234065  1
  In  In40  1  0.84432991  0.17571295  0.64574448  1
  In  In41  1  0.51535629  0.50086209  0.34132728  1
  In  In42  1  0.66672316  0.69429005  0.66796933  1
  In  In43  1  0.50609475  -0.01651776  0.50152925  1
  In  In44  1  0.82402889  -0.02122246  0.85766411  1
  In  In45  1  0.31765706  0.83808568  0.82838199  1
  In  In46  1  0.34950949  0.36051413  0.32322276  1
  In  In47  1  0.79409230  0.30953715  0.18086583  1
  In  In48  1  0.33387427  0.16343755  0.16281207  1
  In  In49  1  0.02219031  0.66983887  0.67751489  1
  In  In50  1  0.00152025  0.15292931  0.49638735  1
  In  In51  1  0.79179321  0.13572520  0.03237850  1
  In  In52  1  0.86026651  0.84645203  0.66885439  1
  In  In53  1  0.51180158  0.47022662  -0.01827020  1
  In  In54  1  -0.00247868  0.33071634  0.00776763  1
  In  In55  1  0.66630449  0.16171464  0.83370065  1
  In  In56  1  0.33660371  0.31509913  -0.02956241  1
  In  In57  1  0.18800369  0.66561614  0.83772782  1
  In  In58  1  0.50544036  0.67156964  0.17723283  1
  In  In59  1  0.14477605  0.88280884  -0.00106046  1
  In  In60  1  0.48453230  0.84952558  0.66869523  1
  In  In61  1  0.81508768  0.66944175  0.48009460  1
  In  In62  1  0.16696118  0.14936630  0.00072053  1
  In  In63  1  0.13976724  -0.00190383  0.18786038  1
  In  In64  1  -0.03906961  0.12195657  0.17438879  1
  In  In65  1  -0.04187237  0.86970456  0.17439080  1
  In  In66  1  0.00064075  0.31861824  0.31382679  1
  In  In67  1  0.31654235  0.49070365  0.81096257  1
  In  In68  1  -0.01456697  0.50537299  0.15540379  1
  In  In69  1  0.85407723  0.34047809  0.83356267  1
  In  In70  1  0.66629818  0.84551723  0.46739591  1
  In  In71  1  0.82333445  0.01152203  0.48159105  1
  Te  Te72  1  0.06368163  0.06472128  0.07510723  1
  Te  Te73  1  0.07258706  0.05601533  0.40349089  1
  Te  Te74  1  0.11046536  0.05542927  0.76727679  1
  Te  Te75  1  0.09177303  0.41645833  0.09056919  1
  Te  Te76  1  0.07738550  0.40765823  0.41545666  1
  Te  Te77  1  0.13266857  0.38590083  0.72979850  1
  Te  Te78  1  0.07614021  0.79288907  0.10027023  1
  Te  Te79  1  0.08319058  0.74311739  0.40879712  1
  Te  Te80  1  0.07930111  0.75950497  0.78390347  1
  Te  Te81  1  0.42448493  0.09404711  0.06525290  1
  Te  Te82  1  0.41300035  0.09082527  0.40168796  1
  Te  Te83  1  0.40755654  0.05686881  0.72519152  1
  Te  Te84  1  0.40016476  0.41729017  0.07944275  1
  Te  Te85  1  0.41486469  0.43469352  0.43731515  1
  Te  Te86  1  0.43262700  0.41700136  0.74826960  1
  Te  Te87  1  0.39859833  0.76493769  0.11270230  1
  Te  Te88  1  0.43611068  0.73619442  0.44146555  1
  Te  Te89  1  0.40255809  0.74235007  0.74317212  1
  Te  Te90  1  0.75887543  0.04565533  0.14456571  1
  Te  Te91  1  0.75418886  0.10130496  0.38302141  1
  Te  Te92  1  0.76688839  0.08408714  0.74119503  1
  Te  Te93  1  0.76130517  0.43192409  0.08796162  1
  Te  Te94  1  0.75879365  0.42765481  0.39336245  1
  Te  Te95  1  0.75393978  0.42255079  0.75038598  1
  Te  Te96  1  0.75129131  0.77148102  0.09130943  1
  Te  Te97  1  0.74171927  0.74957819  0.37903351  1
  Te  Te98  1  0.76549867  0.76502664  0.75859198  1
  Te  Te99  1  0.07382668  0.21610907  0.23092189  1
  Te  Te100  1  0.09357603  0.22279009  0.59055426  1
  Te  Te101  1  0.07498334  0.23784539  0.91706195  1
  Te  Te102  1  0.06054710  0.59672541  0.25079438  1
  Te  Te103  1  0.09800127  0.56559767  0.59684291  1
  Te  Te104  1  0.08307355  0.58488392  0.91532853  1
  Te  Te105  1  0.06363994  0.90597939  0.27267784  1
  Te  Te106  1  0.07119660  0.91744811  0.58629294  1
  Te  Te107  1  0.09015060  0.96598917  0.89131861  1
  Te  Te108  1  0.42672472  0.25389880  0.24608735  1
  Te  Te109  1  0.42122746  0.24086180  0.58880556  1
  Te  Te110  1  0.43202227  0.22868789  0.90194035  1
  Te  Te111  1  0.41321613  0.57636639  0.25442863  1
  Te  Te112  1  0.43564395  0.62802653  0.55091849  1
  Te  Te113  1  0.41375272  0.57612380  0.91802928  1
  Te  Te114  1  0.43408028  0.89196407  0.27400859  1
  Te  Te115  1  0.39681236  0.94265339  0.59272271  1
  Te  Te116  1  0.42993834  0.89349200  0.91812936  1
  Te  Te117  1  0.74196334  0.23082133  0.29323182  1
  Te  Te118  1  0.73491379  0.23806084  0.56112421  1
  Te  Te119  1  0.76686474  0.25244884  0.92034345  1
  Te  Te120  1  0.76476413  0.64987361  0.23723421  1
  Te  Te121  1  0.74775037  0.58513818  0.59276400  1
  Te  Te122  1  0.75646751  0.59144884  0.92122684  1
  Te  Te123  1  0.78732933  0.93606631  0.25348734  1
  Te  Te124  1  0.74963980  0.91125217  0.58567281  1
  Te  Te125  1  0.78091919  0.89744524  0.97631838  1
  Te  Te126  1  0.24651848  0.25422895  0.07896095  1
  Te  Te127  1  0.25880082  0.26847438  0.41667087  1
  Te  Te128  1  0.23534993  0.26883833  0.75598534  1
  Te  Te129  1  0.21807908  0.62256901  0.11815390  1
  Te  Te130  1  0.25630936  0.58965652  0.40215525  1
  Te  Te131  1  0.25256615  0.59250982  0.72765587  1
  Te  Te132  1  0.24787395  0.92523928  0.10540380  1
  Te  Te133  1  0.24701552  0.88139516  0.42280539  1
  Te  Te134  1  0.24116437  0.93257498  0.74535064  1
  Te  Te135  1  0.60579199  0.22488337  0.08064582  1
  Te  Te136  1  0.60185416  0.27607506  0.38578890  1
  Te  Te137  1  0.57348161  0.21184199  0.73124813  1
  Te  Te138  1  0.57486959  0.56488227  0.08374963  1
  Te  Te139  1  0.59854526  0.60165751  0.40840015  1
  Te  Te140  1  0.58658203  0.58399058  0.74704622  1
  Te  Te141  1  0.57027404  0.91948114  0.08297581  1
  Te  Te142  1  0.58882400  0.94105176  0.38738452  1
  Te  Te143  1  0.59145042  0.91126620  0.75716105  1
  Te  Te144  1  0.90296655  0.24072020  0.08801549  1
  Te  Te145  1  0.91493321  0.24673206  0.41601945  1
  Te  Te146  1  0.93468852  0.25332177  0.74042832  1
  Te  Te147  1  0.90040269  0.59267785  0.07357262  1
  Te  Te148  1  0.88685611  0.55659838  0.40189900  1
  Te  Te149  1  0.92302013  0.58385783  0.75790802  1
  Te  Te150  1  0.91345756  0.92437160  0.04146908  1
  Te  Te151  1  0.87750222  0.89156167  0.41034305  1
  Te  Te152  1  0.93062969  0.91811116  0.77541989  1
  Te  Te153  1  0.24858667  0.08792819  0.26395400  1
  Te  Te154  1  0.21468417  0.10207316  0.58961091  1
  Te  Te155  1  0.26921897  0.08408686  0.91067659  1
  Te  Te156  1  0.22814791  0.40290141  0.24275490  1
  Te  Te157  1  0.26839827  0.43618687  0.56872161  1
  Te  Te158  1  0.23416637  0.41124026  0.91026921  1
  Te  Te159  1  0.25817753  0.73029479  0.22785719  1
  Te  Te160  1  0.25475832  0.75055449  0.59162318  1
  Te  Te161  1  0.24832612  0.75769813  0.94436954  1
  Te  Te162  1  0.59183921  0.08603016  0.21443909  1
  Te  Te163  1  0.58770875  0.09214121  0.55857090  1
  Te  Te164  1  0.61636924  0.05082088  0.91690367  1
  Te  Te165  1  0.59192307  0.42158691  0.23465991  1
  Te  Te166  1  0.58394422  0.41207926  0.58882003  1
  Te  Te167  1  0.58315390  0.37203711  0.89187326  1
  Te  Te168  1  0.58186873  0.76887330  0.25603141  1
  Te  Te169  1  0.58071096  0.77341303  0.57432135  1
  Te  Te170  1  0.60966353  0.75262868  0.90577855  1
  Te  Te171  1  0.87527309  0.06682870  0.28314489  1
  Te  Te172  1  0.92344980  0.05951545  0.58811163  1
  Te  Te173  1  0.89354507  0.09783423  0.92247457  1
  Te  Te174  1  0.90449753  0.40549101  0.23779125  1
  Te  Te175  1  0.93963221  0.39533332  0.58332895  1
  Te  Te176  1  0.92908240  0.43532421  0.92208381  1
  Te  Te177  1  0.89643602  0.73625856  0.22440888  1
  Te  Te178  1  0.92286745  0.72898075  0.57803511  1
  Te  Te179  1  0.93576287  0.78557051  0.94158685  1
