# generated using pymatgen
data_In2Te3
_symmetry_space_group_name_H-M   'P 1'
_cell_length_a   18.78789285
_cell_length_b   18.80124616
_cell_length_c   18.80002874
_cell_angle_alpha   90.07117437
_cell_angle_beta   90.11576451
_cell_angle_gamma   89.92905906
_symmetry_Int_Tables_number   1
_chemical_formula_structural   In2Te3
_chemical_formula_sum   'In72 Te108'
_cell_volume   6640.81941358
_cell_formula_units_Z   36
loop_
 _symmetry_equiv_pos_site_id
 _symmetry_equiv_pos_as_xyz
  1  'x, y, z'
loop_
 _atom_site_type_symbol
 _atom_site_label
 _atom_site_symmetry_multiplicity
 _atom_site_fract_x
 _atom_site_fract_y
 _atom_site_fract_z
 _atom_site_occupancy
  In  In0  1  -0.01481950  0.82001991  0.48126870  1
  In  In1  1  0.81785784  0.85764545  -0.00371376  1
  In  In2  1  0.15157759  0.32673291  0.16319295  1
  In  In3  1  0.15050239  0.66850197  0.79896666  1
  In  In4  1  0.14609128  0.17819661  0.31522723  1
  In  In5  1  0.14943875  0.15254371  -0.01960078  1
  In  In6  1  0.51966366  0.33578503  0.17333348  1
  In  In7  1  0.49784991  0.65872650  0.85920097  1
  In  In8  1  0.66826933  0.48009843  0.83852729  1
  In  In9  1  0.14674286  0.84633867  -0.01160835  1
  In  In10  1  -0.01093653  0.17218154  0.83049126  1
  In  In11  1  0.85080296  0.02447491  0.52835908  1
  In  In12  1  0.50013518  0.48151364  0.66730174  1
  In  In13  1  0.81822692  0.49525041  0.05012600  1
  In  In14  1  0.84060433  0.33089458  0.82863726  1
  In  In15  1  0.66613276  -0.00205055  0.35085360  1
  In  In16  1  0.50469259  0.17374864  0.35493271  1
  In  In17  1  0.82971731  -0.00430955  0.15958308  1
  In  In18  1  0.18097552  0.47396570  0.00612131  1
  In  In19  1  -0.01571073  0.65887778  -0.00476550  1
  In  In20  1  0.35017504  0.46533323  0.49703179  1
  In  In21  1  0.68412620  0.82646420  0.82755843  1
  In  In22  1  0.67322395  0.32252257  0.67627445  1
  In  In23  1  0.53028336  0.65508226  0.49578050  1
  In  In24  1  0.51243222  0.50780740  0.00673000  1
  In  In25  1  0.15485241  0.50936973  0.34813144  1
  In  In26  1  -0.00307726  -0.00907599  0.33843165  1
  In  In27  1  -0.00709851  0.33007981  0.67929908  1
  In  In28  1  0.82082336  0.31418557  0.50622218  1
  In  In29  1  0.48667067  0.83899500  0.03192547  1
  In  In30  1  0.00305189  0.34341530  0.01119677  1
  In  In31  1  0.33661138  0.80816736  0.16113354  1
  In  In32  1  0.33760239  0.01958969  -0.00245563  1
  In  In33  1  0.84901622  0.00435944  0.79197378  1
  In  In34  1  -0.00159533  0.50419672  0.50293169  1
  In  In35  1  0.16003410  0.19271625  0.66391366  1
  In  In36  1  0.34062364  0.66370485  0.33005692  1
  In  In37  1  0.15113091  0.64492143  0.17844891  1
  In  In38  1  0.00107619  0.49305478  0.81979184  1
  In  In39  1  0.83272197  0.15291576  0.34280632  1
  In  In40  1  0.14501782  0.84204607  0.66718549  1
  In  In41  1  0.13378426  0.66901064  0.50006787  1
  In  In42  1  0.66007568  0.82732457  0.17056415  1
  In  In43  1  0.51226795  0.03362656  0.82606907  1
  In  In44  1  0.52459680  0.83278127  0.33030847  1
  In  In45  1  0.34962509  0.16039141  0.49935240  1
  In  In46  1  0.15413342  0.01178962  0.16975489  1
  In  In47  1  0.49330308  -0.02013831  0.15577125  1
  In  In48  1  0.50926714  0.17249147  0.66409497  1
  In  In49  1  0.34738559  0.50555873  0.17055066  1
  In  In50  1  0.36603393  0.29513438  -0.03339474  1
  In  In51  1  0.31048321  0.66025453  0.66783735  1
  In  In52  1  -0.03702788  0.80761860  0.19895727  1
  In  In53  1  0.50619777  0.82658703  0.63959162  1
  In  In54  1  0.83221830  0.18998293  -0.00961195  1
  In  In55  1  0.37096205  0.68136590  -0.00876148  1
  In  In56  1  0.67360415  0.33091510  0.33105315  1
  In  In57  1  0.15620872  0.34902611  0.50421700  1
  In  In58  1  0.31847230  0.83496737  0.82276339  1
  In  In59  1  0.83783520  0.65825841  0.81316827  1
  In  In60  1  0.31955108  0.14992310  0.16639939  1
  In  In61  1  0.66632657  0.17764913  0.16541577  1
  In  In62  1  0.67382884  0.00894825  0.66036935  1
  In  In63  1  0.35008153  0.34868159  0.35355869  1
  In  In64  1  0.34046799  0.86997430  0.49809927  1
  In  In65  1  0.16192919  0.00202565  0.82317369  1
  In  In66  1  0.66842678  0.65577643  0.02966597  1
  In  In67  1  0.34043112  0.32565346  0.67347020  1
  In  In68  1  0.16452124  0.00011255  0.49521625  1
  In  In69  1  0.82677020  0.67305623  0.47094804  1
  In  In70  1  0.67513328  0.67969979  0.66255285  1
  In  In71  1  0.67947192  0.50484965  0.48369078  1
  Te  Te72  1  0.06485642  0.08673679  0.08052697  1
  Te  Te73  1  0.07039105  0.09610447  0.42031798  1
  Te  Te74  1  0.06699815  0.07976923  0.72774270  1
  Te  Te75  1  0.06977796  0.44441136  0.10644988  1
  Te  Te76  1  0.05862764  0.40294396  0.40013913  1
  Te  Te77  1  0.09723238  0.40309195  0.75391819  1
  Te  Te78  1  0.07834993  0.75029538  0.08680957  1
  Te  Te79  1  0.07339897  0.74260551  0.38864520  1
  Te  Te80  1  0.04848052  0.76769151  0.75511643  1
  Te  Te81  1  0.43610857  0.10199198  0.07990208  1
  Te  Te82  1  0.41459445  0.06885861  0.40374980  1
  Te  Te83  1  0.40875058  0.08805075  0.73682641  1
  Te  Te84  1  0.40761850  0.40053224  0.07750479  1
  Te  Te85  1  0.46076103  0.43551723  0.40261093  1
  Te  Te86  1  0.42726086  0.40387688  0.76734663  1
  Te  Te87  1  0.45060163  0.71689146  0.11640298  1
  Te  Te88  1  0.42210398  0.75012907  0.42811056  1
  Te  Te89  1  0.42111270  0.74497092  0.75111311  1
  Te  Te90  1  0.74578726  0.08604249  0.07215288  1
  Te  Te91  1  0.73722712  0.09377569  0.44433442  1
  Te  Te92  1  0.73468280  0.09406601  0.76509681  1
  Te  Te93  1  0.72692531  0.39657140  0.11131640  1
  Te  Te94  1  0.77631432  0.42019138  0.40328604  1
  Te  Te95  1  0.76737247  0.42938104  0.73623988  1
  Te  Te96  1  0.76821043  0.75049559  0.09426154  1
  Te  Te97  1  0.74859492  0.76396570  0.38302738  1
  Te  Te98  1  0.78108839  0.77198405  0.72461272  1
  Te  Te99  1  0.04600837  0.25903577  0.24163542  1
  Te  Te100  1  0.05902754  0.24940719  0.56539353  1
  Te  Te101  1  0.08200776  0.26779546  0.90437381  1
  Te  Te102  1  0.05184902  0.58804463  0.27323092  1
  Te  Te103  1  0.08172286  0.57844970  0.60294217  1
  Te  Te104  1  0.09281369  0.57860975  0.92276401  1
  Te  Te105  1  0.07816610  0.90269858  0.24483363  1
  Te  Te106  1  0.05821087  0.92220502  0.57218543  1
  Te  Te107  1  0.05675809  0.92743429  0.90058381  1
  Te  Te108  1  0.40738971  0.25006691  0.24580823  1
  Te  Te109  1  0.43047576  0.26959061  0.56451982  1
  Te  Te110  1  0.45666831  0.20853953  0.88006361  1
  Te  Te111  1  0.43271562  0.55670200  0.28090105  1
  Te  Te112  1  0.42207031  0.58838009  0.58663419  1
  Te  Te113  1  0.39909793  0.55517346  0.90953512  1
  Te  Te114  1  0.40818659  0.90439241  0.25631059  1
  Te  Te115  1  0.42411407  0.94154174  0.59564136  1
  Te  Te116  1  0.41478849  0.91213787  0.91588789  1
  Te  Te117  1  0.77293357  0.25246991  0.24343829  1
  Te  Te118  1  0.74582523  0.22201362  0.59564460  1
  Te  Te119  1  0.73532736  0.27030808  0.91131653  1
  Te  Te120  1  0.80700102  0.58697547  0.24248673  1
  Te  Te121  1  0.76135687  0.58308462  0.58504048  1
  Te  Te122  1  0.74828646  0.58622105  0.91633090  1
  Te  Te123  1  0.75256016  0.91111208  0.25956074  1
  Te  Te124  1  0.77151796  0.91807670  0.59584237  1
  Te  Te125  1  0.74381144  0.94634847  0.89901776  1
  Te  Te126  1  0.24468441  0.24475895  0.07321300  1
  Te  Te127  1  0.24449659  0.25477928  0.41702491  1
  Te  Te128  1  0.25430967  0.24529431  0.76369828  1
  Te  Te129  1  0.26045018  0.59395026  0.08072280  1
  Te  Te130  1  0.25841986  0.58169240  0.43488082  1
  Te  Te131  1  0.25439061  0.56931862  0.76821414  1
  Te  Te132  1  0.25501344  0.91709822  0.08056346  1
  Te  Te133  1  0.23153385  0.90313493  0.40608044  1
  Te  Te134  1  0.25586520  0.93131776  0.72440990  1
  Te  Te135  1  0.58968788  0.25896944  0.06638442  1
  Te  Te136  1  0.60094774  0.25163236  0.43213991  1
  Te  Te137  1  0.56656453  0.26780851  0.76684821  1
  Te  Te138  1  0.59906317  0.55856220  0.11766268  1
  Te  Te139  1  0.62363890  0.60715195  0.38977783  1
  Te  Te140  1  0.58754078  0.59035842  0.75058746  1
  Te  Te141  1  0.60507277  0.92847743  0.06627417  1
  Te  Te142  1  0.57437273  0.92183241  0.43764934  1
  Te  Te143  1  0.57673970  0.90598354  0.75315447  1
  Te  Te144  1  0.92311359  0.25037279  0.09203397  1
  Te  Te145  1  0.92029558  0.24215719  0.42228514  1
  Te  Te146  1  0.88864567  0.22651189  0.72655442  1
  Te  Te147  1  0.90699444  0.60467745  0.11197325  1
  Te  Te148  1  0.91733212  0.57611005  0.39815279  1
  Te  Te149  1  0.93522880  0.58776607  0.72732138  1
  Te  Te150  1  0.93155982  0.90878006  0.08550538  1
  Te  Te151  1  0.88955232  0.92224895  0.41845933  1
  Te  Te152  1  0.95449157  0.90343183  0.77090855  1
  Te  Te153  1  0.24976022  0.07020208  0.27419275  1
  Te  Te154  1  0.24665799  0.09121186  0.58671465  1
  Te  Te155  1  0.26129665  0.09762756  0.89153365  1
  Te  Te156  1  0.24466582  0.41685991  0.25490795  1
  Te  Te157  1  0.24437733  0.42786452  0.59867987  1
  Te  Te158  1  0.25713948  0.38416589  0.91689040  1
  Te  Te159  1  0.23552351  0.74709063  0.25718317  1
  Te  Te160  1  0.24262048  0.76229525  0.57692491  1
  Te  Te161  1  0.24191812  0.74588021  0.92017703  1
  Te  Te162  1  0.57968333  0.07653817  0.24700970  1
  Te  Te163  1  0.57265632  0.07357935  0.57340120  1
  Te  Te164  1  0.56495836  0.11498435  0.93627028  1
  Te  Te165  1  0.61248781  0.43421608  0.23880746  1
  Te  Te166  1  0.59764670  0.41226699  0.57527840  1
  Te  Te167  1  0.58957252  0.40301934  0.93551565  1
  Te  Te168  1  0.60192122  0.72430605  0.26231583  1
  Te  Te169  1  0.61782180  0.76890876  0.55306631  1
  Te  Te170  1  0.59155575  0.75691696  0.93172220  1
  Te  Te171  1  0.92351254  0.08278281  0.24115531  1
  Te  Te172  1  0.94003311  0.08414539  0.63051308  1
  Te  Te173  1  0.91172709  0.08018536  0.91948697  1
  Te  Te174  1  0.84779816  0.44664245  0.19744068  1
  Te  Te175  1  0.90656796  0.41505917  0.58734867  1
  Te  Te176  1  0.90613892  0.43569493  0.92947027  1
  Te  Te177  1  0.86461578  0.73107130  0.29375607  1
  Te  Te178  1  0.91672904  0.72875197  0.57531094  1
  Te  Te179  1  0.90147162  0.75684686  0.91391128  1
