# generated using pymatgen
data_In2Te3
_symmetry_space_group_name_H-M   'P 1'
_cell_length_a   18.93089431
_cell_length_b   18.92840335
_cell_length_c   18.92207377
_cell_angle_alpha   90.15269693
_cell_angle_beta   90.05675948
_cell_angle_gamma   90.02996290
_symmetry_Int_Tables_number   1
_chemical_formula_structural   In2Te3
_chemical_formula_sum   'In72 Te108'
_cell_volume   6780.34868616
_cell_formula_units_Z   36
loop_
 _symmetry_equiv_pos_site_id
 _symmetry_equiv_pos_as_xyz
  1  'x, y, z'
loop_
 _atom_site_type_symbol
 _atom_site_label
 _atom_site_symmetry_multiplicity
 _atom_site_fract_x
 _atom_site_fract_y
 _atom_site_fract_z
 _atom_site_occupancy
  In  In0  1  0.15814792  0.16093495  0.31820031  1
  In  In1  1  0.67225122  0.14198696  0.16923603  1
  In  In2  1  0.14763978  0.33223416  0.51624187  1
  In  In3  1  0.65507652  0.50001288  0.14305782  1
  In  In4  1  0.15944017  0.48292186  0.01308193  1
  In  In5  1  0.32661658  0.51586350  0.83849044  1
  In  In6  1  0.17817819  0.00651785  0.82681109  1
  In  In7  1  0.34122546  0.71413365  0.03029445  1
  In  In8  1  0.82185149  0.15183410  0.36015672  1
  In  In9  1  0.31692177  0.32043220  0.32784800  1
  In  In10  1  0.34837276  0.16819359  0.82341329  1
  In  In11  1  0.16419329  0.68359735  0.17049300  1
  In  In12  1  0.64764991  0.84633698  0.50319110  1
  In  In13  1  0.00670589  0.01426633  0.65276569  1
  In  In14  1  0.33784684  0.84975999  0.50002234  1
  In  In15  1  0.85104447  0.48734511  0.32678405  1
  In  In16  1  0.66775397  0.84456986  0.16503218  1
  In  In17  1  0.32702653  0.66084854  0.67373542  1
  In  In18  1  0.50314691  0.32939718  0.48301249  1
  In  In19  1  0.18166959  0.00488798  0.51137104  1
  In  In20  1  0.33079737  0.66884711  0.34530640  1
  In  In21  1  0.82734127  0.17584819  0.66430602  1
  In  In22  1  0.83219386  0.66003466  0.19518527  1
  In  In23  1  -0.00729431  0.18428107  0.51222457  1
  In  In24  1  0.32339731  -0.03358999  0.03216100  1
  In  In25  1  0.49572346  0.68808347  0.53053834  1
  In  In26  1  0.01061255  0.66636195  0.00228602  1
  In  In27  1  0.00218569  0.49402882  0.49990693  1
  In  In28  1  0.03107543  -0.01474326  0.30797630  1
  In  In29  1  -0.01938972  0.65577383  0.69140023  1
  In  In30  1  0.83401184  0.00235332  0.18601414  1
  In  In31  1  0.01488849  0.67345434  0.34298541  1
  In  In32  1  0.81256976  0.66222064  0.53001315  1
  In  In33  1  0.18305041  0.19011622  -0.00659276  1
  In  In34  1  0.66668060  0.31824486  0.34657507  1
  In  In35  1  0.83716935  0.32953744  0.51941539  1
  In  In36  1  0.84628050  0.82509946  -0.00856897  1
  In  In37  1  0.65180287  -0.00246339  0.65716616  1
  In  In38  1  0.51928435  0.33024699  0.84463308  1
  In  In39  1  0.32256882  0.85142237  0.82426328  1
  In  In40  1  0.00247530  0.18190986  0.13754059  1
  In  In41  1  0.64698979  0.65406260  -0.01122094  1
  In  In42  1  0.86132972  0.35993815  0.81200333  1
  In  In43  1  0.81167340  0.48376738  -0.01460282  1
  In  In44  1  0.17695466  0.66813318  0.48337181  1
  In  In45  1  0.50766934  0.16864570  -0.00555557  1
  In  In46  1  0.01243053  0.82721240  0.48945997  1
  In  In47  1  0.32647138  0.49031647  0.17565298  1
  In  In48  1  0.30770312  0.33217914  0.66193423  1
  In  In49  1  0.49018907  -0.01094332  0.19348429  1
  In  In50  1  0.83594779  0.84658087  0.31897689  1
  In  In51  1  0.32465260  0.16770283  0.18041984  1
  In  In52  1  0.49346259  -0.00981441  0.48905101  1
  In  In53  1  0.47831812  0.32279686  0.15518772  1
  In  In54  1  0.48382746  0.49486665  0.65166329  1
  In  In55  1  0.49796629  0.68691895  0.84825589  1
  In  In56  1  0.48831435  0.49883065  0.33031428  1
  In  In57  1  0.79867058  0.82732987  0.67729906  1
  In  In58  1  0.50362390  -0.00967763  0.81355443  1
  In  In59  1  0.68107317  0.52300199  0.52987034  1
  In  In60  1  0.64555010  0.68297487  0.34043993  1
  In  In61  1  0.70367178  -0.00287583  -0.01204003  1
  In  In62  1  0.01343165  0.01378741  0.00998666  1
  In  In63  1  0.01942340  0.84287574  0.82747143  1
  In  In64  1  0.00197861  0.50091991  0.16235373  1
  In  In65  1  0.34160598  0.14478345  0.51829594  1
  In  In66  1  0.69527112  0.33959326  -0.01796367  1
  In  In67  1  0.12902151  0.35259710  0.82229144  1
  In  In68  1  0.85221338  0.00182288  0.86049180  1
  In  In69  1  0.66447285  0.48881888  0.81657318  1
  In  In70  1  0.18004925  0.66102532  0.83178106  1
  In  In71  1  0.68191427  0.19280016  0.82387622  1
  Te  Te72  1  0.11559846  0.09216753  0.08999492  1
  Te  Te73  1  0.07458099  0.08220933  0.42954821  1
  Te  Te74  1  0.06781787  0.08665768  0.76684337  1
  Te  Te75  1  0.04977213  0.39858129  0.06472320  1
  Te  Te76  1  0.07460348  0.40511147  0.41085336  1
  Te  Te77  1  0.04501379  0.42284732  0.71659863  1
  Te  Te78  1  0.07561106  0.76881475  0.08629095  1
  Te  Te79  1  0.11567104  0.77542043  0.39202974  1
  Te  Te80  1  0.09599992  0.74629606  0.73888240  1
  Te  Te81  1  0.42109265  0.08163547  0.08350691  1
  Te  Te82  1  0.38790709  0.05896244  0.40707787  1
  Te  Te83  1  0.43367987  0.09046649  0.73333562  1
  Te  Te84  1  0.41434409  0.42610007  0.07660323  1
  Te  Te85  1  0.39650722  0.41592638  0.41701772  1
  Te  Te86  1  0.41240446  0.41208561  0.75912202  1
  Te  Te87  1  0.43844259  0.80208806  0.09717132  1
  Te  Te88  1  0.43452316  0.75949837  0.41265128  1
  Te  Te89  1  0.41585100  0.76085296  0.74404447  1
  Te  Te90  1  0.78937637  0.09838969  0.06794446  1
  Te  Te91  1  0.74769155  0.03412843  0.39948609  1
  Te  Te92  1  0.75668442  0.07207985  0.75756881  1
  Te  Te93  1  0.76567278  0.40588101  0.10659698  1
  Te  Te94  1  0.74673685  0.42722033  0.42651200  1
  Te  Te95  1  0.72509200  0.36932725  0.75495438  1
  Te  Te96  1  0.75935143  0.74603538  0.09076852  1
  Te  Te97  1  0.75927576  0.75496457  0.41358644  1
  Te  Te98  1  0.77189869  0.69946155  0.74115086  1
  Te  Te99  1  0.08001934  0.25636170  0.23953885  1
  Te  Te100  1  0.06656307  0.25788629  0.61728957  1
  Te  Te101  1  0.07342621  0.25821894  0.92209442  1
  Te  Te102  1  0.09420692  0.57815610  0.25576624  1
  Te  Te103  1  0.06631986  0.61081513  0.57168523  1
  Te  Te104  1  0.08598554  0.57320691  0.91062655  1
  Te  Te105  1  0.09689514  0.90748897  0.20348349  1
  Te  Te106  1  0.09310754  0.90624992  0.59039811  1
  Te  Te107  1  0.10194513  0.91934660  0.92727663  1
  Te  Te108  1  0.43028781  0.23744137  0.26898312  1
  Te  Te109  1  0.41741892  0.25765919  0.58804496  1
  Te  Te110  1  0.41087525  0.26237617  0.92720897  1
  Te  Te111  1  0.41627746  0.59525818  0.24032453  1
  Te  Te112  1  0.39477556  0.58002041  0.56352012  1
  Te  Te113  1  0.40328650  0.60579595  0.93327011  1
  Te  Te114  1  0.38429920  0.88403490  0.21256701  1
  Te  Te115  1  0.42399121  0.91693017  0.59694542  1
  Te  Te116  1  0.41676179  0.92074866  0.92166773  1
  Te  Te117  1  0.75577555  0.23861259  0.25307235  1
  Te  Te118  1  0.73594260  0.23429978  0.56475875  1
  Te  Te119  1  0.78992103  0.24270178  0.91557596  1
  Te  Te120  1  0.72873345  0.57134239  0.26534560  1
  Te  Te121  1  0.76525610  0.57663584  0.64369487  1
  Te  Te122  1  0.74993806  0.59051652  0.89693090  1
  Te  Te123  1  0.72037044  0.94445695  0.27734706  1
  Te  Te124  1  0.76075794  0.92264292  0.56866561  1
  Te  Te125  1  0.75042214  0.88881551  0.89235728  1
  Te  Te126  1  0.26110431  0.26889822  0.09403408  1
  Te  Te127  1  0.24286007  0.23606704  0.43173078  1
  Te  Te128  1  0.23481794  0.25064632  0.76556877  1
  Te  Te129  1  0.24580135  0.59412590  0.07278365  1
  Te  Te130  1  0.23944224  0.56734199  0.39769178  1
  Te  Te131  1  0.22888512  0.55857749  0.72918364  1
  Te  Te132  1  0.22746643  0.89415334  0.11844403  1
  Te  Te133  1  0.26098689  0.93603971  0.40601758  1
  Te  Te134  1  0.25674222  0.93621100  0.72333977  1
  Te  Te135  1  0.60441016  0.25342717  0.07822915  1
  Te  Te136  1  0.58704548  0.22275708  0.42418597  1
  Te  Te137  1  0.56874177  0.23752404  0.74206739  1
  Te  Te138  1  0.56383733  0.60455937  0.09925886  1
  Te  Te139  1  0.57409108  0.57865415  0.43047854  1
  Te  Te140  1  0.55816384  0.57844959  0.75445159  1
  Te  Te141  1  0.59727828  0.95135015  0.08466064  1
  Te  Te142  1  0.55299615  0.88649240  0.39813629  1
  Te  Te143  1  0.59311334  0.89642571  0.74535036  1
  Te  Te144  1  0.88098875  0.22251259  0.06585581  1
  Te  Te145  1  0.91672280  0.26378265  0.40886402  1
  Te  Te146  1  0.93270233  0.25751007  0.72989405  1
  Te  Te147  1  0.89937744  0.58551640  0.07958127  1
  Te  Te148  1  0.90152641  0.60087293  0.41582472  1
  Te  Te149  1  0.94203806  0.52614328  0.75539086  1
  Te  Te150  1  0.91562906  0.92193161  0.08513934  1
  Te  Te151  1  0.93079616  0.92556974  0.40758618  1
  Te  Te152  1  0.91667610  0.91685368  0.74333737  1
  Te  Te153  1  0.25477922  0.06647780  0.26053268  1
  Te  Te154  1  0.24136310  0.09287061  0.61303725  1
  Te  Te155  1  0.27397077  0.07641341  0.92764913  1
  Te  Te156  1  0.23244136  0.38764125  0.22586831  1
  Te  Te157  1  0.23467634  0.43092112  0.58387881  1
  Te  Te158  1  0.24511923  0.41130952  0.91071409  1
  Te  Te159  1  0.27010147  0.76124108  0.24298119  1
  Te  Te160  1  0.25063583  0.75508091  0.58341819  1
  Te  Te161  1  0.24497373  0.76431207  0.92191735  1
  Te  Te162  1  0.56829977  0.09460228  0.26080478  1
  Te  Te163  1  0.58710966  0.08308377  0.55836936  1
  Te  Te164  1  0.60186493  0.08475239  0.90995784  1
  Te  Te165  1  0.57895685  0.40563836  0.25040109  1
  Te  Te166  1  0.58951276  0.41261747  0.58205765  1
  Te  Te167  1  0.58494454  0.43385723  0.93469947  1
  Te  Te168  1  0.57532645  0.74833174  0.22896717  1
  Te  Te169  1  0.61385227  0.73978084  0.59934287  1
  Te  Te170  1  0.58269010  0.77263426  0.93286603  1
  Te  Te171  1  0.93168080  0.09526177  0.25481725  1
  Te  Te172  1  0.89906643  0.07924309  0.56891585  1
  Te  Te173  1  0.95896036  0.09713666  0.89869398  1
  Te  Te174  1  0.93194147  0.39905568  0.24456052  1
  Te  Te175  1  0.91186846  0.43117446  0.60048664  1
  Te  Te176  1  0.92985365  0.41443679  0.93191442  1
  Te  Te177  1  0.93555452  0.75934289  0.24419156  1
  Te  Te178  1  0.91691722  0.76122236  0.58848977  1
  Te  Te179  1  0.92848092  0.74048915  0.89609118  1
