# generated using pymatgen
data_In2Te3
_symmetry_space_group_name_H-M   'P 1'
_cell_length_a   19.00340123
_cell_length_b   18.94465680
_cell_length_c   19.02708133
_cell_angle_alpha   89.88017750
_cell_angle_beta   89.74877399
_cell_angle_gamma   90.16873549
_symmetry_Int_Tables_number   1
_chemical_formula_structural   In2Te3
_chemical_formula_sum   'In72 Te108'
_cell_volume   6849.88428243
_cell_formula_units_Z   36
loop_
 _symmetry_equiv_pos_site_id
 _symmetry_equiv_pos_as_xyz
  1  'x, y, z'
loop_
 _atom_site_type_symbol
 _atom_site_label
 _atom_site_symmetry_multiplicity
 _atom_site_fract_x
 _atom_site_fract_y
 _atom_site_fract_z
 _atom_site_occupancy
  In  In0  1  0.66787297  0.51133134  0.16539004  1
  In  In1  1  0.16182273  -0.00682251  0.17544928  1
  In  In2  1  0.31958703  0.19836488  0.85585528  1
  In  In3  1  0.47876501  0.33778962  0.14637076  1
  In  In4  1  0.64759086  0.34151689  -0.02377912  1
  In  In5  1  0.02144047  0.65746726  0.69629467  1
  In  In6  1  0.51056841  0.17050682  0.31813193  1
  In  In7  1  0.67099784  -0.00223829  -0.00539175  1
  In  In8  1  0.66626667  0.01201916  0.64303493  1
  In  In9  1  0.65043883  0.82391326  0.82137445  1
  In  In10  1  -0.00202215  0.80593840  0.19365290  1
  In  In11  1  0.01411686  -0.00579944  0.66572714  1
  In  In12  1  0.16818290  0.18602838  0.00114981  1
  In  In13  1  0.50083326  0.82446488  0.63983228  1
  In  In14  1  0.65570271  0.17317629  0.78190209  1
  In  In15  1  0.32302840  0.84694752  0.84245899  1
  In  In16  1  0.33762289  0.81648752  0.50081520  1
  In  In17  1  0.67976158  0.81982904  0.17199042  1
  In  In18  1  0.80195269  0.18584050  0.67595253  1
  In  In19  1  0.86407782  -0.02485482  0.84321772  1
  In  In20  1  -0.00898369  0.82687600  0.49413636  1
  In  In21  1  0.22175212  0.60758368  0.85017612  1
  In  In22  1  0.67372673  0.16658353  0.18302519  1
  In  In23  1  0.15036826  0.67373063  0.52073975  1
  In  In24  1  0.30982304  0.16789064  0.16500638  1
  In  In25  1  0.33863054  0.50145163  0.51032945  1
  In  In26  1  0.34489809  -0.01801531  0.67573070  1
  In  In27  1  0.18970094  -0.02139971  0.50903791  1
  In  In28  1  0.02074433  0.34430647  0.32297709  1
  In  In29  1  0.50573624  0.65204922  0.47848602  1
  In  In30  1  0.00869716  -0.01229991  0.00169239  1
  In  In31  1  -0.01907362  0.51972730  0.49686028  1
  In  In32  1  0.84197571  0.64477875  0.17413056  1
  In  In33  1  0.68766971  0.37325685  0.35416345  1
  In  In34  1  0.01669613  0.50602047  0.84151862  1
  In  In35  1  0.84133117  0.51511901  -0.00157832  1
  In  In36  1  0.65235061  0.34516067  0.63234474  1
  In  In37  1  0.82726373  0.66950667  0.81955923  1
  In  In38  1  0.13052151  0.17200020  0.34720596  1
  In  In39  1  0.01544591  0.34654120  0.68089711  1
  In  In40  1  0.65803423  -0.03135070  0.33140932  1
  In  In41  1  0.50813330  0.18288464  0.65601951  1
  In  In42  1  0.81808047  0.01266893  0.48619945  1
  In  In43  1  0.03763958  0.79483859  0.85479780  1
  In  In44  1  0.51787920  0.67586268  0.18106649  1
  In  In45  1  0.81539408  0.19856916  0.02236564  1
  In  In46  1  0.84698554  0.81169713  0.02639098  1
  In  In47  1  0.83712249  0.84789541  0.64096203  1
  In  In48  1  -0.02673209  0.17184953  0.49362681  1
  In  In49  1  0.45932839  0.17207603  0.01184169  1
  In  In50  1  0.26761548  0.39512869  0.16616955  1
  In  In51  1  0.83811001  0.35964687  0.82317254  1
  In  In52  1  0.86505340  0.36375856  0.16634582  1
  In  In53  1  0.34120969  0.81091833  0.17799862  1
  In  In54  1  0.48153029  0.50313008  0.67034261  1
  In  In55  1  -0.02091263  -0.00089043  0.33080457  1
  In  In56  1  0.01286011  0.18384464  0.86777939  1
  In  In57  1  0.33855036  0.17533317  0.48209500  1
  In  In58  1  0.31992617  0.66888422  0.34230393  1
  In  In59  1  0.48564005  0.34286663  0.47828297  1
  In  In60  1  0.49782494  0.50554913  0.32880506  1
  In  In61  1  0.83793650  0.16173324  0.32087845  1
  In  In62  1  0.64018806  0.48954733  0.82082330  1
  In  In63  1  0.49372589  0.01599541  0.84186381  1
  In  In64  1  0.18530981  0.80673761  0.02365306  1
  In  In65  1  0.16032544  0.62392234  0.15852272  1
  In  In66  1  0.16755151  0.33278120  0.52584969  1
  In  In67  1  0.35069485  -0.02315014  0.32164747  1
  In  In68  1  0.47362106  0.65153350  0.82441002  1
  In  In69  1  0.17297094  0.15925605  0.70246986  1
  In  In70  1  0.49845494  0.82069743  -0.01259267  1
  In  In71  1  0.81833745  0.50912620  0.58306804  1
  Te  Te72  1  0.08471316  0.08671028  0.08669021  1
  Te  Te73  1  0.07261947  0.06074855  0.44288897  1
  Te  Te74  1  0.07500050  0.07285257  0.77976640  1
  Te  Te75  1  0.12179017  0.40094182  0.14242403  1
  Te  Te76  1  0.08460905  0.42161623  0.43624705  1
  Te  Te77  1  0.10676314  0.40764677  0.77592804  1
  Te  Te78  1  0.07069487  0.73175131  0.08483195  1
  Te  Te79  1  0.06838327  0.73097909  0.41088117  1
  Te  Te80  1  0.13376602  0.72433956  0.76674074  1
  Te  Te81  1  0.41046555  0.07661995  0.10853892  1
  Te  Te82  1  0.42722441  0.07868613  0.40760500  1
  Te  Te83  1  0.41304720  0.10112377  0.74723576  1
  Te  Te84  1  0.39094699  0.44864112  0.10025454  1
  Te  Te85  1  0.38841467  0.41905685  0.39200499  1
  Te  Te86  1  0.38425255  0.45512600  0.77527775  1
  Te  Te87  1  0.41710070  0.72921750  0.07593698  1
  Te  Te88  1  0.43031804  0.75650011  0.39780244  1
  Te  Te89  1  0.41082402  0.76596353  0.74734477  1
  Te  Te90  1  0.75701699  0.07645612  0.09174874  1
  Te  Te91  1  0.72929261  0.09341534  0.39897939  1
  Te  Te92  1  0.76164291  0.05073798  0.76024047  1
  Te  Te93  1  0.74666348  0.41029542  0.06836654  1
  Te  Te94  1  0.75950200  0.45364692  0.45119088  1
  Te  Te95  1  0.74681621  0.42661064  0.72347378  1
  Te  Te96  1  0.74237810  0.71892944  0.07769219  1
  Te  Te97  1  0.81590749  0.69434105  0.48044758  1
  Te  Te98  1  0.74557675  0.75612230  0.72620535  1
  Te  Te99  1  0.09999168  0.25877730  0.23017674  1
  Te  Te100  1  0.07539262  0.22449219  0.59339581  1
  Te  Te101  1  0.10306898  0.28800052  0.91483620  1
  Te  Te102  1  0.05070026  0.57089191  0.24836882  1
  Te  Te103  1  0.08466996  0.56041090  0.60046039  1
  Te  Te104  1  0.09666608  0.58778171  0.93642638  1
  Te  Te105  1  0.08292571  0.90642383  0.27089886  1
  Te  Te106  1  0.09421338  0.89167500  0.58991563  1
  Te  Te107  1  0.11009037  0.90452009  0.92960196  1
  Te  Te108  1  0.40553923  0.25322803  0.25048122  1
  Te  Te109  1  0.40512187  0.26747089  0.58214074  1
  Te  Te110  1  0.42830997  0.27622923  0.91704891  1
  Te  Te111  1  0.40491727  0.58986493  0.24672998  1
  Te  Te112  1  0.40981086  0.60949963  0.58809597  1
  Te  Te113  1  0.41343247  0.54127481  0.90100848  1
  Te  Te114  1  0.44229685  0.88672956  0.25310242  1
  Te  Te115  1  0.42476875  0.92910586  0.56119197  1
  Te  Te116  1  0.41013992  0.93204874  0.93401857  1
  Te  Te117  1  0.75705962  0.27751430  0.24628716  1
  Te  Te118  1  0.73616129  0.24647990  0.56319575  1
  Te  Te119  1  0.74787364  0.25777200  0.89289056  1
  Te  Te120  1  0.76513919  0.55421731  0.26399746  1
  Te  Te121  1  0.71762912  0.61247531  0.55828491  1
  Te  Te122  1  0.74219396  0.57365886  0.90125610  1
  Te  Te123  1  0.76212252  0.91845026  0.24232767  1
  Te  Te124  1  0.72252188  0.90170442  0.54993662  1
  Te  Te125  1  0.75642497  0.88977053  0.91872512  1
  Te  Te126  1  0.27085695  0.27428491  0.06762572  1
  Te  Te127  1  0.23705564  0.26118061  0.41031301  1
  Te  Te128  1  0.24926326  0.27313144  0.75092085  1
  Te  Te129  1  0.26809562  0.56355788  0.07125863  1
  Te  Te130  1  0.23656564  0.58192846  0.43244119  1
  Te  Te131  1  0.27252561  0.54391159  0.72508056  1
  Te  Te132  1  0.26239223  0.91518586  0.09605550  1
  Te  Te133  1  0.25044889  0.89316662  0.40187639  1
  Te  Te134  1  0.23717378  0.92749470  0.75539864  1
  Te  Te135  1  0.58713835  0.24153608  0.08247170  1
  Te  Te136  1  0.59163102  0.26427319  0.40574018  1
  Te  Te137  1  0.56632273  0.28964142  0.74700566  1
  Te  Te138  1  0.57299823  0.58223315  0.08237125  1
  Te  Te139  1  0.60289164  0.59733873  0.37917499  1
  Te  Te140  1  0.58323528  0.59777252  0.73265244  1
  Te  Te141  1  0.58732618  0.90338693  0.07697685  1
  Te  Te142  1  0.61021602  0.89036941  0.44485114  1
  Te  Te143  1  0.57153640  0.92833872  0.74344224  1
  Te  Te144  1  0.92997966  0.26589707  0.07952439  1
  Te  Te145  1  0.90861943  0.26872969  0.40160876  1
  Te  Te146  1  0.91965927  0.24011358  0.75471352  1
  Te  Te147  1  0.93916656  0.56764611  0.09316286  1
  Te  Te148  1  0.93061682  0.63101900  0.40736697  1
  Te  Te149  1  0.91157134  0.56494219  0.74890953  1
  Te  Te150  1  0.92557684  0.91307512  0.10304323  1
  Te  Te151  1  0.89048550  0.90412971  0.40982864  1
  Te  Te152  1  0.94499516  0.88176605  0.75660109  1
  Te  Te153  1  0.23790087  0.08002820  0.27833861  1
  Te  Te154  1  0.25636131  0.09315148  0.58360633  1
  Te  Te155  1  0.25324669  0.09176189  0.92829077  1
  Te  Te156  1  0.18138969  0.49110942  0.25389742  1
  Te  Te157  1  0.25358551  0.42370874  0.60550156  1
  Te  Te158  1  0.21994925  0.49086866  0.95059445  1
  Te  Te159  1  0.22804194  0.73600975  0.24413834  1
  Te  Te160  1  0.25001574  0.74997232  0.59658960  1
  Te  Te161  1  0.27442449  0.73279678  0.92856446  1
  Te  Te162  1  0.57691949  0.06393614  0.23524204  1
  Te  Te163  1  0.58222160  0.09886742  0.56299895  1
  Te  Te164  1  0.59742014  0.10055449  0.91103492  1
  Te  Te165  1  0.57784236  0.40218318  0.24410652  1
  Te  Te166  1  0.56571395  0.44320270  0.55744843  1
  Te  Te167  1  0.55115489  0.44517397  0.93194640  1
  Te  Te168  1  0.62052997  0.72884928  0.27409663  1
  Te  Te169  1  0.59392446  0.74528679  0.55726726  1
  Te  Te170  1  0.58371151  0.72315204  0.91020966  1
  Te  Te171  1  0.93502337  0.09829713  0.23388684  1
  Te  Te172  1  0.90367309  0.07339238  0.59632821  1
  Te  Te173  1  0.90630320  0.08795981  0.93524340  1
  Te  Te174  1  0.93619205  0.45222100  0.26286033  1
  Te  Te175  1  0.92339799  0.39605051  0.57631010  1
  Te  Te176  1  0.92960713  0.41171316  0.92859140  1
  Te  Te177  1  0.88977507  0.74503076  0.27241371  1
  Te  Te178  1  0.92779732  0.72987668  0.59946890  1
  Te  Te179  1  0.92101494  0.72646737  0.92382173  1
