# generated using pymatgen
data_In2Te3
_symmetry_space_group_name_H-M   'P 1'
_cell_length_a   18.94764469
_cell_length_b   18.92123071
_cell_length_c   18.96340953
_cell_angle_alpha   89.94718038
_cell_angle_beta   90.28143726
_cell_angle_gamma   89.93736224
_symmetry_Int_Tables_number   1
_chemical_formula_structural   In2Te3
_chemical_formula_sum   'In72 Te108'
_cell_volume   6798.53521956
_cell_formula_units_Z   36
loop_
 _symmetry_equiv_pos_site_id
 _symmetry_equiv_pos_as_xyz
  1  'x, y, z'
loop_
 _atom_site_type_symbol
 _atom_site_label
 _atom_site_symmetry_multiplicity
 _atom_site_fract_x
 _atom_site_fract_y
 _atom_site_fract_z
 _atom_site_occupancy
  In  In0  1  0.82674434  0.32300823  0.82118738  1
  In  In1  1  0.50663357  0.14340302  0.65733155  1
  In  In2  1  0.67818584  0.53131326  0.83980570  1
  In  In3  1  -0.00523872  0.66872100  0.32079133  1
  In  In4  1  0.48425775  0.64662157  0.84693699  1
  In  In5  1  0.66364455  0.00811618  0.33896239  1
  In  In6  1  0.15385037  0.17370609  0.31804346  1
  In  In7  1  0.13757246  0.16808205  0.64553350  1
  In  In8  1  0.32563634  0.31525461  0.66404009  1
  In  In9  1  0.67345206  0.49454231  0.49395497  1
  In  In10  1  0.82510890  0.52264927  0.68009019  1
  In  In11  1  0.15902911  0.65517858  0.50209295  1
  In  In12  1  0.52045259  0.01839491  0.49633379  1
  In  In13  1  0.15728395  0.17030148  0.00664589  1
  In  In14  1  0.49576740  0.65160833  0.15563615  1
  In  In15  1  0.46752159  0.82441475  0.00091711  1
  In  In16  1  0.01980105  -0.01291474  0.32941660  1
  In  In17  1  0.17114133  0.51279767  0.67901778  1
  In  In18  1  0.52194405  0.68209315  0.49701093  1
  In  In19  1  0.18116355  0.01326684  0.50040114  1
  In  In20  1  0.64786170  0.82286398  0.83318687  1
  In  In21  1  0.00717004  0.52462651  0.13565845  1
  In  In22  1  0.66297305  0.20053578  0.14745788  1
  In  In23  1  0.31266244  -0.02263166  0.68775957  1
  In  In24  1  0.36096564  0.83181822  0.47316568  1
  In  In25  1  0.30768158  0.32016914  0.31870045  1
  In  In26  1  0.81285000  0.15784420  -0.03026827  1
  In  In27  1  0.04641180  -0.03375365  0.01882423  1
  In  In28  1  0.50049222  0.82308632  0.29440248  1
  In  In29  1  0.47752765  -0.01024091  0.16169126  1
  In  In30  1  0.18422771  0.80656335  0.31112724  1
  In  In31  1  0.51258676  0.34892470  0.46819546  1
  In  In32  1  0.84575703  0.16454668  0.64854849  1
  In  In33  1  0.83239526  0.51742404  0.00657673  1
  In  In34  1  0.17600665  0.82170893  0.01445857  1
  In  In35  1  0.37275485  0.67890427  0.65510993  1
  In  In36  1  0.85989877  -0.05611376  0.16397799  1
  In  In37  1  0.14691523  0.32880583  0.15574362  1
  In  In38  1  0.78871693  -0.03657495  0.52137231  1
  In  In39  1  0.84235598  0.32635431  0.51281528  1
  In  In40  1  0.51105442  0.49227078  0.68476972  1
  In  In41  1  0.04999656  0.56757296  0.84411709  1
  In  In42  1  0.48902851  -0.01580340  0.85729475  1
  In  In43  1  -0.01359049  0.81162405  0.19457498  1
  In  In44  1  0.48826066  0.51235313  0.32990984  1
  In  In45  1  0.64303979  -0.00186195  0.00518042  1
  In  In46  1  0.34214990  0.17016717  0.17789669  1
  In  In47  1  0.14211245  0.51479064  0.33757598  1
  In  In48  1  -0.01299563  0.83376376  0.52864859  1
  In  In49  1  0.51257084  0.83961986  0.67005584  1
  In  In50  1  0.83495458  0.81693803  0.32346886  1
  In  In51  1  0.83907307  0.71039977  0.85445863  1
  In  In52  1  -0.00247755  0.34081890  0.01907704  1
  In  In53  1  0.00070817  0.48313711  0.50827744  1
  In  In54  1  0.48842257  0.20881369  -0.00217836  1
  In  In55  1  0.85930588  -0.03223410  0.84671094  1
  In  In56  1  -0.02811364  0.16199810  0.16556105  1
  In  In57  1  -0.00298338  0.13787979  0.83419390  1
  In  In58  1  0.67386778  0.16439444  0.80311177  1
  In  In59  1  0.50049279  0.16671343  0.33564316  1
  In  In60  1  0.84105884  0.68684451  0.49971712  1
  In  In61  1  0.83095769  0.36612670  0.19093258  1
  In  In62  1  -0.00631463  -0.00312780  0.67513562  1
  In  In63  1  0.67462891  0.32845429  0.33657404  1
  In  In64  1  0.50585100  0.35759114  0.84298293  1
  In  In65  1  0.29810168  0.16626532  0.83817816  1
  In  In66  1  0.67633169  0.52983942  0.17548577  1
  In  In67  1  0.29874482  0.51331619  0.50734792  1
  In  In68  1  0.15884755  0.79860069  0.68730579  1
  In  In69  1  0.36173843  0.49990512  0.07531422  1
  In  In70  1  0.26188586  0.54692556  0.89145959  1
  In  In71  1  0.34733079  0.16448346  0.47156980  1
  Te  Te72  1  0.08794291  0.08439807  0.11008094  1
  Te  Te73  1  0.07664358  0.09066201  0.42343139  1
  Te  Te74  1  0.10278300  0.06553488  0.75445310  1
  Te  Te75  1  0.11485610  0.43791873  0.04454317  1
  Te  Te76  1  0.09528430  0.40842945  0.42517083  1
  Te  Te77  1  0.09668147  0.44036066  0.78355064  1
  Te  Te78  1  0.08918868  0.74382228  0.11138802  1
  Te  Te79  1  0.07568111  0.75869022  0.41736758  1
  Te  Te80  1  0.09974641  0.69741117  0.77333142  1
  Te  Te81  1  0.41724271  0.09478732  0.06920623  1
  Te  Te82  1  0.41303165  0.05667897  0.39093861  1
  Te  Te83  1  0.41048908  0.08273854  0.76056927  1
  Te  Te84  1  0.42792424  0.36871922  0.08313862  1
  Te  Te85  1  0.38810634  0.41905610  0.41426677  1
  Te  Te86  1  0.39603947  0.41947052  0.74970806  1
  Te  Te87  1  0.38771876  0.74198026  0.09701624  1
  Te  Te88  1  0.42386369  0.72536227  0.38883880  1
  Te  Te89  1  0.42410216  0.76691601  0.76799608  1
  Te  Te90  1  0.74219387  0.08390368  0.08326409  1
  Te  Te91  1  0.75521759  0.07358637  0.43140078  1
  Te  Te92  1  0.78695581  0.07482733  0.76021534  1
  Te  Te93  1  0.74488075  0.42069258  0.08336514  1
  Te  Te94  1  0.77204308  0.41769488  0.41018287  1
  Te  Te95  1  0.73487484  0.42141295  0.74997937  1
  Te  Te96  1  0.78225477  0.83548585  0.09901601  1
  Te  Te97  1  0.74107475  0.75276663  0.41471724  1
  Te  Te98  1  0.75188118  0.76346024  0.74261174  1
  Te  Te99  1  0.04834654  0.26194506  0.24991756  1
  Te  Te100  1  0.03859206  0.24045542  0.56645565  1
  Te  Te101  1  0.06398011  0.24775508  0.91630374  1
  Te  Te102  1  0.10150916  0.61162513  0.22606838  1
  Te  Te103  1  0.06527582  0.58995975  0.59738138  1
  Te  Te104  1  0.13667949  0.63446572  0.95020535  1
  Te  Te105  1  0.10126538  0.90808742  0.23177264  1
  Te  Te106  1  0.10380823  0.91595214  0.58815834  1
  Te  Te107  1  0.08942324  0.88415868  0.90232709  1
  Te  Te108  1  0.43447663  0.27266716  0.25125945  1
  Te  Te109  1  0.43015279  0.25577963  0.56810218  1
  Te  Te110  1  0.39039290  0.27022710  0.90014567  1
  Te  Te111  1  0.39540868  0.55407924  0.22046604  1
  Te  Te112  1  0.43396271  0.56629444  0.56614109  1
  Te  Te113  1  0.40980568  0.54976922  0.93474043  1
  Te  Te114  1  0.38494420  0.90217283  0.23734520  1
  Te  Te115  1  0.41332907  0.92812315  0.58322421  1
  Te  Te116  1  0.37811498  0.92763732  0.93906564  1
  Te  Te117  1  0.76652779  0.24199530  0.25304567  1
  Te  Te118  1  0.74434211  0.25590913  0.59577487  1
  Te  Te119  1  0.72000902  0.26229230  0.91201796  1
  Te  Te120  1  0.80651878  0.55791844  0.23959924  1
  Te  Te121  1  0.74035784  0.59795202  0.58091921  1
  Te  Te122  1  0.74543298  0.62544198  0.93956530  1
  Te  Te123  1  0.73375742  0.90886080  0.25084589  1
  Te  Te124  1  0.76190148  0.86692020  0.62422056  1
  Te  Te125  1  0.73619229  0.91414024  0.91889184  1
  Te  Te126  1  0.25693646  0.25598630  0.08303039  1
  Te  Te127  1  0.23164538  0.25054804  0.42936751  1
  Te  Te128  1  0.21454147  0.25598390  0.74819173  1
  Te  Te129  1  0.25284673  0.60280712  0.05267775  1
  Te  Te130  1  0.25344279  0.60416467  0.39451686  1
  Te  Te131  1  0.28012215  0.59604293  0.74271297  1
  Te  Te132  1  0.25146424  0.94608003  0.04118252  1
  Te  Te133  1  0.24514026  0.90874820  0.41100457  1
  Te  Te134  1  0.24849030  0.87849726  0.77276767  1
  Te  Te135  1  0.56873408  0.29970829  0.08522665  1
  Te  Te136  1  0.60083723  0.23128062  0.42837743  1
  Te  Te137  1  0.56523188  0.25332730  0.74477037  1
  Te  Te138  1  0.57502459  0.55757911  0.07202914  1
  Te  Te139  1  0.59818144  0.58938005  0.40217639  1
  Te  Te140  1  0.58737568  0.60884759  0.74107796  1
  Te  Te141  1  0.57099556  0.89552498  0.08915094  1
  Te  Te142  1  0.57060877  0.90962998  0.40519949  1
  Te  Te143  1  0.59012443  0.94051762  0.75375223  1
  Te  Te144  1  0.88756905  0.24985745  0.07335733  1
  Te  Te145  1  0.94671450  0.25012628  0.44458001  1
  Te  Te146  1  0.93302748  0.24448356  0.74631279  1
  Te  Te147  1  0.93464876  0.61499880  0.04620037  1
  Te  Te148  1  0.92231056  0.58359196  0.42281056  1
  Te  Te149  1  0.90512532  0.58645927  0.79118278  1
  Te  Te150  1  0.92308426  0.85631562  0.04478099  1
  Te  Te151  1  0.91912275  0.90822159  0.41395451  1
  Te  Te152  1  0.94470666  0.88423829  0.75863095  1
  Te  Te153  1  0.25249057  0.08543294  0.25635597  1
  Te  Te154  1  0.27239912  0.09700285  0.59247592  1
  Te  Te155  1  0.23043566  0.06745037  0.92625382  1
  Te  Te156  1  0.22638449  0.42306773  0.24410172  1
  Te  Te157  1  0.22799093  0.40535713  0.58563182  1
  Te  Te158  1  0.21137531  0.41416482  0.92963234  1
  Te  Te159  1  0.28543789  0.77318967  0.21135830  1
  Te  Te160  1  0.26598478  0.74739876  0.57012126  1
  Te  Te161  1  0.26923707  0.72104535  0.94647791  1
  Te  Te162  1  0.58075905  0.09329845  0.22960098  1
  Te  Te163  1  0.61570381  0.06522469  0.59700803  1
  Te  Te164  1  0.57762915  0.10289413  0.91554331  1
  Te  Te165  1  0.59260491  0.42839036  0.25829966  1
  Te  Te166  1  0.59000571  0.40781052  0.58527859  1
  Te  Te167  1  0.58795812  0.44926497  0.92425214  1
  Te  Te168  1  0.59515930  0.73278254  0.22905568  1
  Te  Te169  1  0.60379317  0.77883118  0.57213232  1
  Te  Te170  1  0.57200217  0.73741183  0.93366392  1
  Te  Te171  1  0.90612105  0.05829235  0.25409440  1
  Te  Te172  1  0.91010702  0.05477012  0.56603307  1
  Te  Te173  1  0.93339494  0.05992634  0.95402228  1
  Te  Te174  1  0.93797254  0.45143444  0.24718918  1
  Te  Te175  1  0.91442759  0.42004182  0.61496842  1
  Te  Te176  1  0.90129604  0.40957237  0.92175722  1
  Te  Te177  1  0.87409384  0.69910954  0.22596317  1
  Te  Te178  1  0.92506471  0.73298202  0.61271195  1
  Te  Te179  1  0.95603861  0.79088647  0.90361212  1
