# generated using pymatgen
data_In2Te3
_symmetry_space_group_name_H-M   'P 1'
_cell_length_a   18.92665653
_cell_length_b   18.94133538
_cell_length_c   18.93323406
_cell_angle_alpha   90.10984937
_cell_angle_beta   89.86095875
_cell_angle_gamma   89.92351005
_symmetry_Int_Tables_number   1
_chemical_formula_structural   In2Te3
_chemical_formula_sum   'In72 Te108'
_cell_volume   6787.45294318
_cell_formula_units_Z   36
loop_
 _symmetry_equiv_pos_site_id
 _symmetry_equiv_pos_as_xyz
  1  'x, y, z'
loop_
 _atom_site_type_symbol
 _atom_site_label
 _atom_site_symmetry_multiplicity
 _atom_site_fract_x
 _atom_site_fract_y
 _atom_site_fract_z
 _atom_site_occupancy
  In  In0  1  0.13567387  -0.06090064  0.18723173  1
  In  In1  1  0.14069285  0.35949491  0.47988751  1
  In  In2  1  0.86434285  0.85866683  0.71846516  1
  In  In3  1  0.67009848  0.49991306  0.48675459  1
  In  In4  1  0.85490787  0.66423927  0.48849007  1
  In  In5  1  0.49380712  -0.00167912  0.83276095  1
  In  In6  1  0.15549640  0.49665325  0.67460875  1
  In  In7  1  0.67670255  0.18470271  0.82530453  1
  In  In8  1  0.84572926  0.36522405  0.86730774  1
  In  In9  1  0.67530211  0.49209514  0.84118892  1
  In  In10  1  0.00645534  0.64251335  0.31525503  1
  In  In11  1  0.31803499  0.81393968  0.15404494  1
  In  In12  1  0.83953903  0.17487601  0.67866502  1
  In  In13  1  0.16587221  0.16262855  0.33748760  1
  In  In14  1  0.50854059  0.83849628  0.34071002  1
  In  In15  1  0.84834082  0.82512089  0.29688435  1
  In  In16  1  0.47916507  0.83609728  0.65565597  1
  In  In17  1  0.82358618  0.17313967  0.33303553  1
  In  In18  1  0.67496794  0.51118050  0.18448145  1
  In  In19  1  0.83473635  0.00033399  0.17697972  1
  In  In20  1  0.49557556  0.50997324  0.33599963  1
  In  In21  1  0.00612147  0.17867430  0.15104576  1
  In  In22  1  0.44966930  0.34327479  0.17337490  1
  In  In23  1  0.65541137  0.33292877  0.65753225  1
  In  In24  1  0.65252466  0.83899170  0.85028454  1
  In  In25  1  0.68348156  0.83217990  0.15731932  1
  In  In26  1  -0.00098895  0.64134217  0.67017626  1
  In  In27  1  0.49991784  0.32171792  0.49990885  1
  In  In28  1  0.31557876  0.64110046  0.01547626  1
  In  In29  1  0.67211373  0.15136620  0.16271213  1
  In  In30  1  0.86806850  0.79768385  0.01497512  1
  In  In31  1  -0.00877484  0.16967642  0.51643057  1
  In  In32  1  0.49636104  0.47963327  -0.01990532  1
  In  In33  1  0.85535371  0.00399159  0.51359414  1
  In  In34  1  -0.01023805  0.50120889  0.14788541  1
  In  In35  1  0.28674477  -0.02349998  -0.08454348  1
  In  In36  1  0.16353572  0.50169844  0.00503520  1
  In  In37  1  0.67658137  -0.00088402  0.02965131  1
  In  In38  1  0.49524157  0.17344858  -0.01140840  1
  In  In39  1  0.32207123  0.51880966  0.49585308  1
  In  In40  1  0.01420252  0.32515136  0.67884647  1
  In  In41  1  0.18460823  0.82868974  0.66919622  1
  In  In42  1  0.31981062  0.00855260  0.68517958  1
  In  In43  1  0.49905736  0.00934138  0.15831015  1
  In  In44  1  0.32378946  0.84384036  0.51124506  1
  In  In45  1  0.66655054  0.35445317  0.00968882  1
  In  In46  1  0.66763572  0.01535709  0.63349002  1
  In  In47  1  0.32882132  0.18545371  0.17575002  1
  In  In48  1  0.64877986  0.16981602  0.49464296  1
  In  In49  1  0.84287104  0.51421051  0.32422381  1
  In  In50  1  0.67949858  0.66311351  0.66574599  1
  In  In51  1  0.34877433  0.36193933  0.70149563  1
  In  In52  1  0.01766651  0.00567212  -0.00089462  1
  In  In53  1  0.86032384  -0.00507948  0.85216915  1
  In  In54  1  -0.00089860  0.82670793  0.49805624  1
  In  In55  1  0.14033952  0.81711134  0.01093563  1
  In  In56  1  0.33764926  0.32590434  -0.02091379  1
  In  In57  1  0.34656931  0.00413934  0.35187531  1
  In  In58  1  0.50840093  0.66788450  0.83294621  1
  In  In59  1  0.49397402  0.64148480  0.49079107  1
  In  In60  1  0.31366055  0.18852703  0.49798457  1
  In  In61  1  0.84891441  0.64995505  0.85043003  1
  In  In62  1  0.85916879  0.35531273  0.50048166  1
  In  In63  1  0.16340845  0.65311533  0.83721900  1
  In  In64  1  0.50019909  0.65620607  0.17032195  1
  In  In65  1  0.15527812  0.30669845  0.84108661  1
  In  In66  1  0.33666431  0.68065810  0.67392088  1
  In  In67  1  0.16827052  -0.01137643  0.47998439  1
  In  In68  1  0.66982412  0.83653885  0.48238704  1
  In  In69  1  0.84316968  0.32885424  0.15173318  1
  In  In70  1  0.17919009  0.34730703  0.16398395  1
  In  In71  1  0.28468358  0.67316529  0.33765999  1
  Te  Te72  1  0.10232576  0.06575919  0.11057213  1
  Te  Te73  1  0.06561515  0.08027627  0.41649996  1
  Te  Te74  1  0.11925587  0.16131078  0.78516954  1
  Te  Te75  1  0.07329181  0.39767918  0.06722493  1
  Te  Te76  1  0.03859175  0.43094390  0.40479249  1
  Te  Te77  1  0.07420885  0.42432632  0.77765074  1
  Te  Te78  1  0.02663805  0.76374769  0.08954378  1
  Te  Te79  1  0.07476724  0.75732468  0.38970747  1
  Te  Te80  1  0.08491017  0.74364371  0.74551220  1
  Te  Te81  1  0.40259469  0.09132392  0.07645269  1
  Te  Te82  1  0.41425700  0.11804971  0.41354193  1
  Te  Te83  1  0.40397968  0.09724452  0.76912750  1
  Te  Te84  1  0.38424402  0.44136448  0.07689570  1
  Te  Te85  1  0.41089965  0.41951769  0.42145572  1
  Te  Te86  1  0.44638892  0.41170783  0.79655656  1
  Te  Te87  1  0.41974066  0.73777606  0.07127663  1
  Te  Te88  1  0.40940908  0.74636332  0.42135936  1
  Te  Te89  1  0.40995570  0.77039774  0.77164238  1
  Te  Te90  1  0.78257498  0.09807221  0.07309737  1
  Te  Te91  1  0.75411335  0.07713142  0.42778742  1
  Te  Te92  1  0.75572582  0.06838159  0.75313808  1
  Te  Te93  1  0.76598186  0.44100806  0.08250503  1
  Te  Te94  1  0.75820513  0.41262529  0.40067672  1
  Te  Te95  1  0.75441915  0.40270835  0.74699854  1
  Te  Te96  1  0.75900499  0.72886962  0.08567612  1
  Te  Te97  1  0.76345090  0.74801201  0.40154415  1
  Te  Te98  1  0.74937319  0.76095553  0.75785937  1
  Te  Te99  1  0.08777230  0.25976579  0.25052301  1
  Te  Te100  1  0.10192408  0.25117840  0.57778276  1
  Te  Te101  1  0.08689783  0.20298546  0.92950877  1
  Te  Te102  1  0.09657275  0.55129258  0.23839022  1
  Te  Te103  1  0.09756546  0.58828340  0.57554517  1
  Te  Te104  1  0.06460687  0.59280163  0.93379873  1
  Te  Te105  1  0.05164624  0.88878348  0.29437591  1
  Te  Te106  1  0.08918520  0.91297786  0.58557341  1
  Te  Te107  1  0.07315494  0.90171488  0.90781341  1
  Te  Te108  1  0.43301356  0.23079759  0.26860800  1
  Te  Te109  1  0.40454154  0.25814600  0.59837491  1
  Te  Te110  1  0.39280599  0.21830206  0.89124448  1
  Te  Te111  1  0.39600073  0.59570687  0.26064911  1
  Te  Te112  1  0.41919319  0.57406537  0.60292601  1
  Te  Te113  1  0.40876466  0.58005615  0.90836831  1
  Te  Te114  1  0.41137980  0.90393532  0.24173086  1
  Te  Te115  1  0.41346793  0.94561328  0.57630337  1
  Te  Te116  1  0.42029662  0.91971165  0.93109018  1
  Te  Te117  1  0.74098163  0.26141075  0.24202721  1
  Te  Te118  1  0.76273947  0.25008436  0.57249662  1
  Te  Te119  1  0.75497246  0.25765166  0.93107865  1
  Te  Te120  1  0.77375400  0.60813711  0.23533125  1
  Te  Te121  1  0.76611709  0.57563285  0.57688834  1
  Te  Te122  1  0.73094681  0.59971762  0.92278640  1
  Te  Te123  1  0.73652100  0.92618172  0.26414745  1
  Te  Te124  1  0.76324926  0.90443016  0.58581785  1
  Te  Te125  1  0.75803368  0.91269033  0.93370725  1
  Te  Te126  1  0.24227787  0.24655150  0.06766497  1
  Te  Te127  1  0.24214603  0.27916718  0.39821832  1
  Te  Te128  1  0.24806729  0.25595792  0.73295332  1
  Te  Te129  1  0.21241620  0.59433210  0.11272494  1
  Te  Te130  1  0.22059921  0.55534937  0.39604531  1
  Te  Te131  1  0.26223030  0.57478617  0.75301530  1
  Te  Te132  1  0.24285170  0.91988225  0.07518304  1
  Te  Te133  1  0.24679911  0.89477634  0.39129257  1
  Te  Te134  1  0.24692634  0.91457818  0.77742210  1
  Te  Te135  1  0.58015326  0.25400788  0.08513197  1
  Te  Te136  1  0.59775705  0.27080756  0.40309710  1
  Te  Te137  1  0.57870382  0.22546604  0.72444631  1
  Te  Te138  1  0.57788292  0.56474157  0.07716534  1
  Te  Te139  1  0.60423020  0.60043763  0.39498306  1
  Te  Te140  1  0.58812938  0.57212593  0.74464888  1
  Te  Te141  1  0.57190818  0.90207452  0.07807701  1
  Te  Te142  1  0.57076925  0.93227103  0.43441134  1
  Te  Te143  1  0.58723486  0.91721210  0.72968875  1
  Te  Te144  1  0.93078742  0.26070565  0.05496374  1
  Te  Te145  1  0.92766400  0.25471003  0.40934381  1
  Te  Te146  1  0.91575834  0.25926466  0.77605312  1
  Te  Te147  1  0.94084959  0.58550444  0.03506999  1
  Te  Te148  1  0.94976548  0.55625079  0.43594526  1
  Te  Te149  1  0.90666443  0.55970982  0.74967842  1
  Te  Te150  1  0.92576159  0.91773181  0.08958385  1
  Te  Te151  1  0.91613522  0.91647360  0.40396710  1
  Te  Te152  1  0.97522724  0.94236433  0.77064760  1
  Te  Te153  1  0.25366274  0.07222477  0.25272931  1
  Te  Te154  1  0.23945323  0.08042211  0.57767103  1
  Te  Te155  1  0.20331556  0.09742073  0.90371273  1
  Te  Te156  1  0.30937344  0.39046556  0.22065846  1
  Te  Te157  1  0.24957801  0.41453169  0.58353898  1
  Te  Te158  1  0.24412108  0.41931752  0.90637305  1
  Te  Te159  1  0.21452580  0.73497305  0.22326056  1
  Te  Te160  1  0.24070582  0.72971554  0.56713650  1
  Te  Te161  1  0.24571403  0.74266288  0.92741524  1
  Te  Te162  1  0.58866249  0.07356676  0.25363771  1
  Te  Te163  1  0.55992748  0.10737362  0.59612375  1
  Te  Te164  1  0.60154138  0.07958379  0.92028548  1
  Te  Te165  1  0.56917611  0.41913237  0.24036768  1
  Te  Te166  1  0.57188415  0.43192699  0.57939860  1
  Te  Te167  1  0.56803147  0.37810736  0.88918634  1
  Te  Te168  1  0.58995429  0.74923144  0.24947301  1
  Te  Te169  1  0.57840858  0.74293638  0.57980596  1
  Te  Te170  1  0.59102513  0.73631910  0.93374410  1
  Te  Te171  1  0.92535265  0.09333564  0.25343224  1
  Te  Te172  1  0.93820275  0.07345610  0.62072692  1
  Te  Te173  1  0.93909302  0.10238868  0.91656634  1
  Te  Te174  1  0.92500892  0.40826050  0.25201024  1
  Te  Te175  1  0.92784751  0.42314459  0.61001145  1
  Te  Te176  1  0.92512822  0.46847627  0.93370729  1
  Te  Te177  1  0.93954118  0.73523307  0.21674775  1
  Te  Te178  1  0.90867024  0.75548487  0.60009533  1
  Te  Te179  1  0.93183827  0.76573566  0.88637242  1
