# generated using pymatgen
data_In2Te3
_symmetry_space_group_name_H-M   'P 1'
_cell_length_a   18.76953388
_cell_length_b   18.75848772
_cell_length_c   18.77075477
_cell_angle_alpha   90.06483241
_cell_angle_beta   89.91689146
_cell_angle_gamma   89.98770210
_symmetry_Int_Tables_number   1
_chemical_formula_structural   In2Te3
_chemical_formula_sum   'In72 Te108'
_cell_volume   6608.94749900
_cell_formula_units_Z   36
loop_
 _symmetry_equiv_pos_site_id
 _symmetry_equiv_pos_as_xyz
  1  'x, y, z'
loop_
 _atom_site_type_symbol
 _atom_site_label
 _atom_site_symmetry_multiplicity
 _atom_site_fract_x
 _atom_site_fract_y
 _atom_site_fract_z
 _atom_site_occupancy
  In  In0  1  0.31662804  -0.02465418  0.33604048  1
  In  In1  1  0.50573925  0.51600505  0.65303400  1
  In  In2  1  0.81420098  0.00000143  0.48769725  1
  In  In3  1  0.32062242  0.31960143  0.00112008  1
  In  In4  1  0.67272266  0.50443003  0.50118530  1
  In  In5  1  0.33179773  0.50862359  0.83248818  1
  In  In6  1  0.00949139  0.02062824  0.68094786  1
  In  In7  1  0.50468190  -0.01380369  0.50614137  1
  In  In8  1  0.84608595  0.66497900  0.83496411  1
  In  In9  1  0.81645934  0.81269852  0.32646796  1
  In  In10  1  0.14056680  0.51272429  -0.00182786  1
  In  In11  1  0.34498599  0.67813735  0.35646380  1
  In  In12  1  0.52621191  0.35177857  0.81526489  1
  In  In13  1  -0.01006084  0.64246046  0.68254053  1
  In  In14  1  0.64744184  -0.00489657  0.67077298  1
  In  In15  1  -0.01674532  0.49839400  0.50843182  1
  In  In16  1  0.17596735  0.84966063  0.35798285  1
  In  In17  1  0.66997252  0.49832076  0.15021007  1
  In  In18  1  0.34270147  -0.03004851  0.66352425  1
  In  In19  1  0.34310751  0.84416550  0.17236806  1
  In  In20  1  0.15031789  0.16068546  0.32526560  1
  In  In21  1  -0.02821887  0.85596774  0.12899010  1
  In  In22  1  0.52823508  0.33011235  0.16954888  1
  In  In23  1  0.17717124  -0.00499449  0.16804710  1
  In  In24  1  0.80808810  -0.01931103  0.85406165  1
  In  In25  1  0.33673439  0.69234079  -0.01130748  1
  In  In26  1  0.17427801  0.47991116  0.34234293  1
  In  In27  1  0.81220062  0.49895201  0.32344692  1
  In  In28  1  0.67360487  -0.00904810  0.00853139  1
  In  In29  1  0.15636962  0.30183308  0.82419687  1
  In  In30  1  0.16405451  0.33962815  0.50365381  1
  In  In31  1  0.33684284  0.34125244  0.33802010  1
  In  In32  1  0.51148658  0.16193298  0.32785939  1
  In  In33  1  0.18729385  -0.01220314  0.48493323  1
  In  In34  1  0.16345155  0.65773663  0.84813375  1
  In  In35  1  0.66464336  0.65670646  0.34922719  1
  In  In36  1  0.68760568  0.82233192  0.13534600  1
  In  In37  1  0.66917186  0.00938891  0.31615709  1
  In  In38  1  0.01752551  0.83896195  0.85782261  1
  In  In39  1  0.68199932  0.34178935  0.66996694  1
  In  In40  1  -0.01091436  0.01324934  0.30653394  1
  In  In41  1  0.16107868  0.15393110  0.69038449  1
  In  In42  1  -0.02147402  0.67535735  0.02051373  1
  In  In43  1  0.37152178  0.18808158  0.52276377  1
  In  In44  1  0.35550053  0.50984435  0.50390152  1
  In  In45  1  -0.00731029  0.49177272  0.14909226  1
  In  In46  1  0.49478092  0.65284481  0.17609031  1
  In  In47  1  -0.00641612  0.15653147  0.82762891  1
  In  In48  1  0.35074494  0.15665932  0.82276950  1
  In  In49  1  0.50518825  0.51416777  0.00134908  1
  In  In50  1  -0.00405300  0.33637442  0.67763597  1
  In  In51  1  0.66252382  0.32423414  0.33415765  1
  In  In52  1  0.36787636  -0.00584315  0.00371212  1
  In  In53  1  0.48966439  0.83665399  0.33740172  1
  In  In54  1  0.13919252  0.67653745  0.15995176  1
  In  In55  1  0.64189572  0.67725423  0.64713662  1
  In  In56  1  0.32550601  0.50178152  0.18177427  1
  In  In57  1  0.67311869  0.18203194  0.82793154  1
  In  In58  1  0.20682216  0.81315386  0.66380129  1
  In  In59  1  0.80656943  0.33232267  0.16709350  1
  In  In60  1  0.49474020  -0.01937250  0.82167897  1
  In  In61  1  -0.00963266  0.68353370  0.33733595  1
  In  In62  1  -0.01471724  0.17660215  0.16601055  1
  In  In63  1  -0.03491327  0.20270510  0.46579528  1
  In  In64  1  0.18099395  0.50280799  0.67486906  1
  In  In65  1  0.82454049  0.16633912  -0.01497121  1
  In  In66  1  0.82552530  0.82335222  0.67257909  1
  In  In67  1  0.16145685  0.15803120  0.00553891  1
  In  In68  1  -0.00526966  0.82928280  0.51484913  1
  In  In69  1  0.84238566  0.19048761  0.65858012  1
  In  In70  1  0.51395063  0.17000395  0.01627634  1
  In  In71  1  0.67336251  0.51098914  0.85080546  1
  Te  Te72  1  0.06999442  0.06985568  0.09199324  1
  Te  Te73  1  0.07302580  0.07442244  0.42594565  1
  Te  Te74  1  0.10983579  0.05237671  0.79593389  1
  Te  Te75  1  0.08496885  0.40186213  0.07646867  1
  Te  Te76  1  0.06118163  0.40441429  0.41264776  1
  Te  Te77  1  0.08105986  0.43361979  0.77082293  1
  Te  Te78  1  0.09002158  0.77387277  0.05769230  1
  Te  Te79  1  0.09399095  0.74367530  0.43360200  1
  Te  Te80  1  0.07686056  0.75501847  0.74397535  1
  Te  Te81  1  0.41322913  0.09893744  0.09704205  1
  Te  Te82  1  0.40534793  0.07609684  0.42202118  1
  Te  Te83  1  0.43421820  0.07903168  0.72103934  1
  Te  Te84  1  0.41598233  0.42066429  0.08510821  1
  Te  Te85  1  0.43201865  0.40796108  0.42781465  1
  Te  Te86  1  0.41517501  0.42251434  0.73870361  1
  Te  Te87  1  0.43578890  0.76022927  0.08412627  1
  Te  Te88  1  0.46723351  0.72237235  0.43654735  1
  Te  Te89  1  0.44977855  0.78772105  0.77228239  1
  Te  Te90  1  0.75367680  0.08679308  0.08764524  1
  Te  Te91  1  0.74446513  0.10108862  0.40772832  1
  Te  Te92  1  0.76475521  0.07947564  0.74423604  1
  Te  Te93  1  0.77354236  0.43506508  0.06239461  1
  Te  Te94  1  0.76934566  0.39795383  0.43245370  1
  Te  Te95  1  0.76086589  0.43445688  0.75581693  1
  Te  Te96  1  0.76510766  0.74842029  0.03231633  1
  Te  Te97  1  0.74671734  0.74405196  0.43594496  1
  Te  Te98  1  0.73536155  0.73800361  0.75841828  1
  Te  Te99  1  0.06632761  0.26010297  0.25880824  1
  Te  Te100  1  0.07971767  0.23845668  0.58599836  1
  Te  Te101  1  0.06269476  0.24936823  0.93219846  1
  Te  Te102  1  0.07981901  0.57511714  0.26017552  1
  Te  Te103  1  0.08978052  0.58273291  0.58185451  1
  Te  Te104  1  0.04302783  0.58840429  0.90972988  1
  Te  Te105  1  0.08074096  0.89750545  0.24795288  1
  Te  Te106  1  0.09368507  0.91752408  0.59302620  1
  Te  Te107  1  0.07400135  0.95847535  0.92116999  1
  Te  Te108  1  0.41918419  0.25310023  0.24286972  1
  Te  Te109  1  0.44908786  0.25994930  0.62237384  1
  Te  Te110  1  0.43003234  0.26060396  0.90796430  1
  Te  Te111  1  0.42108963  0.56723070  0.27902440  1
  Te  Te112  1  0.40075245  0.61611240  0.60325096  1
  Te  Te113  1  0.42864403  0.60285825  0.90360727  1
  Te  Te114  1  0.43511096  0.94357067  0.24183895  1
  Te  Te115  1  0.44600128  0.87929206  0.59818310  1
  Te  Te116  1  0.41829968  0.88300022  0.91073315  1
  Te  Te117  1  0.74749409  0.22806087  0.25693865  1
  Te  Te118  1  0.73494640  0.24157059  0.57323507  1
  Te  Te119  1  0.74692394  0.27367119  0.91625712  1
  Te  Te120  1  0.74862767  0.60295773  0.23289880  1
  Te  Te121  1  0.74729151  0.58271893  0.60095073  1
  Te  Te122  1  0.74383919  0.61504905  0.93633049  1
  Te  Te123  1  0.76205990  0.91675806  0.23182951  1
  Te  Te124  1  0.73650611  0.90569916  0.57952495  1
  Te  Te125  1  0.71598652  0.88089338  0.91436980  1
  Te  Te126  1  0.24500714  0.23900698  0.09760003  1
  Te  Te127  1  0.24957265  0.23932345  0.42387917  1
  Te  Te128  1  0.26977029  0.25431068  0.73472884  1
  Te  Te129  1  0.25402187  0.59014502  0.07856380  1
  Te  Te130  1  0.24451722  0.58405775  0.42696998  1
  Te  Te131  1  0.26509367  0.61239251  0.74176286  1
  Te  Te132  1  0.25295746  0.90925770  0.06839673  1
  Te  Te133  1  0.29261004  0.87794643  0.45291283  1
  Te  Te134  1  0.25476850  0.90910009  0.76596340  1
  Te  Te135  1  0.61715966  0.25462141  0.07933564  1
  Te  Te136  1  0.57209578  0.25244951  0.42722843  1
  Te  Te137  1  0.57027920  0.23405556  0.72513326  1
  Te  Te138  1  0.59822734  0.61191773  0.07022194  1
  Te  Te139  1  0.56472873  0.58553767  0.43620409  1
  Te  Te140  1  0.57823108  0.59259011  0.76281645  1
  Te  Te141  1  0.57731350  0.90749264  0.08498814  1
  Te  Te142  1  0.60017400  0.91093067  0.41220011  1
  Te  Te143  1  0.58916826  0.88100281  0.75452000  1
  Te  Te144  1  0.90769947  0.26471384  0.06896996  1
  Te  Te145  1  0.86983951  0.28331294  0.39107135  1
  Te  Te146  1  0.89480305  0.27084483  0.78632702  1
  Te  Te147  1  0.89002974  0.56586676  0.07209202  1
  Te  Te148  1  0.89982390  0.58877003  0.41503682  1
  Te  Te149  1  0.89202136  0.55071329  0.74820028  1
  Te  Te150  1  0.89618413  0.95382839  0.05111001  1
  Te  Te151  1  0.92035960  0.90944799  0.40693536  1
  Te  Te152  1  0.91720980  0.91689560  0.75173034  1
  Te  Te153  1  0.26222652  0.09073687  0.24878265  1
  Te  Te154  1  0.25280793  0.08198768  0.58812470  1
  Te  Te155  1  0.26742401  0.07984673  0.92347724  1
  Te  Te156  1  0.23369235  0.39165277  0.23334706  1
  Te  Te157  1  0.26703467  0.41062570  0.58823174  1
  Te  Te158  1  0.23900803  0.41681477  0.91206028  1
  Te  Te159  1  0.25413468  0.74378711  0.24879114  1
  Te  Te160  1  0.29030336  0.72804858  0.57973274  1
  Te  Te161  1  0.24358231  0.76949705  0.90233655  1
  Te  Te162  1  0.58226722  0.08568940  0.22310065  1
  Te  Te163  1  0.59470507  0.08653869  0.56798236  1
  Te  Te164  1  0.58238200  0.08197347  0.90265367  1
  Te  Te165  1  0.58624087  0.43639417  0.26262089  1
  Te  Te166  1  0.57922965  0.40703821  0.57517877  1
  Te  Te167  1  0.59558014  0.40887974  0.93737124  1
  Te  Te168  1  0.58760101  0.75467851  0.24787290  1
  Te  Te169  1  0.55129937  0.76479808  0.56748733  1
  Te  Te170  1  0.54049957  0.77677261  0.88444608  1
  Te  Te171  1  0.88646778  0.10166337  0.25058421  1
  Te  Te172  1  0.91712413  0.08129656  0.57338379  1
  Te  Te173  1  0.92658589  0.05179187  0.93039939  1
  Te  Te174  1  0.91257072  0.40969415  0.25046950  1
  Te  Te175  1  0.90074655  0.40840459  0.59144152  1
  Te  Te176  1  0.95754132  0.38976786  0.85771526  1
  Te  Te177  1  0.91233161  0.74771633  0.22281772  1
  Te  Te178  1  0.90546612  0.72714907  0.58403761  1
  Te  Te179  1  0.89925094  0.77726773  0.93247104  1
