# generated using pymatgen
data_In2Te3
_symmetry_space_group_name_H-M   'P 1'
_cell_length_a   18.98589831
_cell_length_b   18.96782585
_cell_length_c   19.02266102
_cell_angle_alpha   90.09320705
_cell_angle_beta   90.03335873
_cell_angle_gamma   89.99868646
_symmetry_Int_Tables_number   1
_chemical_formula_structural   In2Te3
_chemical_formula_sum   'In72 Te108'
_cell_volume   6850.45352572
_cell_formula_units_Z   36
loop_
 _symmetry_equiv_pos_site_id
 _symmetry_equiv_pos_as_xyz
  1  'x, y, z'
loop_
 _atom_site_type_symbol
 _atom_site_label
 _atom_site_symmetry_multiplicity
 _atom_site_fract_x
 _atom_site_fract_y
 _atom_site_fract_z
 _atom_site_occupancy
  In  In0  1  0.51795611  0.52523217  0.65659281  1
  In  In1  1  0.17325363  -0.00496394  0.49298721  1
  In  In2  1  0.37732375  0.07965155  0.49700794  1
  In  In3  1  0.00159574  0.49960724  0.46479246  1
  In  In4  1  0.34868990  0.16107387  0.86353920  1
  In  In5  1  0.65747034  0.18005899  0.83166443  1
  In  In6  1  0.16333149  0.32853463  0.81801781  1
  In  In7  1  0.18462625  0.30093101  0.17720175  1
  In  In8  1  0.66726747  0.14042570  0.16068998  1
  In  In9  1  0.36332469  0.32300452  0.68105913  1
  In  In10  1  0.17189547  0.82999932  0.68890665  1
  In  In11  1  0.84003482  0.18557354  0.64724762  1
  In  In12  1  0.35419995  0.16466475  0.16593078  1
  In  In13  1  0.51704303  0.14940406  0.66656444  1
  In  In14  1  0.18546339  0.14119338  0.37026890  1
  In  In15  1  0.48946034  0.33425760  0.49848565  1
  In  In16  1  0.02318606  -0.01349209  -0.00200631  1
  In  In17  1  0.18040514  0.49159324  0.66744375  1
  In  In18  1  0.50267853  0.67263486  0.50738407  1
  In  In19  1  0.52941161  0.52721446  0.34243452  1
  In  In20  1  0.84572251  0.13422241  0.34235914  1
  In  In21  1  0.65987576  0.30900454  0.34239492  1
  In  In22  1  0.14918536  -0.01330969  0.16999338  1
  In  In23  1  0.51149632  0.15784546  0.01523652  1
  In  In24  1  0.81600533  0.01583350  0.83768361  1
  In  In25  1  0.35217650  0.84966066  0.53554562  1
  In  In26  1  -0.01408463  0.79921755  0.82305328  1
  In  In27  1  0.49274849  0.67330846  0.80843787  1
  In  In28  1  -0.02506621  0.31770871  0.31165951  1
  In  In29  1  -0.01143320  -0.01633154  0.67085991  1
  In  In30  1  0.80710824  0.79688682  0.65710906  1
  In  In31  1  0.17171776  0.48083899  0.30633602  1
  In  In32  1  0.00051231  0.17408968  0.82041901  1
  In  In33  1  0.17104801  0.49623194  -0.00055220  1
  In  In34  1  0.66320282  0.51075268  0.16095573  1
  In  In35  1  0.81020696  0.17613944  0.00272636  1
  In  In36  1  0.17661707  0.65180628  0.15526645  1
  In  In37  1  0.31594743  0.51935074  0.84648210  1
  In  In38  1  0.16834268  0.82247097  0.01209845  1
  In  In39  1  0.79251703  0.67338732  0.85193421  1
  In  In40  1  0.82751619  0.68039746  0.15319256  1
  In  In41  1  0.00179255  0.52645907  0.14155109  1
  In  In42  1  0.37045054  0.31723297  0.31824885  1
  In  In43  1  0.70843491  0.40853406  0.67229796  1
  In  In44  1  -0.02435608  0.14944330  0.16547954  1
  In  In45  1  0.61880757  0.67853460  0.02130006  1
  In  In46  1  0.14723086  0.84006940  0.32156619  1
  In  In47  1  0.38868241  0.33628301  0.02836842  1
  In  In48  1  0.81359850  0.80136891  0.34982994  1
  In  In49  1  -0.01169512  0.36757329  -0.01640060  1
  In  In50  1  0.81468121  0.34960681  0.16762118  1
  In  In51  1  0.54309134  0.37802918  0.83626446  1
  In  In52  1  0.81350575  0.40354599  0.52729240  1
  In  In53  1  0.66885012  -0.00351567  0.32750140  1
  In  In54  1  -0.04121868  0.81236472  0.51780237  1
  In  In55  1  0.19884654  -0.01165180  0.82716823  1
  In  In56  1  0.50405339  -0.01841265  0.84318936  1
  In  In57  1  0.64708883  -0.02960392  0.68049229  1
  In  In58  1  0.48953206  0.84992546  0.01668923  1
  In  In59  1  0.65802476  0.83799634  0.49997539  1
  In  In60  1  0.02217338  0.16783650  0.48806165  1
  In  In61  1  0.82566520  0.86228454  -0.01868301  1
  In  In62  1  0.17396583  0.32408350  0.51894506  1
  In  In63  1  0.81678677  0.54296270  0.32471844  1
  In  In64  1  0.34615787  0.67862914  0.02144155  1
  In  In65  1  0.15287514  0.16946990  0.62204761  1
  In  In66  1  0.33216809  0.66676749  0.32548603  1
  In  In67  1  0.63179745  0.83057473  0.18117289  1
  In  In68  1  0.16373689  0.66996124  0.83596219  1
  In  In69  1  -0.02961770  0.36991278  0.72213103  1
  In  In70  1  0.36316608  -0.02651861  0.31204682  1
  In  In71  1  0.17524399  0.67239728  0.47381483  1
  Te  Te72  1  0.08896378  0.09554326  0.08103503  1
  Te  Te73  1  0.06705578  0.05067033  0.40091478  1
  Te  Te74  1  0.08624588  0.07751631  0.74092739  1
  Te  Te75  1  0.09295172  0.40398613  0.10025351  1
  Te  Te76  1  0.09277559  0.38809694  0.40088284  1
  Te  Te77  1  0.08524166  0.45211487  0.77872812  1
  Te  Te78  1  0.07981493  0.71641025  0.06321310  1
  Te  Te79  1  0.06612684  0.75786883  0.41795672  1
  Te  Te80  1  0.07073583  0.72129579  0.72579663  1
  Te  Te81  1  0.42107500  0.06470483  0.08225738  1
  Te  Te82  1  0.43625517  0.09315056  0.36232750  1
  Te  Te83  1  0.42036948  0.07922685  0.76021060  1
  Te  Te84  1  0.48774178  0.44165060  0.04891594  1
  Te  Te85  1  0.42424437  0.43035271  0.40324590  1
  Te  Te86  1  0.42125586  0.43747851  0.76327031  1
  Te  Te87  1  0.41496058  0.76745580  0.11842872  1
  Te  Te88  1  0.40302754  0.75524859  0.42692518  1
  Te  Te89  1  0.41755489  0.77714092  0.73531470  1
  Te  Te90  1  0.76117745  0.06342560  0.07786122  1
  Te  Te91  1  0.73760013  0.08381327  0.42455143  1
  Te  Te92  1  0.74225612  0.09255236  0.72956331  1
  Te  Te93  1  0.74015029  0.42471123  0.06791710  1
  Te  Te94  1  0.75530508  0.42106801  0.38929965  1
  Te  Te95  1  0.78645694  0.45693511  0.79123126  1
  Te  Te96  1  0.73030121  0.77322894  0.07050205  1
  Te  Te97  1  0.73341684  0.72070164  0.44725895  1
  Te  Te98  1  0.70774015  0.73483694  0.74596421  1
  Te  Te99  1  0.08343507  0.22441351  0.26164415  1
  Te  Te100  1  0.05439458  0.28276159  0.60807833  1
  Te  Te101  1  0.07624526  0.25917131  0.92057726  1
  Te  Te102  1  0.08026244  0.58983623  0.25579118  1
  Te  Te103  1  0.10521702  0.56534572  0.55757358  1
  Te  Te104  1  0.08346599  0.59720191  0.93777297  1
  Te  Te105  1  0.05158658  0.88970569  0.22195458  1
  Te  Te106  1  0.08628507  0.90744073  0.58252819  1
  Te  Te107  1  0.08384095  0.89870594  0.88752164  1
  Te  Te108  1  0.44861002  0.27287767  0.20166255  1
  Te  Te109  1  0.41116334  0.22101150  0.57658116  1
  Te  Te110  1  0.44744632  0.26826640  0.90406433  1
  Te  Te111  1  0.43410364  0.59254260  0.24789972  1
  Te  Te112  1  0.41014562  0.58543880  0.58142635  1
  Te  Te113  1  0.42232235  0.59462643  0.92058599  1
  Te  Te114  1  0.44506271  0.87141872  0.24060626  1
  Te  Te115  1  0.44661667  0.96166011  0.55270083  1
  Te  Te116  1  0.39977385  0.92846555  0.92955930  1
  Te  Te117  1  0.76449713  0.23513184  0.25147660  1
  Te  Te118  1  0.74378660  0.27941760  0.58458355  1
  Te  Te119  1  0.73785353  0.26843068  0.91722853  1
  Te  Te120  1  0.71897569  0.62412062  0.24502744  1
  Te  Te121  1  0.75357367  0.52254282  0.59095968  1
  Te  Te122  1  0.70483072  0.58736301  0.94006613  1
  Te  Te123  1  0.75045903  0.89735620  0.24795245  1
  Te  Te124  1  0.75621758  0.91997124  0.58747569  1
  Te  Te125  1  0.72434474  0.91493292  0.88907527  1
  Te  Te126  1  0.27106467  0.24652159  0.06563426  1
  Te  Te127  1  0.26738328  0.25678783  0.41774152  1
  Te  Te128  1  0.24818640  0.23752599  0.73313509  1
  Te  Te129  1  0.27637284  0.55998404  0.08797206  1
  Te  Te130  1  0.25404158  0.56195796  0.40432442  1
  Te  Te131  1  0.25854890  0.60301448  0.73599406  1
  Te  Te132  1  0.24777073  0.91729051  0.08768403  1
  Te  Te133  1  0.25957019  0.90494669  0.40795917  1
  Te  Te134  1  0.28803075  0.89758862  0.75169133  1
  Te  Te135  1  0.60667844  0.24757103  0.08010749  1
  Te  Te136  1  0.56788152  0.23436684  0.42628507  1
  Te  Te137  1  0.58237395  0.26823273  0.73385660  1
  Te  Te138  1  0.54358146  0.59454412  0.11940685  1
  Te  Te139  1  0.61500528  0.60631201  0.43443402  1
  Te  Te140  1  0.60673984  0.59626570  0.75063638  1
  Te  Te141  1  0.57799377  0.93701549  0.09658024  1
  Te  Te142  1  0.57052804  0.90232594  0.39575635  1
  Te  Te143  1  0.53097913  0.88111534  0.72427750  1
  Te  Te144  1  0.91908021  0.26571154  0.08181099  1
  Te  Te145  1  0.91009217  0.25120877  0.42826161  1
  Te  Te146  1  0.88317802  0.25743741  0.77360522  1
  Te  Te147  1  0.88549414  0.57373014  0.06907676  1
  Te  Te148  1  0.90963017  0.60397546  0.41995551  1
  Te  Te149  1  0.88733181  0.57434131  0.79178689  1
  Te  Te150  1  0.92877964  0.90782614  0.07607835  1
  Te  Te151  1  0.88664197  0.90171188  0.43074076  1
  Te  Te152  1  0.89514967  0.90274198  0.75688456  1
  Te  Te153  1  0.25425617  0.07553401  0.25348564  1
  Te  Te154  1  0.25814445  0.06469348  0.59528237  1
  Te  Te155  1  0.23472574  0.09268855  0.92212216  1
  Te  Te156  1  0.27917007  0.40658358  0.23026886  1
  Te  Te157  1  0.27981894  0.41014613  0.58690512  1
  Te  Te158  1  0.25806292  0.39828089  0.91650955  1
  Te  Te159  1  0.24476587  0.75668152  0.23976260  1
  Te  Te160  1  0.24752441  0.75041399  0.58248181  1
  Te  Te161  1  0.26246451  0.75111002  0.91682409  1
  Te  Te162  1  0.56971531  0.07949849  0.25321683  1
  Te  Te163  1  0.58966458  0.05859567  0.57534512  1
  Te  Te164  1  0.59672262  0.07511464  0.92024705  1
  Te  Te165  1  0.59223909  0.41502315  0.25888791  1
  Te  Te166  1  0.58709270  0.42157814  0.57243369  1
  Te  Te167  1  0.59622593  0.46685941  0.94146360  1
  Te  Te168  1  0.55794211  0.78144947  0.30111533  1
  Te  Te169  1  0.56442491  0.77483970  0.59766731  1
  Te  Te170  1  0.56029025  0.76409668  0.91283413  1
  Te  Te171  1  0.91169104  0.04710341  0.24541659  1
  Te  Te172  1  0.92692346  0.08384979  0.57566244  1
  Te  Te173  1  0.92547219  0.08374305  0.91763213  1
  Te  Te174  1  0.91761355  0.43977554  0.24450687  1
  Te  Te175  1  0.94112333  0.44933334  0.59870488  1
  Te  Te176  1  0.90091048  0.44931397  0.89910176  1
  Te  Te177  1  0.91120438  0.74198984  0.25557077  1
  Te  Te178  1  0.90668554  0.70592022  0.60182100  1
  Te  Te179  1  0.90486561  0.74080053  0.93313888  1
