# generated using pymatgen
data_In2Te3
_symmetry_space_group_name_H-M   'P 1'
_cell_length_a   18.76997474
_cell_length_b   18.76448536
_cell_length_c   18.75782041
_cell_angle_alpha   89.93842305
_cell_angle_beta   89.98698761
_cell_angle_gamma   89.94771752
_symmetry_Int_Tables_number   1
_chemical_formula_structural   In2Te3
_chemical_formula_sum   'In72 Te108'
_cell_volume   6606.66486185
_cell_formula_units_Z   36
loop_
 _symmetry_equiv_pos_site_id
 _symmetry_equiv_pos_as_xyz
  1  'x, y, z'
loop_
 _atom_site_type_symbol
 _atom_site_label
 _atom_site_symmetry_multiplicity
 _atom_site_fract_x
 _atom_site_fract_y
 _atom_site_fract_z
 _atom_site_occupancy
  In  In0  1  0.13795653  0.01050582  0.17393212  1
  In  In1  1  -0.00278893  0.68459523  -0.02067273  1
  In  In2  1  0.66113128  0.65423209  -0.02362579  1
  In  In3  1  0.31293804  0.69488089  0.62964668  1
  In  In4  1  0.85613550  0.84918794  -0.02064824  1
  In  In5  1  0.67401060  0.47838673  0.15403282  1
  In  In6  1  0.30153198  0.51764354  0.48659262  1
  In  In7  1  0.50277148  0.83616514  -0.00487833  1
  In  In8  1  0.32013840  0.16785611  0.14909043  1
  In  In9  1  -0.01580788  0.48660836  0.19323579  1
  In  In10  1  0.04326873  0.85754197  0.50519663  1
  In  In11  1  0.33537537  -0.01468768  0.35331289  1
  In  In12  1  0.68840777  0.31505946  0.31393470  1
  In  In13  1  0.14483083  0.15607264  0.35874465  1
  In  In14  1  0.67436558  0.17142371  0.51631888  1
  In  In15  1  0.01451593  0.47550746  0.48309950  1
  In  In16  1  0.34696003  0.01614877  -0.00547777  1
  In  In17  1  0.52690954  0.32859697  0.85863842  1
  In  In18  1  0.66679099  0.83116219  0.17980212  1
  In  In19  1  0.50057927  0.66518435  0.80922867  1
  In  In20  1  0.32702483  0.84543224  0.19844807  1
  In  In21  1  0.80704803  0.46641193  0.68494026  1
  In  In22  1  0.35755762  0.51835201  0.82784112  1
  In  In23  1  0.16544878  0.48931372  0.65601304  1
  In  In24  1  -0.00907933  0.50265566  0.82053112  1
  In  In25  1  0.82223294  0.16927101  0.00281440  1
  In  In26  1  0.83557562  0.65059233  0.52792546  1
  In  In27  1  0.15417414  -0.00274241  0.81575902  1
  In  In28  1  0.31212969  -0.01070109  0.64621917  1
  In  In29  1  0.14202026  0.17179219  0.65232129  1
  In  In30  1  0.14272861  0.33528997  0.83630105  1
  In  In31  1  0.53310473  0.32003042  0.17715161  1
  In  In32  1  0.47243950  0.67078820  0.47321516  1
  In  In33  1  0.85618524  0.02972446  0.51169092  1
  In  In34  1  0.83288726  0.00701175  0.80746343  1
  In  In35  1  0.67638835  0.15469304  0.82404964  1
  In  In36  1  0.16186486  0.69637005  0.82065996  1
  In  In37  1  0.67923253  0.01139529  0.00318823  1
  In  In38  1  0.49182192  0.14340643  0.33278694  1
  In  In39  1  0.00569249  0.01969642  -0.00389792  1
  In  In40  1  0.66046443  0.00455030  0.34027383  1
  In  In41  1  0.81411304  0.47638809  -0.00720701  1
  In  In42  1  0.17363307  0.67607938  0.18857299  1
  In  In43  1  0.32878943  0.33522419  0.01950696  1
  In  In44  1  0.32892662  0.35750975  0.64039971  1
  In  In45  1  0.48517558  0.67344119  0.18565020  1
  In  In46  1  0.00906988  0.68817324  0.33381974  1
  In  In47  1  0.83336679  0.84181380  0.66732486  1
  In  In48  1  0.81719435  0.83765152  0.33441360  1
  In  In49  1  0.49207613  0.84777540  0.66663234  1
  In  In50  1  0.82973457  0.47529928  0.34190097  1
  In  In51  1  0.50059062  0.18860249  0.02965276  1
  In  In52  1  0.52195487  0.49382615  0.65444365  1
  In  In53  1  0.32287078  0.31824180  0.35874411  1
  In  In54  1  0.50931789  0.48235212  -0.02394009  1
  In  In55  1  0.17645366  0.83969464  -0.01505223  1
  In  In56  1  0.17474169  0.50296814  0.02076210  1
  In  In57  1  -0.00131440  0.01497879  0.32212112  1
  In  In58  1  0.51316447  0.15999574  0.65452712  1
  In  In59  1  0.00866678  0.87683792  0.16263739  1
  In  In60  1  0.51020113  -0.01808904  0.82782517  1
  In  In61  1  0.30505797  0.14974697  0.82752331  1
  In  In62  1  0.32832265  0.50816202  0.19144791  1
  In  In63  1  0.65287293  0.83898691  0.50323790  1
  In  In64  1  0.64181683  0.65061482  0.33425800  1
  In  In65  1  0.83855287  0.65983716  0.13959168  1
  In  In66  1  0.01683274  0.66026062  0.66768461  1
  In  In67  1  -0.00465824  0.32202096  -0.00843972  1
  In  In68  1  0.17564489  0.30808324  0.18966767  1
  In  In69  1  0.49517107  0.33405244  0.50940050  1
  In  In70  1  0.85256887  0.29602896  0.49449661  1
  In  In71  1  0.67517900  0.66392078  0.67587112  1
  Te  Te72  1  0.05080497  0.11054068  0.10609856  1
  Te  Te73  1  0.07768530  0.05309236  0.44284279  1
  Te  Te74  1  0.05786709  0.09126174  0.74766776  1
  Te  Te75  1  0.08709110  0.40549744  0.09682466  1
  Te  Te76  1  0.11896709  0.40021684  0.41353351  1
  Te  Te77  1  0.06033539  0.40383275  0.72594134  1
  Te  Te78  1  0.07962442  0.75262311  0.08954443  1
  Te  Te79  1  0.10948480  0.74482077  0.42850525  1
  Te  Te80  1  0.07768713  0.78088897  0.73240594  1
  Te  Te81  1  0.43261869  0.07405055  0.10635682  1
  Te  Te82  1  0.40324655  0.08883927  0.43573096  1
  Te  Te83  1  0.41420193  0.07736195  0.74735372  1
  Te  Te84  1  0.42748345  0.42636895  0.09284500  1
  Te  Te85  1  0.40908023  0.42722059  0.42295044  1
  Te  Te86  1  0.42638484  0.40153483  0.75459315  1
  Te  Te87  1  0.40765105  0.76519917  0.09125388  1
  Te  Te88  1  0.37689947  0.77541605  0.42774856  1
  Te  Te89  1  0.39657898  0.75588370  0.74414129  1
  Te  Te90  1  0.72524387  0.11207770  0.10366024  1
  Te  Te91  1  0.76066694  0.09720888  0.41318345  1
  Te  Te92  1  0.76014225  0.09915646  0.71251488  1
  Te  Te93  1  0.77907416  0.38715164  0.10490045  1
  Te  Te94  1  0.74262900  0.39415199  0.43325732  1
  Te  Te95  1  0.74212445  0.38611092  0.79022926  1
  Te  Te96  1  0.74963930  0.76223452  0.06805158  1
  Te  Te97  1  0.74791811  0.73534132  0.42488806  1
  Te  Te98  1  0.75705813  0.75334461  0.75892056  1
  Te  Te99  1  0.06449221  0.24812951  0.27074509  1
  Te  Te100  1  0.04034017  0.25471725  0.57520550  1
  Te  Te101  1  0.06872075  0.22722722  0.90294728  1
  Te  Te102  1  0.08756337  0.57383171  0.26523437  1
  Te  Te103  1  0.09417114  0.58569312  0.56063448  1
  Te  Te104  1  0.09346183  0.57543014  0.90745331  1
  Te  Te105  1  0.10477452  0.90251522  0.27644318  1
  Te  Te106  1  0.11943987  0.91320094  0.62062171  1
  Te  Te107  1  0.06402972  0.90802975  0.91016564  1
  Te  Te108  1  0.40632944  0.26053816  0.23974263  1
  Te  Te109  1  0.40122832  0.23644794  0.57998234  1
  Te  Te110  1  0.40306107  0.24215128  0.91506325  1
  Te  Te111  1  0.42585215  0.57558150  0.27966556  1
  Te  Te112  1  0.40646959  0.57417348  0.59392521  1
  Te  Te113  1  0.42777157  0.60348931  0.93309138  1
  Te  Te114  1  0.43296789  0.93063180  0.25524666  1
  Te  Te115  1  0.41004915  0.91341780  0.55996756  1
  Te  Te116  1  0.40033894  0.90641325  0.90382903  1
  Te  Te117  1  0.77230763  0.20956991  0.25536040  1
  Te  Te118  1  0.77556831  0.23308523  0.60923148  1
  Te  Te119  1  0.76606914  0.25581495  0.89006854  1
  Te  Te120  1  0.75900255  0.58607989  0.24743425  1
  Te  Te121  1  0.73140055  0.55599836  0.58125119  1
  Te  Te122  1  0.77977908  0.59516816  0.91246810  1
  Te  Te123  1  0.76062531  0.93797594  0.23712193  1
  Te  Te124  1  0.75210769  0.93102708  0.57259238  1
  Te  Te125  1  0.74467748  0.92045563  0.90121516  1
  Te  Te126  1  0.21917762  0.23772081  0.05856406  1
  Te  Te127  1  0.24284673  0.22884078  0.44587836  1
  Te  Te128  1  0.24587015  0.26211980  0.73980902  1
  Te  Te129  1  0.26617182  0.60354487  0.08795014  1
  Te  Te130  1  0.24815174  0.63120627  0.40887001  1
  Te  Te131  1  0.24795965  0.58593285  0.74117555  1
  Te  Te132  1  0.24688251  0.92901190  0.08895221  1
  Te  Te133  1  0.27010106  0.88961300  0.45055739  1
  Te  Te134  1  0.25898548  0.90925827  0.75949916  1
  Te  Te135  1  0.61801290  0.27023927  0.06735403  1
  Te  Te136  1  0.57779317  0.24798817  0.40927214  1
  Te  Te137  1  0.59316033  0.25642191  0.74002812  1
  Te  Te138  1  0.58768138  0.59273069  0.09566182  1
  Te  Te139  1  0.57817776  0.57108391  0.43986102  1
  Te  Te140  1  0.60165949  0.56042009  0.76588304  1
  Te  Te141  1  0.58457749  0.92393088  0.08832681  1
  Te  Te142  1  0.56537381  0.91914951  0.41594513  1
  Te  Te143  1  0.60332167  0.91744161  0.73439291  1
  Te  Te144  1  0.92527692  0.23535210  0.09008104  1
  Te  Te145  1  0.93416274  0.23459660  0.38413986  1
  Te  Te146  1  0.95765331  0.23156752  0.70067327  1
  Te  Te147  1  0.93787965  0.56706367  0.06867520  1
  Te  Te148  1  0.91504673  0.58780382  0.40977124  1
  Te  Te149  1  0.90019987  0.58556969  0.73224117  1
  Te  Te150  1  0.89924528  0.95048919  0.08643770  1
  Te  Te151  1  0.91794959  0.91302102  0.42040037  1
  Te  Te152  1  0.93375777  0.93091949  0.72939091  1
  Te  Te153  1  0.24858889  0.08660740  0.25648724  1
  Te  Te154  1  0.22953464  0.08547835  0.56690719  1
  Te  Te155  1  0.22180377  0.07733548  0.93258440  1
  Te  Te156  1  0.23552955  0.42094438  0.27602618  1
  Te  Te157  1  0.21168865  0.39373043  0.54281112  1
  Te  Te158  1  0.25862279  0.42463575  0.91076458  1
  Te  Te159  1  0.27992654  0.72776640  0.28518092  1
  Te  Te160  1  0.21296861  0.79755908  0.58126395  1
  Te  Te161  1  0.25937232  0.73445157  0.92399256  1
  Te  Te162  1  0.59755000  0.09836877  0.24058538  1
  Te  Te163  1  0.58545787  0.06525180  0.56901160  1
  Te  Te164  1  0.56692492  0.09212803  0.92031568  1
  Te  Te165  1  0.58643770  0.42853112  0.26823924  1
  Te  Te166  1  0.60448451  0.38769532  0.59363636  1
  Te  Te167  1  0.63190527  0.41764354  0.92045270  1
  Te  Te168  1  0.56522034  0.76915284  0.27619214  1
  Te  Te169  1  0.57150770  0.73323359  0.58353234  1
  Te  Te170  1  0.58812132  0.76026756  0.89346871  1
  Te  Te171  1  0.90106077  0.12008642  0.27929109  1
  Te  Te172  1  0.94665193  0.11906286  0.59299083  1
  Te  Te173  1  0.91342910  0.09682055  0.90218387  1
  Te  Te174  1  0.91753925  0.37814381  0.27020887  1
  Te  Te175  1  0.90638784  0.42056685  0.57289314  1
  Te  Te176  1  0.90782687  0.39751510  0.89205180  1
  Te  Te177  1  0.91348103  0.75956282  0.23405858  1
  Te  Te178  1  0.93362276  0.75973825  0.56914080  1
  Te  Te179  1  0.91343818  0.75391019  0.88061070  1
