# generated using pymatgen
data_In2Te3
_symmetry_space_group_name_H-M   'P 1'
_cell_length_a   18.95373821
_cell_length_b   18.98279146
_cell_length_c   18.98580291
_cell_angle_alpha   90.06329325
_cell_angle_beta   90.11737071
_cell_angle_gamma   89.95653433
_symmetry_Int_Tables_number   1
_chemical_formula_structural   In2Te3
_chemical_formula_sum   'In72 Te108'
_cell_volume   6830.97384378
_cell_formula_units_Z   36
loop_
 _symmetry_equiv_pos_site_id
 _symmetry_equiv_pos_as_xyz
  1  'x, y, z'
loop_
 _atom_site_type_symbol
 _atom_site_label
 _atom_site_symmetry_multiplicity
 _atom_site_fract_x
 _atom_site_fract_y
 _atom_site_fract_z
 _atom_site_occupancy
  In  In0  1  0.49464509  0.66803780  0.83704166  1
  In  In1  1  0.34501173  0.66297704  -0.01536199  1
  In  In2  1  -0.01706392  0.64010891  0.32682797  1
  In  In3  1  0.16453209  0.83211278  0.66860528  1
  In  In4  1  0.01417100  0.83318447  0.15336482  1
  In  In5  1  0.67728055  0.35016828  0.64683616  1
  In  In6  1  0.80202992  0.00375302  0.51393538  1
  In  In7  1  0.32417307  0.30003537  0.67219122  1
  In  In8  1  0.64062536  0.18048337  0.12981798  1
  In  In9  1  0.16940825  0.15200003  0.28065319  1
  In  In10  1  0.82499141  0.31470462  0.84249630  1
  In  In11  1  0.84081627  0.49068492  -0.01553986  1
  In  In12  1  -0.00949142  0.01276030  -0.00396695  1
  In  In13  1  0.48658321  0.01185184  0.14169605  1
  In  In14  1  -0.02259636  0.35830801  0.68445677  1
  In  In15  1  0.36401946  0.68381434  0.33741088  1
  In  In16  1  0.34588868  0.83135527  0.82999819  1
  In  In17  1  0.16291596  -0.00156480  0.84729099  1
  In  In18  1  0.56152802  -0.00392219  0.58813195  1
  In  In19  1  0.17621451  0.34087376  0.48747640  1
  In  In20  1  0.50902662  0.18540376  0.32703674  1
  In  In21  1  0.31633941  0.50875924  0.82497197  1
  In  In22  1  0.81222259  0.68164737  0.81129041  1
  In  In23  1  -0.00718639  0.14320933  0.82914282  1
  In  In24  1  0.67064245  -0.00310028  0.34164660  1
  In  In25  1  0.82957347  0.51074914  0.64854454  1
  In  In26  1  0.82283291  0.15781648  0.30293386  1
  In  In27  1  0.16687237  0.34766616  0.16454777  1
  In  In28  1  0.16146531  0.31538394  0.81892034  1
  In  In29  1  0.17205929  0.82562930  0.33622071  1
  In  In30  1  0.65104444  0.85064659  0.82900048  1
  In  In31  1  -0.02685513  0.17583966  0.49538597  1
  In  In32  1  -0.00427715  0.65731685  0.66967411  1
  In  In33  1  -0.04378482  0.86019101  0.81132604  1
  In  In34  1  0.67994264  0.16786130  0.83696883  1
  In  In35  1  0.67134315  0.84086915  0.50158621  1
  In  In36  1  0.81298845  -0.01250891  0.16749095  1
  In  In37  1  0.33801393  0.68081695  0.67384417  1
  In  In38  1  0.34036577  0.00667386  0.31513974  1
  In  In39  1  0.32107957  0.50284645  0.50848036  1
  In  In40  1  0.64787769  0.49200263  0.85579251  1
  In  In41  1  0.01100529  -0.01879674  0.32389800  1
  In  In42  1  0.79804753  0.68089256  0.49415872  1
  In  In43  1  0.79037738  0.48533661  0.37718326  1
  In  In44  1  0.43884871  -0.00087270  0.74754904  1
  In  In45  1  0.47959813  0.50360978  0.68174189  1
  In  In46  1  0.50259357  0.83918309  0.00577613  1
  In  In47  1  0.17017925  0.15527655  -0.00384672  1
  In  In48  1  0.63997978  0.66697314  0.07535816  1
  In  In49  1  0.00833120  0.68126557  -0.02654085  1
  In  In50  1  -0.00611530  0.47778472  0.16162901  1
  In  In51  1  0.66573631  0.00668236  -0.01012445  1
  In  In52  1  0.53025243  0.53065361  0.37195900  1
  In  In53  1  0.83422852  0.32296636  0.15660675  1
  In  In54  1  0.01245131  0.34195907  0.31168068  1
  In  In55  1  0.34929534  0.35585462  0.02721248  1
  In  In56  1  0.78592482  0.15457982  0.65270711  1
  In  In57  1  0.31347677  0.18205412  0.48377318  1
  In  In58  1  0.49227778  0.31851341  0.51678075  1
  In  In59  1  0.14173171  0.16409457  0.67313675  1
  In  In60  1  0.83381481  0.66159789  0.17748507  1
  In  In61  1  0.18966260  0.82996434  -0.00327442  1
  In  In62  1  0.17225127  0.52057225  -0.00205816  1
  In  In63  1  0.65466480  0.48960716  0.19511390  1
  In  In64  1  -0.03092224  0.82503100  0.50339822  1
  In  In65  1  0.36129732  0.33353574  0.29381170  1
  In  In66  1  0.15955330  -0.00548907  0.48041556  1
  In  In67  1  0.17283762  0.49393333  0.33183453  1
  In  In68  1  0.15782504  0.67480961  0.53064745  1
  In  In69  1  0.54268679  0.79875825  0.32558417  1
  In  In70  1  0.50499281  0.29420908  0.85088769  1
  In  In71  1  0.34235142  0.82956256  0.17155138  1
  Te  Te72  1  0.09355925  0.06584566  0.08409188  1
  Te  Te73  1  0.08119160  0.10116058  0.40187785  1
  Te  Te74  1  0.06787044  0.04940485  0.73797065  1
  Te  Te75  1  0.08104577  0.41269056  0.05827524  1
  Te  Te76  1  0.07081277  0.42905890  0.42250067  1
  Te  Te77  1  0.08942016  0.42248572  0.75129254  1
  Te  Te78  1  0.10370286  0.73615670  0.07962160  1
  Te  Te79  1  0.06961964  0.74532175  0.41532142  1
  Te  Te80  1  0.06237296  0.76341600  0.75515908  1
  Te  Te81  1  0.46897545  0.11097174  0.03408867  1
  Te  Te82  1  0.41572845  0.09772496  0.40976324  1
  Te  Te83  1  0.46170692  0.13556946  0.79882070  1
  Te  Te84  1  0.45478791  0.41930346  0.10965536  1
  Te  Te85  1  0.39665742  0.39911716  0.42852572  1
  Te  Te86  1  0.41470497  0.38966147  0.75833281  1
  Te  Te87  1  0.42859961  0.73598624  0.08911239  1
  Te  Te88  1  0.44461487  0.76447765  0.43176394  1
  Te  Te89  1  0.44640047  0.76760167  0.73382561  1
  Te  Te90  1  0.75455539  0.09545126  0.07727710  1
  Te  Te91  1  0.74066775  0.10618943  0.41952890  1
  Te  Te92  1  0.76828804  0.06502362  0.77365085  1
  Te  Te93  1  0.75174729  0.42907892  0.08887530  1
  Te  Te94  1  0.72407488  0.37612681  0.45003794  1
  Te  Te95  1  0.75231932  0.42491172  0.75897781  1
  Te  Te96  1  0.75326456  0.75586797  0.09855714  1
  Te  Te97  1  0.75547878  0.78150183  0.39405877  1
  Te  Te98  1  0.70759001  0.75077397  0.73629797  1
  Te  Te99  1  0.05758520  0.23972871  0.20613177  1
  Te  Te100  1  0.07788582  0.25819520  0.57215293  1
  Te  Te101  1  0.07259178  0.23914609  0.91420689  1
  Te  Te102  1  0.08549758  0.57471759  0.23710940  1
  Te  Te103  1  0.07200987  0.56980696  0.58014915  1
  Te  Te104  1  0.08393893  0.58160791  0.89935892  1
  Te  Te105  1  0.11377871  0.91880543  0.23191998  1
  Te  Te106  1  0.07439845  0.91072881  0.57362958  1
  Te  Te107  1  0.07230834  0.89917518  0.91830368  1
  Te  Te108  1  0.42355029  0.22674955  0.21082018  1
  Te  Te109  1  0.41766946  0.21083279  0.59318732  1
  Te  Te110  1  0.40581990  0.24016724  0.94919857  1
  Te  Te111  1  0.43353548  0.57500240  0.27152178  1
  Te  Te112  1  0.41878430  0.59508520  0.57669619  1
  Te  Te113  1  0.42951436  0.55513111  0.91341437  1
  Te  Te114  1  0.44674810  0.90630676  0.25612448  1
  Te  Te115  1  0.41822492  0.96623270  0.60624370  1
  Te  Te116  1  0.43470012  0.92360662  0.90379689  1
  Te  Te117  1  0.72674198  0.25374025  0.23629803  1
  Te  Te118  1  0.77878572  0.27995898  0.56077112  1
  Te  Te119  1  0.72860059  0.26123739  0.94191791  1
  Te  Te120  1  0.74302341  0.58643419  0.27310397  1
  Te  Te121  1  0.72103162  0.57967800  0.57295095  1
  Te  Te122  1  0.74705323  0.58868524  0.91815652  1
  Te  Te123  1  0.75439268  0.89841885  0.27023105  1
  Te  Te124  1  0.75986011  0.89836055  0.61108673  1
  Te  Te125  1  0.75007997  0.91180573  0.91750828  1
  Te  Te126  1  0.25208278  0.25340162  0.08591243  1
  Te  Te127  1  0.23666512  0.25907377  0.36909678  1
  Te  Te128  1  0.25336176  0.20553468  0.76745053  1
  Te  Te129  1  0.27521327  0.57964428  0.08200662  1
  Te  Te130  1  0.24266789  0.59787275  0.41892862  1
  Te  Te131  1  0.23901838  0.59353988  0.73563468  1
  Te  Te132  1  0.28534621  0.91605532  0.06697751  1
  Te  Te133  1  0.26865819  0.91412242  0.41252297  1
  Te  Te134  1  0.25371553  0.92398676  0.74847191  1
  Te  Te135  1  0.53998772  0.28972856  0.11952086  1
  Te  Te136  1  0.59283657  0.26123335  0.42328145  1
  Te  Te137  1  0.60250902  0.25571569  0.73714027  1
  Te  Te138  1  0.56596319  0.53931611  0.08375542  1
  Te  Te139  1  0.61975162  0.62194290  0.44849952  1
  Te  Te140  1  0.58774400  0.58464402  0.74974805  1
  Te  Te141  1  0.59636466  0.91955260  0.09364398  1
  Te  Te142  1  0.57249619  0.94350585  0.44074091  1
  Te  Te143  1  0.58225122  0.94663045  0.73469593  1
  Te  Te144  1  0.94473891  0.25050247  0.10135131  1
  Te  Te145  1  0.90983498  0.25479003  0.38400087  1
  Te  Te146  1  0.90943940  0.23464847  0.73652694  1
  Te  Te147  1  0.92660676  0.59055542  0.07797526  1
  Te  Te148  1  0.89871394  0.58052517  0.43407019  1
  Te  Te149  1  0.90866751  0.57490840  0.76188542  1
  Te  Te150  1  0.91015448  0.91109432  0.07747186  1
  Te  Te151  1  0.90640237  0.93446554  0.42018345  1
  Te  Te152  1  0.85508330  0.93138604  0.73188634  1
  Te  Te153  1  0.27227964  0.07837392  0.20790790  1
  Te  Te154  1  0.23285890  0.08961001  0.57280261  1
  Te  Te155  1  0.26306538  0.05835039  0.93506701  1
  Te  Te156  1  0.27002461  0.43784849  0.23068266  1
  Te  Te157  1  0.24537417  0.41103694  0.60269366  1
  Te  Te158  1  0.25279362  0.40254713  0.91226647  1
  Te  Te159  1  0.25193576  0.73391487  0.24672078  1
  Te  Te160  1  0.26553386  0.77150536  0.57332753  1
  Te  Te161  1  0.24817628  0.73530624  0.89308410  1
  Te  Te162  1  0.59030757  0.07964085  0.24065883  1
  Te  Te163  1  0.64598244  0.11513012  0.60039514  1
  Te  Te164  1  0.56443596  0.08979480  0.91240376  1
  Te  Te165  1  0.58502255  0.41434617  0.30117655  1
  Te  Te166  1  0.56827087  0.43333630  0.58028201  1
  Te  Te167  1  0.60190797  0.37475043  0.93300396  1
  Te  Te168  1  0.60288197  0.73309600  0.21070231  1
  Te  Te169  1  0.57310507  0.73630953  0.53906519  1
  Te  Te170  1  0.58933107  0.73810178  0.93187727  1
  Te  Te171  1  0.92403108  0.06834328  0.23455409  1
  Te  Te172  1  0.91090497  0.07969651  0.58897128  1
  Te  Te173  1  0.89049321  0.08482200  0.91579326  1
  Te  Te174  1  0.89278632  0.43176144  0.26517970  1
  Te  Te175  1  0.90123997  0.40802201  0.56912759  1
  Te  Te176  1  0.92473321  0.39535051  0.91336979  1
  Te  Te177  1  0.92712299  0.75989164  0.25374277  1
  Te  Te178  1  0.89177826  0.74343990  0.60159607  1
  Te  Te179  1  0.89630665  0.76218786  0.91090606  1
