# generated using pymatgen
data_In2Te3
_symmetry_space_group_name_H-M   'P 1'
_cell_length_a   18.77068021
_cell_length_b   18.78088192
_cell_length_c   18.77673795
_cell_angle_alpha   89.98522592
_cell_angle_beta   90.02168781
_cell_angle_gamma   90.02477440
_symmetry_Int_Tables_number   1
_chemical_formula_structural   In2Te3
_chemical_formula_sum   'In72 Te108'
_cell_volume   6619.36077783
_cell_formula_units_Z   36
loop_
 _symmetry_equiv_pos_site_id
 _symmetry_equiv_pos_as_xyz
  1  'x, y, z'
loop_
 _atom_site_type_symbol
 _atom_site_label
 _atom_site_symmetry_multiplicity
 _atom_site_fract_x
 _atom_site_fract_y
 _atom_site_fract_z
 _atom_site_occupancy
  In  In0  1  0.63894118  0.16515362  0.84283197  1
  In  In1  1  0.31817899  0.32384299  0.65480337  1
  In  In2  1  0.50426189  0.50722832  -0.00389898  1
  In  In3  1  0.51941344  0.83890659  0.67268308  1
  In  In4  1  0.17940212  -0.00996514  0.47905696  1
  In  In5  1  0.86239292  0.30701217  0.47436066  1
  In  In6  1  0.82843907  0.34026323  0.82857945  1
  In  In7  1  0.00920874  0.85094850  0.17713876  1
  In  In8  1  0.65105264  0.86039088  0.49232288  1
  In  In9  1  0.00938875  0.49119947  0.49644102  1
  In  In10  1  0.14986552  0.47156550  0.32825082  1
  In  In11  1  0.68926913  0.49352768  0.15639993  1
  In  In12  1  0.65181746  0.32009964  0.32839018  1
  In  In13  1  0.49659261  0.70590151  0.16416249  1
  In  In14  1  0.32436902  0.47383012  0.86760004  1
  In  In15  1  0.34155559  0.66746945  0.02638466  1
  In  In16  1  0.17667542  0.48470346  0.65990729  1
  In  In17  1  0.17133781  0.00273906  0.83478906  1
  In  In18  1  0.34006226  0.47323646  0.50292139  1
  In  In19  1  0.67490364  0.16601166  0.47822055  1
  In  In20  1  0.64530200  0.16114620  0.18023626  1
  In  In21  1  0.00577658  0.33146179  0.65872858  1
  In  In22  1  0.50014210  0.34115308  0.82299648  1
  In  In23  1  0.81617028  -0.01589607  0.87080544  1
  In  In24  1  0.18749569  0.85252896  0.02727100  1
  In  In25  1  0.48527380  0.01425251  0.48652960  1
  In  In26  1  0.01220870  -0.00005587  0.64696797  1
  In  In27  1  0.83225507  0.85724296  0.32392949  1
  In  In28  1  0.15796450  0.16052800  0.02525210  1
  In  In29  1  -0.00547120  0.48853624  0.81740888  1
  In  In30  1  0.02305436  0.33910353  0.01468197  1
  In  In31  1  0.14879400  0.67080694  0.83357923  1
  In  In32  1  0.02558835  0.66696375  0.34021118  1
  In  In33  1  0.67258215  -0.01499389  0.67421372  1
  In  In34  1  0.48553250  0.49589283  0.34361267  1
  In  In35  1  0.50577598  0.17256136  0.01272613  1
  In  In36  1  -0.00071923  0.01574741  0.02681500  1
  In  In37  1  0.33792594  0.66951389  0.66431155  1
  In  In38  1  0.48354913  0.16309787  0.67668961  1
  In  In39  1  0.33067520  0.00522436  0.01830158  1
  In  In40  1  0.83654798  0.17054805  0.65957839  1
  In  In41  1  0.64518743  0.84481413  0.85062878  1
  In  In42  1  0.67188156  0.68951248  -0.01022183  1
  In  In43  1  0.33511481  0.86025554  0.84677527  1
  In  In44  1  -0.00527151  0.82010834  0.83720738  1
  In  In45  1  0.16425499  0.17803644  0.67022747  1
  In  In46  1  0.66352478  0.66755341  0.66762563  1
  In  In47  1  0.84221430  0.32334887  0.16101834  1
  In  In48  1  0.65012824  0.67494781  0.30908241  1
  In  In49  1  0.50327016  -0.02464016  0.16047742  1
  In  In50  1  0.33967776  0.68240298  0.34302054  1
  In  In51  1  0.31066431  0.17267331  0.46753795  1
  In  In52  1  0.66643000  0.49495171  0.50053780  1
  In  In53  1  0.30764065  0.49280811  0.17569806  1
  In  In54  1  0.33500735  0.00244426  0.69258555  1
  In  In55  1  0.32675663  0.84422119  0.47013332  1
  In  In56  1  0.00063249  0.01563001  0.33174864  1
  In  In57  1  -0.01428888  0.65948588  -0.00553621  1
  In  In58  1  0.51881848  0.50845886  0.65403567  1
  In  In59  1  0.82764242  0.67400119  0.13883690  1
  In  In60  1  0.84556044  0.17922848  0.00839592  1
  In  In61  1  0.67555157  0.50183431  0.82836912  1
  In  In62  1  0.83015360  0.67736881  0.51354664  1
  In  In63  1  0.85837772  0.81512227  0.66373408  1
  In  In64  1  0.83783136  0.00709940  0.16443412  1
  In  In65  1  0.31871184  0.31142004  0.01882296  1
  In  In66  1  0.84291403  0.65193665  0.83404031  1
  In  In67  1  0.86696380  0.46917176  0.30938893  1
  In  In68  1  0.18820611  0.66388623  0.17690574  1
  In  In69  1  0.16421549  0.66663775  0.48638732  1
  In  In70  1  0.84865130  0.02445841  0.47623298  1
  In  In71  1  0.47439920  0.30416041  0.18233366  1
  Te  Te72  1  0.10064842  0.06229282  0.12463427  1
  Te  Te73  1  0.09405958  0.09838158  0.41865645  1
  Te  Te74  1  0.07299983  0.08841108  0.75629760  1
  Te  Te75  1  0.08463646  0.41380747  0.12635123  1
  Te  Te76  1  0.05384282  0.38347606  0.40338283  1
  Te  Te77  1  0.10237473  0.39662856  0.75922568  1
  Te  Te78  1  0.08430679  0.74677767  0.08360635  1
  Te  Te79  1  0.11730973  0.76961516  0.39014691  1
  Te  Te80  1  0.07501934  0.75134419  0.73508148  1
  Te  Te81  1  0.41392451  0.09748540  0.10693685  1
  Te  Te82  1  0.39483302  0.07804180  0.38372758  1
  Te  Te83  1  0.41526077  0.08679839  0.78291200  1
  Te  Te84  1  0.41681855  0.41818633  0.08463202  1
  Te  Te85  1  0.40728562  0.38690199  0.40335525  1
  Te  Te86  1  0.40651163  0.42820161  0.73685601  1
  Te  Te87  1  0.41613366  0.78992827  0.06896388  1
  Te  Te88  1  0.43885720  0.76414130  0.41514650  1
  Te  Te89  1  0.41704455  0.76167422  0.75619541  1
  Te  Te90  1  0.74242509  0.09368382  0.08027356  1
  Te  Te91  1  0.74464643  0.07451203  0.38574530  1
  Te  Te92  1  0.75438572  0.08414373  0.75882923  1
  Te  Te93  1  0.76110977  0.40326907  0.06597303  1
  Te  Te94  1  0.75796814  0.41276241  0.40438625  1
  Te  Te95  1  0.74713566  0.41701817  0.73222478  1
  Te  Te96  1  0.71729823  0.77042165  0.10938708  1
  Te  Te97  1  0.74458681  0.75550251  0.41313509  1
  Te  Te98  1  0.74395795  0.76460343  0.75491000  1
  Te  Te99  1  0.07923858  0.21705537  0.30613284  1
  Te  Te100  1  0.08732683  0.24971554  0.56599950  1
  Te  Te101  1  0.08740932  0.24244377  0.92337419  1
  Te  Te102  1  0.08000892  0.57167932  0.23467819  1
  Te  Te103  1  0.08537651  0.58499798  0.59042150  1
  Te  Te104  1  0.08095905  0.56592922  0.91990873  1
  Te  Te105  1  0.10251897  0.94192726  0.24798275  1
  Te  Te106  1  0.09644254  0.90730612  0.57089649  1
  Te  Te107  1  0.08213951  0.91654259  0.92885207  1
  Te  Te108  1  0.40258937  0.20555247  0.26392856  1
  Te  Te109  1  0.41101410  0.23998393  0.56743205  1
  Te  Te110  1  0.41730249  0.25189308  0.91467560  1
  Te  Te111  1  0.41461833  0.58834995  0.23606097  1
  Te  Te112  1  0.42050751  0.58804112  0.56548314  1
  Te  Te113  1  0.41112579  0.59268515  0.91089634  1
  Te  Te114  1  0.38430881  0.90698772  0.22346266  1
  Te  Te115  1  0.41631518  0.91762907  0.58750496  1
  Te  Te116  1  0.42799222  0.91028940  0.95264046  1
  Te  Te117  1  0.75667085  0.23811105  0.25565167  1
  Te  Te118  1  0.75074744  0.26005369  0.57165523  1
  Te  Te119  1  0.74302298  0.24910524  0.91786260  1
  Te  Te120  1  0.76252184  0.58035336  0.26048139  1
  Te  Te121  1  0.75849596  0.57176496  0.59783310  1
  Te  Te122  1  0.75785375  0.57584574  0.93450334  1
  Te  Te123  1  0.73539861  0.92401310  0.23571422  1
  Te  Te124  1  0.76859296  0.91803766  0.57533271  1
  Te  Te125  1  0.71621402  0.92001877  0.96228883  1
  Te  Te126  1  0.22826247  0.25305129  0.12559549  1
  Te  Te127  1  0.22130633  0.24509915  0.36981891  1
  Te  Te128  1  0.26014632  0.24255358  0.76210185  1
  Te  Te129  1  0.23345303  0.56771226  0.06500101  1
  Te  Te130  1  0.25136829  0.56737610  0.40714888  1
  Te  Te131  1  0.25328668  0.57822318  0.75636904  1
  Te  Te132  1  0.25829670  0.93530646  0.13305012  1
  Te  Te133  1  0.27884747  0.94844861  0.37357887  1
  Te  Te134  1  0.23137835  0.89992705  0.73963303  1
  Te  Te135  1  0.59132086  0.27308981  0.08938133  1
  Te  Te136  1  0.56383994  0.23964721  0.41385181  1
  Te  Te137  1  0.59118092  0.25899722  0.73138856  1
  Te  Te138  1  0.58601738  0.59351914  0.09367916  1
  Te  Te139  1  0.58005303  0.59080340  0.41702694  1
  Te  Te140  1  0.57227472  0.59716543  0.76710328  1
  Te  Te141  1  0.61631103  0.90530785  0.09142910  1
  Te  Te142  1  0.57383156  0.93787882  0.39242581  1
  Te  Te143  1  0.56163057  0.94714499  0.77206831  1
  Te  Te144  1  0.95161322  0.23005164  0.10298413  1
  Te  Te145  1  0.93608655  0.23649751  0.36578139  1
  Te  Te146  1  0.92597012  0.24549876  0.75788574  1
  Te  Te147  1  0.91347658  0.56832085  0.08563024  1
  Te  Te148  1  0.91598483  0.58478061  0.41348409  1
  Te  Te149  1  0.92678025  0.58899441  0.73237182  1
  Te  Te150  1  0.90834479  0.90277823  0.07540130  1
  Te  Te151  1  0.93502463  0.90942108  0.42343703  1
  Te  Te152  1  0.90961867  0.92884593  0.75371771  1
  Te  Te153  1  0.25558148  0.15247410  0.24183134  1
  Te  Te154  1  0.26056221  0.08114594  0.58449887  1
  Te  Te155  1  0.25466120  0.09464623  0.92134029  1
  Te  Te156  1  0.25736225  0.38707396  0.26604619  1
  Te  Te157  1  0.22264914  0.38775784  0.55190020  1
  Te  Te158  1  0.22378363  0.39308809  0.93744178  1
  Te  Te159  1  0.27032249  0.76886687  0.24188745  1
  Te  Te160  1  0.25185168  0.75686581  0.57457543  1
  Te  Te161  1  0.24602387  0.75121821  0.92185554  1
  Te  Te162  1  0.56524635  0.06813785  0.26249499  1
  Te  Te163  1  0.58849323  0.07886030  0.58752823  1
  Te  Te164  1  0.58075033  0.06918610  0.93729800  1
  Te  Te165  1  0.57826226  0.42434624  0.24013285  1
  Te  Te166  1  0.56985835  0.40396013  0.56453234  1
  Te  Te167  1  0.59426152  0.40957730  0.92197469  1
  Te  Te168  1  0.56254802  0.78798923  0.26938424  1
  Te  Te169  1  0.57943169  0.74559983  0.56766760  1
  Te  Te170  1  0.55664103  0.74831915  0.91949465  1
  Te  Te171  1  0.91007942  0.10444669  0.25263299  1
  Te  Te172  1  0.93938385  0.10822203  0.56533872  1
  Te  Te173  1  0.92228224  0.08528135  0.91432970  1
  Te  Te174  1  0.96555261  0.39177886  0.22288678  1
  Te  Te175  1  0.90616129  0.41360882  0.57828256  1
  Te  Te176  1  0.91692393  0.41605443  0.92629987  1
  Te  Te177  1  0.91737213  0.74578762  0.25105057  1
  Te  Te178  1  0.94628207  0.75434549  0.56250570  1
  Te  Te179  1  0.88883177  0.76116296  0.93061349  1
