# generated using pymatgen
data_In2Te3
_symmetry_space_group_name_H-M   'P 1'
_cell_length_a   19.01881653
_cell_length_b   18.98435814
_cell_length_c   19.02262983
_cell_angle_alpha   90.01844325
_cell_angle_beta   89.87452442
_cell_angle_gamma   89.95294902
_symmetry_Int_Tables_number   1
_chemical_formula_structural   In2Te3
_chemical_formula_sum   'In72 Te108'
_cell_volume   6868.29204343
_cell_formula_units_Z   36
loop_
 _symmetry_equiv_pos_site_id
 _symmetry_equiv_pos_as_xyz
  1  'x, y, z'
loop_
 _atom_site_type_symbol
 _atom_site_label
 _atom_site_symmetry_multiplicity
 _atom_site_fract_x
 _atom_site_fract_y
 _atom_site_fract_z
 _atom_site_occupancy
  In  In0  1  0.67254616  0.83920810  0.48918954  1
  In  In1  1  0.82593577  0.50431418  0.66519114  1
  In  In2  1  0.68111115  0.66855177  0.65827735  1
  In  In3  1  0.67834787  0.50429133  0.15633243  1
  In  In4  1  0.65922298  0.16611409  0.17579346  1
  In  In5  1  0.47217875  0.17956571  0.01718962  1
  In  In6  1  0.83493421  0.30142693  0.51260562  1
  In  In7  1  0.68303394  0.81405343  0.80792094  1
  In  In8  1  0.33454301  0.50285294  0.19210566  1
  In  In9  1  0.84784023  -0.00318110  0.48832188  1
  In  In10  1  0.14346807  0.82095655  0.32011542  1
  In  In11  1  0.68407236  0.13914110  0.52297084  1
  In  In12  1  0.50884796  0.37051158  0.16825412  1
  In  In13  1  -0.00755080  0.52555736  0.49044631  1
  In  In14  1  0.65797397  0.82691515  0.20290971  1
  In  In15  1  0.84766415  0.33485978  0.82134395  1
  In  In16  1  0.48094902  0.49800556  -0.00908212  1
  In  In17  1  0.16415364  0.15885204  -0.00796243  1
  In  In18  1  0.14119326  0.17148937  0.31203600  1
  In  In19  1  0.83314753  0.51681114  0.34451863  1
  In  In20  1  0.33269097  0.15578198  0.82265226  1
  In  In21  1  0.30397071  0.71518620  -0.00551936  1
  In  In22  1  0.00222753  0.30984059  0.67235916  1
  In  In23  1  0.50224274  0.16317622  0.66091406  1
  In  In24  1  0.83631373  0.51131138  0.01062259  1
  In  In25  1  0.85623011  0.19325418  0.00644292  1
  In  In26  1  0.02687018  0.53002911  0.84549493  1
  In  In27  1  0.16134123  0.35735772  0.50704644  1
  In  In28  1  0.33989750  0.54016701  0.50765674  1
  In  In29  1  0.30959913  0.13689648  0.50039212  1
  In  In30  1  0.50492294  0.33584489  0.52662701  1
  In  In31  1  0.00739394  0.12956853  0.84732810  1
  In  In32  1  0.83310117  0.83686562  0.33442984  1
  In  In33  1  0.16573222  0.83161375  0.68448505  1
  In  In34  1  0.68015688  0.30087550  0.34492396  1
  In  In35  1  0.15944132  0.53748595  -0.00864277  1
  In  In36  1  0.86088304  0.00785278  0.16141815  1
  In  In37  1  0.32361415  0.17482880  0.16845678  1
  In  In38  1  -0.01565185  0.34108999  0.03792961  1
  In  In39  1  0.49743319  0.82756068  0.35961688  1
  In  In40  1  0.15392388  0.67066154  0.49722791  1
  In  In41  1  -0.00573438  0.53101998  0.17045972  1
  In  In42  1  0.17504038  -0.06262951  0.13817292  1
  In  In43  1  0.65718253  -0.00376871  0.00423500  1
  In  In44  1  0.82037049  0.66800839  0.83903198  1
  In  In45  1  0.01331309  -0.01698308  -0.00081484  1
  In  In46  1  0.49507534  0.00400449  0.83035439  1
  In  In47  1  0.82021088  0.85438972  -0.00413522  1
  In  In48  1  0.00723664  0.02059420  0.66735626  1
  In  In49  1  0.00930330  0.85942861  0.82655341  1
  In  In50  1  0.47167206  0.01871748  0.16105507  1
  In  In51  1  0.16540146  0.31239679  0.83042676  1
  In  In52  1  0.48467498  0.53509701  0.32849860  1
  In  In53  1  0.68335913  0.12865686  0.71630504  1
  In  In54  1  0.87054554  0.15666270  0.32533062  1
  In  In55  1  0.66584648  0.36215658  -0.02238210  1
  In  In56  1  0.31313440  0.29890210  -0.01993930  1
  In  In57  1  0.16150746  -0.02023114  0.51718665  1
  In  In58  1  0.52412493  0.65270560  0.83436167  1
  In  In59  1  0.19396529  0.49642356  0.66231229  1
  In  In60  1  0.48781958  0.84442166  0.65584346  1
  In  In61  1  0.63801500  0.66226440  0.01865879  1
  In  In62  1  0.15914308  0.69677985  0.15300936  1
  In  In63  1  0.45846555  0.85429076  -0.00296117  1
  In  In64  1  0.63993600  0.50344398  0.49088160  1
  In  In65  1  0.32862601  0.34500037  0.33968229  1
  In  In66  1  0.02278596  0.19061300  0.49013142  1
  In  In67  1  0.46772278  0.15768667  0.35374820  1
  In  In68  1  0.33845464  0.49812581  0.82100295  1
  In  In69  1  0.33479726  -0.01957614  0.34787515  1
  In  In70  1  0.34173473  0.66837231  0.67468807  1
  In  In71  1  0.83704448  0.67075781  0.17955588  1
  Te  Te72  1  0.09863937  0.06701586  0.08974711  1
  Te  Te73  1  0.09222682  0.07718317  0.42048989  1
  Te  Te74  1  0.11113362  0.06874207  0.76254065  1
  Te  Te75  1  0.08563851  0.43909736  0.08388035  1
  Te  Te76  1  0.07302478  0.42644376  0.41536382  1
  Te  Te77  1  0.08032257  0.41688298  0.74893886  1
  Te  Te78  1  0.11550417  0.81485404  0.07274666  1
  Te  Te79  1  0.06304920  0.76917540  0.43396822  1
  Te  Te80  1  0.05347455  0.75225418  0.73643361  1
  Te  Te81  1  0.36795325  0.07251280  0.05571218  1
  Te  Te82  1  0.42442535  0.04979728  0.44900104  1
  Te  Te83  1  0.40549947  0.06402458  0.72482727  1
  Te  Te84  1  0.39734601  0.39638705  0.06984818  1
  Te  Te85  1  0.44130204  0.41378751  0.40949647  1
  Te  Te86  1  0.44195931  0.40467007  0.78728206  1
  Te  Te87  1  0.41896261  0.74192630  0.07970126  1
  Te  Te88  1  0.41467932  0.76265167  0.46257821  1
  Te  Te89  1  0.43342303  0.75067444  0.76234670  1
  Te  Te90  1  0.74984425  0.08934848  0.07999314  1
  Te  Te91  1  0.75893315  0.08673279  0.40318729  1
  Te  Te92  1  0.78175712  0.01978959  0.70227738  1
  Te  Te93  1  0.76458415  0.40114757  0.08624401  1
  Te  Te94  1  0.75562984  0.40119688  0.42956960  1
  Te  Te95  1  0.75002945  0.42163033  0.75832226  1
  Te  Te96  1  0.74131819  0.75565957  0.08387429  1
  Te  Te97  1  0.74992859  0.74350136  0.40973612  1
  Te  Te98  1  0.78940275  0.75714864  0.71643025  1
  Te  Te99  1  0.04711357  0.25215761  0.23755026  1
  Te  Te100  1  0.11531394  0.24389378  0.59765491  1
  Te  Te101  1  0.05940042  0.25741356  0.92444889  1
  Te  Te102  1  0.09729349  0.60229265  0.24475596  1
  Te  Te103  1  0.08719688  0.57935020  0.60027277  1
  Te  Te104  1  0.07292735  0.63808983  0.93159743  1
  Te  Te105  1  0.07765798  0.93484745  0.25138396  1
  Te  Te106  1  0.06024495  0.89900248  0.59511865  1
  Te  Te107  1  0.11484796  0.89558026  0.92734375  1
  Te  Te108  1  0.43422262  0.25585361  0.24132393  1
  Te  Te109  1  0.40320316  0.23700098  0.57391419  1
  Te  Te110  1  0.42815561  0.25435799  0.89282393  1
  Te  Te111  1  0.36988762  0.61303126  0.28160189  1
  Te  Te112  1  0.43090469  0.56687886  0.61641065  1
  Te  Te113  1  0.40278746  0.60531587  0.91747223  1
  Te  Te114  1  0.41761687  0.90855018  0.24567926  1
  Te  Te115  1  0.38184779  0.87002916  0.55701808  1
  Te  Te116  1  0.38419332  0.92111832  0.88882030  1
  Te  Te117  1  0.77181794  0.24222226  0.24076707  1
  Te  Te118  1  0.74938218  0.23650197  0.61670737  1
  Te  Te119  1  0.75295598  0.25465921  0.91402182  1
  Te  Te120  1  0.73344427  0.59764190  0.26132742  1
  Te  Te121  1  0.75956412  0.58460313  0.55404957  1
  Te  Te122  1  0.73124954  0.58205005  0.92811632  1
  Te  Te123  1  0.75211100  0.93559513  0.24124713  1
  Te  Te124  1  0.75762255  0.92224677  0.58255557  1
  Te  Te125  1  0.73744712  0.93034541  0.89605546  1
  Te  Te126  1  0.22187438  0.25743367  0.09399475  1
  Te  Te127  1  0.24207076  0.24502279  0.41145773  1
  Te  Te128  1  0.26441289  0.25782266  0.74063953  1
  Te  Te129  1  0.26592740  0.58918687  0.08377991  1
  Te  Te130  1  0.23016360  0.57083301  0.41881596  1
  Te  Te131  1  0.23843748  0.59699948  0.76520522  1
  Te  Te132  1  0.30344828  0.93116218  0.06717131  1
  Te  Te133  1  0.23803926  0.89304207  0.42074081  1
  Te  Te134  1  0.27499144  0.87831242  0.77172456  1
  Te  Te135  1  0.58807303  0.26457695  0.08001188  1
  Te  Te136  1  0.58121171  0.22891315  0.43448602  1
  Te  Te137  1  0.59055615  0.23320113  0.75437165  1
  Te  Te138  1  0.55229079  0.57166895  0.10483794  1
  Te  Te139  1  0.56315973  0.60857749  0.42598678  1
  Te  Te140  1  0.60295713  0.57514939  0.73998062  1
  Te  Te141  1  0.57156767  0.91397033  0.09551774  1
  Te  Te142  1  0.59088917  0.92905519  0.40705225  1
  Te  Te143  1  0.58669700  0.91512310  0.74841105  1
  Te  Te144  1  0.95333952  0.21811949  0.11823689  1
  Te  Te145  1  0.93309578  0.27276304  0.40046423  1
  Te  Te146  1  0.91876084  0.21709235  0.75671013  1
  Te  Te147  1  0.92431994  0.61921712  0.06609493  1
  Te  Te148  1  0.93961812  0.62142582  0.37526832  1
  Te  Te149  1  0.91739593  0.58586164  0.75636210  1
  Te  Te150  1  0.92944357  0.89298186  0.09202356  1
  Te  Te151  1  0.93300283  0.89130833  0.43019394  1
  Te  Te152  1  0.90948253  0.94692078  0.75548627  1
  Te  Te153  1  0.25620418  0.08054854  0.26298357  1
  Te  Te154  1  0.24955707  0.05579132  0.60556904  1
  Te  Te155  1  0.22554610  0.07509949  0.88709751  1
  Te  Te156  1  0.23861033  0.40656650  0.24442073  1
  Te  Te157  1  0.28336174  0.41254112  0.57682291  1
  Te  Te158  1  0.23645948  0.41961939  0.91836613  1
  Te  Te159  1  0.25509566  0.75927248  0.24544513  1
  Te  Te160  1  0.25245815  0.74965644  0.58260534  1
  Te  Te161  1  0.23312815  0.78060322  0.88439007  1
  Te  Te162  1  0.56664937  0.08311600  0.25999278  1
  Te  Te163  1  0.58990814  0.05612780  0.60092293  1
  Te  Te164  1  0.56580605  0.09154734  0.93170496  1
  Te  Te165  1  0.61260035  0.41499751  0.26639281  1
  Te  Te166  1  0.60410022  0.41234901  0.59923427  1
  Te  Te167  1  0.56190009  0.42405666  0.88907249  1
  Te  Te168  1  0.56214394  0.73648279  0.26155383  1
  Te  Te169  1  0.58405460  0.75442090  0.58072495  1
  Te  Te170  1  0.58788646  0.76765233  0.92181971  1
  Te  Te171  1  0.95275493  0.04597272  0.27027729  1
  Te  Te172  1  0.92802889  0.10104856  0.56666105  1
  Te  Te173  1  0.90334577  0.06693541  0.93544865  1
  Te  Te174  1  0.89976351  0.44072987  0.23917276  1
  Te  Te175  1  0.92102388  0.40416054  0.58698676  1
  Te  Te176  1  0.92678391  0.42960710  0.91926179  1
  Te  Te177  1  0.92944215  0.75247724  0.25682940  1
  Te  Te178  1  0.91000774  0.64893058  0.51974601  1
  Te  Te179  1  0.90769402  0.77047088  0.90673674  1
