# generated using pymatgen
data_In2Te3
_symmetry_space_group_name_H-M   'P 1'
_cell_length_a   18.98699016
_cell_length_b   18.96796371
_cell_length_c   18.99530160
_cell_angle_alpha   90.07278831
_cell_angle_beta   89.76688619
_cell_angle_gamma   90.18380254
_symmetry_Int_Tables_number   1
_chemical_formula_structural   In2Te3
_chemical_formula_sum   'In72 Te108'
_cell_volume   6840.95693363
_cell_formula_units_Z   36
loop_
 _symmetry_equiv_pos_site_id
 _symmetry_equiv_pos_as_xyz
  1  'x, y, z'
loop_
 _atom_site_type_symbol
 _atom_site_label
 _atom_site_symmetry_multiplicity
 _atom_site_fract_x
 _atom_site_fract_y
 _atom_site_fract_z
 _atom_site_occupancy
  In  In0  1  0.67615550  0.17355426  0.82268312  1
  In  In1  1  0.83518901  0.34910312  0.15262358  1
  In  In2  1  0.33523355  0.82498687  0.19493152  1
  In  In3  1  0.03278779  0.18182686  0.18230517  1
  In  In4  1  0.33707180  0.00607249  0.34974224  1
  In  In5  1  0.16349682  0.68561266  0.84523025  1
  In  In6  1  0.15426613  0.35248816  0.83375047  1
  In  In7  1  0.19569009  0.63225893  0.20939736  1
  In  In8  1  0.69805129  0.65526764  0.32293733  1
  In  In9  1  0.64172470  0.04952755  0.63689112  1
  In  In10  1  0.82122270  0.23320906  0.69837710  1
  In  In11  1  0.83305609  0.86272490  0.66036319  1
  In  In12  1  -0.02038887  0.65708757  0.33281493  1
  In  In13  1  0.65711399  0.83875308  0.17157465  1
  In  In14  1  0.35377211  0.50054351  0.82914122  1
  In  In15  1  0.48070076  0.04088309  0.18940812  1
  In  In16  1  0.30812260  0.84989103  0.84991838  1
  In  In17  1  0.17311194  0.82026347  0.63895394  1
  In  In18  1  0.00278884  0.84971161  0.16959018  1
  In  In19  1  0.51982678  0.66748508  0.81391861  1
  In  In20  1  -0.01685959  0.79699891  0.49475493  1
  In  In21  1  0.66106904  0.65775946  0.68188689  1
  In  In22  1  0.65755681  0.03748432  -0.01704373  1
  In  In23  1  0.52045830  0.22438059  0.38363422  1
  In  In24  1  0.65924924  0.48408909  0.48652966  1
  In  In25  1  -0.06988034  0.04910258  -0.01124132  1
  In  In26  1  0.50350374  0.33262709  0.82753168  1
  In  In27  1  0.79745804  0.50331296  -0.01759043  1
  In  In28  1  0.48817561  0.64916218  0.18043478  1
  In  In29  1  0.63898591  0.83695231  0.46707288  1
  In  In30  1  0.51477044  0.49656692  -0.00377811  1
  In  In31  1  0.83964800  0.45821958  0.64329723  1
  In  In32  1  -0.02097984  0.48100874  0.83462061  1
  In  In33  1  0.01137941  0.50344276  0.18078285  1
  In  In34  1  0.17053248  0.00623539  0.50656515  1
  In  In35  1  0.36957180  0.81094940  0.49741923  1
  In  In36  1  0.66081381  0.86830475  0.82778579  1
  In  In37  1  0.81178798  0.02832706  0.50475993  1
  In  In38  1  0.00463988  -0.00807606  0.34222652  1
  In  In39  1  0.80499432  0.65967910  0.13471019  1
  In  In40  1  0.13436164  0.18891578  0.65154283  1
  In  In41  1  0.49326528  0.62388929  0.48882102  1
  In  In42  1  0.14245492  0.82435982  0.01042632  1
  In  In43  1  0.38133512  0.41551536  0.46489430  1
  In  In44  1  0.21940748  0.18708866  0.35446345  1
  In  In45  1  0.52852894  0.49064734  0.69258454  1
  In  In46  1  0.83391271  -0.00372213  0.13853700  1
  In  In47  1  0.86084577  0.46439973  0.37371781  1
  In  In48  1  0.63614102  0.20061665  0.16217941  1
  In  In49  1  0.33433204  0.34188602  0.02525127  1
  In  In50  1  0.21584010  0.34802441  0.20270552  1
  In  In51  1  0.15676892  0.51924779  0.02218051  1
  In  In52  1  0.19366421  0.00617384  0.81438979  1
  In  In53  1  -0.01917909  0.17851676  0.50360831  1
  In  In54  1  0.66737040  0.31626305  0.63381012  1
  In  In55  1  0.81097180  0.13964650  0.33032737  1
  In  In56  1  -0.01690493  0.82748900  0.84951444  1
  In  In57  1  0.49937313  0.85620661  0.00802557  1
  In  In58  1  0.81147379  0.82655293  0.33302960  1
  In  In59  1  -0.00948129  0.34343173  -0.00174652  1
  In  In60  1  0.35185634  0.01223583  0.02533936  1
  In  In61  1  0.51283079  0.83485844  0.67032298  1
  In  In62  1  -0.02233153  0.68761801  0.01026522  1
  In  In63  1  0.18235089  0.47492755  0.64684692  1
  In  In64  1  0.32211642  0.67435801  0.66369717  1
  In  In65  1  0.30733563  0.16483308  0.83008838  1
  In  In66  1  0.01753706  -0.00477998  0.69628139  1
  In  In67  1  0.63750565  0.48847930  0.18255354  1
  In  In68  1  0.36001321  0.17837588  0.19409747  1
  In  In69  1  0.36840497  0.02895638  0.63143153  1
  In  In70  1  0.00916371  0.62490485  0.66062445  1
  In  In71  1  0.14497613  -0.00099881  0.15382582  1
  Te  Te72  1  0.06252292  0.08468173  0.06535802  1
  Te  Te73  1  0.10069474  0.09267056  0.40370266  1
  Te  Te74  1  0.08477603  0.10545189  0.77341945  1
  Te  Te75  1  0.10225317  0.40419425  0.10414408  1
  Te  Te76  1  -0.03448632  0.45439288  0.48325781  1
  Te  Te77  1  0.06549394  0.41506748  0.72897552  1
  Te  Te78  1  0.08671795  0.72742098  0.11411332  1
  Te  Te79  1  0.07774657  0.74649653  0.39771792  1
  Te  Te80  1  0.08025940  0.75986053  0.74310714  1
  Te  Te81  1  0.44376677  0.13087658  0.06558739  1
  Te  Te82  1  0.42543667  0.09830930  0.42449841  1
  Te  Te83  1  0.41270601  0.10333023  0.74806660  1
  Te  Te84  1  0.43160143  0.42544492  0.10044467  1
  Te  Te85  1  0.49939453  0.38709428  0.36997066  1
  Te  Te86  1  0.40804896  0.40216174  0.73057529  1
  Te  Te87  1  0.42221770  0.75614907  0.09135783  1
  Te  Te88  1  0.41839782  0.71282155  0.39840805  1
  Te  Te89  1  0.40320887  0.76260522  0.75896224  1
  Te  Te90  1  0.74034712  0.10544852  0.08996574  1
  Te  Te91  1  0.70927352  0.06555739  0.40800258  1
  Te  Te92  1  0.75639099  0.09237459  0.72350234  1
  Te  Te93  1  0.72162991  0.41234183  0.07698360  1
  Te  Te94  1  0.73442270  0.38751676  0.40178741  1
  Te  Te95  1  0.75953306  0.37303017  0.74010083  1
  Te  Te96  1  0.73991083  0.77165354  0.07102409  1
  Te  Te97  1  0.75014563  0.73824390  0.44084951  1
  Te  Te98  1  0.74197130  0.76993075  0.74343152  1
  Te  Te99  1  0.11226671  0.26817176  0.28183593  1
  Te  Te100  1  0.08072993  0.27784822  0.54683464  1
  Te  Te101  1  0.09145716  0.26309167  0.93049480  1
  Te  Te102  1  0.09316736  0.55801103  0.29474036  1
  Te  Te103  1  0.10109467  0.56578288  0.56352609  1
  Te  Te104  1  0.06902672  0.58454141  0.91074973  1
  Te  Te105  1  0.10530630  0.90539623  0.26676827  1
  Te  Te106  1  0.06738965  0.91267599  0.57184567  1
  Te  Te107  1  0.09930416  0.91342499  0.89819038  1
  Te  Te108  1  0.42454023  0.28607895  0.27547898  1
  Te  Te109  1  0.43630023  0.22449508  0.51538905  1
  Te  Te110  1  0.39251799  0.26564752  0.90837388  1
  Te  Te111  1  0.40841315  0.53213328  0.22610446  1
  Te  Te112  1  0.42610689  0.57719589  0.61674290  1
  Te  Te113  1  0.42886517  0.59774395  0.91460181  1
  Te  Te114  1  0.43730934  0.91245697  0.26876160  1
  Te  Te115  1  0.45108779  0.92157311  0.56231155  1
  Te  Te116  1  0.41676668  0.93725595  0.90863576  1
  Te  Te117  1  0.75785814  0.25017057  0.23832296  1
  Te  Te118  1  0.76001205  0.22790536  0.55414877  1
  Te  Te119  1  0.75432578  0.20942326  0.94343498  1
  Te  Te120  1  0.77052679  0.55462745  0.23792551  1
  Te  Te121  1  0.73674034  0.55941783  0.59197698  1
  Te  Te122  1  0.73114296  0.60172214  0.90228087  1
  Te  Te123  1  0.74722305  0.93350058  0.24943544  1
  Te  Te124  1  0.71892911  0.92112454  0.57675135  1
  Te  Te125  1  0.74590638  0.93635176  0.92561548  1
  Te  Te126  1  0.25335886  0.23907215  0.10287367  1
  Te  Te127  1  0.29020465  0.28762356  0.43611559  1
  Te  Te128  1  0.23423476  0.26285064  0.74061576  1
  Te  Te129  1  0.26934010  0.57488562  0.09666550  1
  Te  Te130  1  0.30820451  0.53103147  0.41489000  1
  Te  Te131  1  0.23704173  0.58513225  0.75658811  1
  Te  Te132  1  0.25364802  0.90647355  0.08733062  1
  Te  Te133  1  0.26262480  0.90862001  0.43726285  1
  Te  Te134  1  0.26457149  0.91916415  0.70990833  1
  Te  Te135  1  0.52859897  0.25844925  0.08326746  1
  Te  Te136  1  0.66272068  0.24810462  0.43966995  1
  Te  Te137  1  0.57453260  0.24246891  0.72888036  1
  Te  Te138  1  0.59371187  0.59625309  0.08484819  1
  Te  Te139  1  0.58700282  0.56730155  0.38269986  1
  Te  Te140  1  0.62715824  0.55452970  0.79728556  1
  Te  Te141  1  0.57385360  0.94958906  0.10160492  1
  Te  Te142  1  0.55148863  0.90331288  0.37573212  1
  Te  Te143  1  0.57353897  0.95378642  0.73979199  1
  Te  Te144  1  0.92607344  0.24346439  0.09287113  1
  Te  Te145  1  0.90891264  0.23062672  0.38886789  1
  Te  Te146  1  0.94780060  0.22930491  0.77030997  1
  Te  Te147  1  0.92071568  0.56042035  0.07346167  1
  Te  Te148  1  0.89875490  0.59542867  0.44094538  1
  Te  Te149  1  0.89583040  0.56585944  0.74186871  1
  Te  Te150  1  0.92626709  0.90817897  0.05514378  1
  Te  Te151  1  0.89974804  0.91638027  0.42386766  1
  Te  Te152  1  0.90358741  0.93363544  0.77580396  1
  Te  Te153  1  0.25023555  0.07480736  0.24166255  1
  Te  Te154  1  0.24887442  0.10865475  0.58254698  1
  Te  Te155  1  0.24541028  0.07767495  0.94018590  1
  Te  Te156  1  0.28726781  0.45209906  0.28500558  1
  Te  Te157  1  0.26787937  0.38437220  0.56566998  1
  Te  Te158  1  0.25356820  0.43650237  0.92492643  1
  Te  Te159  1  0.27468332  0.72864142  0.28829920  1
  Te  Te160  1  0.24549091  0.72631115  0.54620105  1
  Te  Te161  1  0.25868489  0.74201995  0.94562218  1
  Te  Te162  1  0.57454032  0.11906491  0.27396618  1
  Te  Te163  1  0.54475085  0.11849102  0.54910098  1
  Te  Te164  1  0.56571588  0.11001253  0.89762610  1
  Te  Te165  1  0.57779564  0.36318910  0.23887200  1
  Te  Te166  1  0.56128973  0.40516544  0.57249670  1
  Te  Te167  1  0.59447868  0.39907976  0.92023319  1
  Te  Te168  1  0.58834470  0.73775190  0.25890224  1
  Te  Te169  1  0.57573425  0.73003809  0.57861324  1
  Te  Te170  1  0.57884890  0.76914794  0.91031222  1
  Te  Te171  1  0.93263987  0.07073498  0.23576274  1
  Te  Te172  1  0.93057602  0.06611803  0.58959092  1
  Te  Te173  1  0.88776426  0.15813566  0.89212956  1
  Te  Te174  1  0.93513443  0.39718298  0.25802016  1
  Te  Te175  1  0.91743636  0.34931584  0.57744057  1
  Te  Te176  1  0.87995233  0.39573209  0.90988239  1
  Te  Te177  1  0.89947130  0.75204950  0.23257983  1
  Te  Te178  1  0.91490702  0.74192212  0.61541156  1
  Te  Te179  1  0.88752568  0.73091226  0.90529409  1
