# generated using pymatgen
data_In2Te3
_symmetry_space_group_name_H-M   'P 1'
_cell_length_a   18.84062152
_cell_length_b   18.84316986
_cell_length_c   18.83546037
_cell_angle_alpha   89.98203501
_cell_angle_beta   89.93452074
_cell_angle_gamma   90.14540967
_symmetry_Int_Tables_number   1
_chemical_formula_structural   In2Te3
_chemical_formula_sum   'In72 Te108'
_cell_volume   6686.88298955
_cell_formula_units_Z   36
loop_
 _symmetry_equiv_pos_site_id
 _symmetry_equiv_pos_as_xyz
  1  'x, y, z'
loop_
 _atom_site_type_symbol
 _atom_site_label
 _atom_site_symmetry_multiplicity
 _atom_site_fract_x
 _atom_site_fract_y
 _atom_site_fract_z
 _atom_site_occupancy
  In  In0  1  0.65957381  0.17028839  0.85592264  1
  In  In1  1  0.48262710  0.81745279  0.31573369  1
  In  In2  1  0.66501373  0.34675967  0.64863300  1
  In  In3  1  0.48990459  0.01384638  0.85030013  1
  In  In4  1  0.30812692  0.03010007  0.31209719  1
  In  In5  1  0.35580545  0.31273024  0.33279443  1
  In  In6  1  0.84971611  0.00110179  0.83401077  1
  In  In7  1  -0.00184154  0.50397904  0.14688133  1
  In  In8  1  0.82671318  0.19223075  0.66916201  1
  In  In9  1  0.15953893  0.84279532  0.67610477  1
  In  In10  1  0.68795033  0.63237117  0.64008885  1
  In  In11  1  0.49822049  0.83909517  0.66563859  1
  In  In12  1  0.01954973  0.15714507  0.84041996  1
  In  In13  1  0.83032671  0.83492089  0.65702369  1
  In  In14  1  0.17941318  0.85126544  0.00700398  1
  In  In15  1  0.18772775  0.30680956  0.49951203  1
  In  In16  1  0.50467412  0.33831427  0.49333724  1
  In  In17  1  -0.01008116  0.68586523  0.67013811  1
  In  In18  1  0.64390473  0.50207073  0.82645448  1
  In  In19  1  -0.00578320  0.14400833  0.50373135  1
  In  In20  1  0.83112925  0.01333169  0.50443950  1
  In  In21  1  0.16245224  0.67025045  0.16613046  1
  In  In22  1  0.00572613  0.15677142  0.16560023  1
  In  In23  1  -0.02101262  0.84867953  0.16855971  1
  In  In24  1  0.79730863  0.33577718  0.17945010  1
  In  In25  1  0.80426648  0.34616220  0.46278520  1
  In  In26  1  0.00564316  0.81074130  0.50026430  1
  In  In27  1  0.81335411  0.32130332  0.85161482  1
  In  In28  1  -0.02198669  0.49742966  0.48255570  1
  In  In29  1  0.69922014  0.69867481  0.01405621  1
  In  In30  1  0.67243887  0.00013013  0.01058895  1
  In  In31  1  0.02458494  0.51328397  0.82157986  1
  In  In32  1  0.34411311  0.32604428  0.67196395  1
  In  In33  1  0.35956496  0.48180856  0.16641690  1
  In  In34  1  0.65795075  0.64737297  0.31084498  1
  In  In35  1  0.18740296  0.50091365  0.33220591  1
  In  In36  1  0.33332559  0.63792381  0.31110947  1
  In  In37  1  0.68341739  0.84865634  0.48490054  1
  In  In38  1  0.34842640  0.85746721  0.49182152  1
  In  In39  1  0.83145260  0.15362249  -0.01108710  1
  In  In40  1  0.32153919  0.32127506  0.00518597  1
  In  In41  1  0.18156166  0.16664331  0.67980803  1
  In  In42  1  0.50543503  0.50142636  0.00810477  1
  In  In43  1  0.17220354  0.00734213  0.50715948  1
  In  In44  1  0.01927992  0.32152020  0.31219205  1
  In  In45  1  0.33574680  0.66303761  0.66676077  1
  In  In46  1  0.16162280  0.49063898  -0.01052085  1
  In  In47  1  0.82183501  0.17226204  0.31927307  1
  In  In48  1  0.50754678  0.15865889  0.32329910  1
  In  In49  1  0.63994678  0.82933461  0.84186998  1
  In  In50  1  0.00762795  0.33221503  0.00698551  1
  In  In51  1  0.16517182  0.14310778  0.00741557  1
  In  In52  1  0.66643139  0.00089562  0.30943210  1
  In  In53  1  0.49893912  0.65604696  0.18010630  1
  In  In54  1  0.82558035  0.81958931  0.31736911  1
  In  In55  1  0.49152821  0.16133450  0.67115554  1
  In  In56  1  0.34787044  0.64831626  -0.01913838  1
  In  In57  1  0.84252958  0.67892664  0.83949410  1
  In  In58  1  0.51225195  0.64093587  0.50258185  1
  In  In59  1  0.32528211  0.83910001  0.16241182  1
  In  In60  1  -0.00647673  0.36789167  0.65480887  1
  In  In61  1  0.47535372  0.33360015  0.84607500  1
  In  In62  1  0.00557350  -0.00817927  0.32434688  1
  In  In63  1  0.15725692  0.66890998  0.49025318  1
  In  In64  1  0.49936949  0.00456452  0.51848569  1
  In  In65  1  0.52613394  0.83279148  -0.00649548  1
  In  In66  1  0.34888857  0.03827884  0.02436917  1
  In  In67  1  0.01534164  0.82828353  0.85687196  1
  In  In68  1  0.82658917  0.48562844  0.01954680  1
  In  In69  1  0.18199484  0.49976169  0.66690055  1
  In  In70  1  0.31981033  0.83765441  0.82407823  1
  In  In71  1  0.81907176  0.51459286  0.33513930  1
  Te  Te72  1  0.06585554  0.05535940  0.07688341  1
  Te  Te73  1  0.09228667  0.08965218  0.40338940  1
  Te  Te74  1  0.08705556  0.07122035  0.74288750  1
  Te  Te75  1  0.10378771  0.40326724  0.10093122  1
  Te  Te76  1  0.08907461  0.40987113  0.42188697  1
  Te  Te77  1  0.10356039  0.40128748  0.75573519  1
  Te  Te78  1  0.08078270  0.76025797  0.07997516  1
  Te  Te79  1  0.08706397  0.75313513  0.39293298  1
  Te  Te80  1  0.09697184  0.73439022  0.76406067  1
  Te  Te81  1  0.43487088  0.10078249  0.12900097  1
  Te  Te82  1  0.41511985  0.07596789  0.41347439  1
  Te  Te83  1  0.40077584  0.10092275  0.77167832  1
  Te  Te84  1  0.43997674  0.38607264  0.08289850  1
  Te  Te85  1  0.41934799  0.42444963  0.40585777  1
  Te  Te86  1  0.42650483  0.42706521  0.74348508  1
  Te  Te87  1  0.41475740  0.74319517  0.08454267  1
  Te  Te88  1  0.41142567  0.73464350  0.42123331  1
  Te  Te89  1  0.42492634  0.74641008  0.76156124  1
  Te  Te90  1  0.74893000  0.09540684  0.09517225  1
  Te  Te91  1  0.73523254  0.08843906  0.41517548  1
  Te  Te92  1  0.75175755  0.09410834  0.76134774  1
  Te  Te93  1  0.71140419  0.43401568  0.10424706  1
  Te  Te94  1  0.70603557  0.42939339  0.38831576  1
  Te  Te95  1  0.75144945  0.41879996  0.75397776  1
  Te  Te96  1  0.76722244  0.80227914  0.10154073  1
  Te  Te97  1  0.74275277  0.73230079  0.41154619  1
  Te  Te98  1  0.73740369  0.75060729  0.74657350  1
  Te  Te99  1  0.11197951  0.22606264  0.24608793  1
  Te  Te100  1  0.06769351  0.25331144  0.58433057  1
  Te  Te101  1  0.10355069  0.25721997  0.91877650  1
  Te  Te102  1  0.08101651  0.57683751  0.25571058  1
  Te  Te103  1  0.07064007  0.57791167  0.58499498  1
  Te  Te104  1  0.06657034  0.58971013  0.93919289  1
  Te  Te105  1  0.09300014  0.92156401  0.23034492  1
  Te  Te106  1  0.06881123  0.92202191  0.58200913  1
  Te  Te107  1  0.10268671  0.93345063  0.91149837  1
  Te  Te108  1  0.42116917  0.23078238  0.21839518  1
  Te  Te109  1  0.41276771  0.23945273  0.56730557  1
  Te  Te110  1  0.41526024  0.23078637  0.93270383  1
  Te  Te111  1  0.45046456  0.54535757  0.27357239  1
  Te  Te112  1  0.42073012  0.56716765  0.59232449  1
  Te  Te113  1  0.41092131  0.54227667  0.89903584  1
  Te  Te114  1  0.41129775  0.93084978  0.24772053  1
  Te  Te115  1  0.39607461  0.93836663  0.61103381  1
  Te  Te116  1  0.40674365  0.91032584  0.93504183  1
  Te  Te117  1  0.70394190  0.24998351  0.26370142  1
  Te  Te118  1  0.73766349  0.24566297  0.55893239  1
  Te  Te119  1  0.72587724  0.26192854  0.96008762  1
  Te  Te120  1  0.76027891  0.58944898  0.22096398  1
  Te  Te121  1  0.77922595  0.55556043  0.55970241  1
  Te  Te122  1  0.75076478  0.58109911  0.91693941  1
  Te  Te123  1  0.75717778  0.91622259  0.22553037  1
  Te  Te124  1  0.73488317  0.93738987  0.59757095  1
  Te  Te125  1  0.74783380  0.91358786  0.90863831  1
  Te  Te126  1  0.24817685  0.22801678  0.10215416  1
  Te  Te127  1  0.25823379  0.22362053  0.40211455  1
  Te  Te128  1  0.25494383  0.25784420  0.76787946  1
  Te  Te129  1  0.26439127  0.57948833  0.09420560  1
  Te  Te130  1  0.26679452  0.57758901  0.43633969  1
  Te  Te131  1  0.24317712  0.59469297  0.76049104  1
  Te  Te132  1  0.24614671  0.95153702  0.10084596  1
  Te  Te133  1  0.24416770  0.92111661  0.40227252  1
  Te  Te134  1  0.24004998  0.93887730  0.75369996  1
  Te  Te135  1  0.58708529  0.27505891  0.15850419  1
  Te  Te136  1  0.58922215  0.25302693  0.40389672  1
  Te  Te137  1  0.58899210  0.25861701  0.75353297  1
  Te  Te138  1  0.59708583  0.59992301  0.07998372  1
  Te  Te139  1  0.60524357  0.55842399  0.42027351  1
  Te  Te140  1  0.58081194  0.59592880  0.73245744  1
  Te  Te141  1  0.58362991  0.91652076  0.09786199  1
  Te  Te142  1  0.57017398  0.91325451  0.40599051  1
  Te  Te143  1  0.57890485  0.93660529  0.75278820  1
  Te  Te144  1  0.90721272  0.25829535  0.09417141  1
  Te  Te145  1  0.92280917  0.24992190  0.41469655  1
  Te  Te146  1  0.92613601  0.26019513  0.76347954  1
  Te  Te147  1  0.89890453  0.59525758  0.08755727  1
  Te  Te148  1  0.92392631  0.60171201  0.39541056  1
  Te  Te149  1  0.91020827  0.57926444  0.74531395  1
  Te  Te150  1  0.88425889  0.89336064  0.06237321  1
  Te  Te151  1  0.90996191  0.91377620  0.42075695  1
  Te  Te152  1  0.92899948  0.90224263  0.74921630  1
  Te  Te153  1  0.23959921  0.11983549  0.21506110  1
  Te  Te154  1  0.26186870  0.10325010  0.57309431  1
  Te  Te155  1  0.26816242  0.09205032  0.91248417  1
  Te  Te156  1  0.25668906  0.40085339  0.24473976  1
  Te  Te157  1  0.26461040  0.41534967  0.57145760  1
  Te  Te158  1  0.27289396  0.43043835  0.91503726  1
  Te  Te159  1  0.24744247  0.75384710  0.26309155  1
  Te  Te160  1  0.24875949  0.76488076  0.57538199  1
  Te  Te161  1  0.24690014  0.74292176  0.91975245  1
  Te  Te162  1  0.57630309  0.07417706  0.21552148  1
  Te  Te163  1  0.59299448  0.09112915  0.58969837  1
  Te  Te164  1  0.56617643  0.09853896  0.95158534  1
  Te  Te165  1  0.59510756  0.41028027  0.21121890  1
  Te  Te166  1  0.56663918  0.43651303  0.58801996  1
  Te  Te167  1  0.58876830  0.40104894  0.92548228  1
  Te  Te168  1  0.59568074  0.76414960  0.23215827  1
  Te  Te169  1  0.58974719  0.75945810  0.57330423  1
  Te  Te170  1  0.57739302  0.71290862  0.91804381  1
  Te  Te171  1  0.90246777  0.07085681  0.24147934  1
  Te  Te172  1  0.91405774  0.07816409  0.61506231  1
  Te  Te173  1  0.94271717  0.06465008  0.93763174  1
  Te  Te174  1  0.91556146  0.41275497  0.25032720  1
  Te  Te175  1  0.87129205  0.42899416  0.57967865  1
  Te  Te176  1  0.92341834  0.41858598  0.91344437  1
  Te  Te177  1  0.92540240  0.73598422  0.24958474  1
  Te  Te178  1  0.89107015  0.73168770  0.56362446  1
  Te  Te179  1  0.90790719  0.76566911  0.94052680  1
