# generated using pymatgen
data_In2Te3
_symmetry_space_group_name_H-M   'P 1'
_cell_length_a   18.99078236
_cell_length_b   18.99356861
_cell_length_c   19.00543920
_cell_angle_alpha   90.11963904
_cell_angle_beta   89.90302280
_cell_angle_gamma   90.03014450
_symmetry_Int_Tables_number   1
_chemical_formula_structural   In2Te3
_chemical_formula_sum   'In72 Te108'
_cell_volume   6855.28805989
_cell_formula_units_Z   36
loop_
 _symmetry_equiv_pos_site_id
 _symmetry_equiv_pos_as_xyz
  1  'x, y, z'
loop_
 _atom_site_type_symbol
 _atom_site_label
 _atom_site_symmetry_multiplicity
 _atom_site_fract_x
 _atom_site_fract_y
 _atom_site_fract_z
 _atom_site_occupancy
  In  In0  1  0.35153946  0.64643333  0.32814905  1
  In  In1  1  -0.02073528  0.17272162  0.83328471  1
  In  In2  1  0.49196053  -0.01361529  0.82260935  1
  In  In3  1  -0.00123692  0.17111660  0.16247570  1
  In  In4  1  0.34889560  0.84209150  0.15966511  1
  In  In5  1  0.02190509  0.49571690  0.17451795  1
  In  In6  1  0.85396493  0.00387550  0.14840025  1
  In  In7  1  0.00662542  -0.00393198  0.63319485  1
  In  In8  1  0.82671761  0.81336222  0.33024782  1
  In  In9  1  0.48761859  0.00803263  0.17134998  1
  In  In10  1  0.49284275  0.82131362  0.00144531  1
  In  In11  1  0.32738844  -0.00725875  0.68810942  1
  In  In12  1  0.32963980  0.81164753  0.48955509  1
  In  In13  1  0.32851695  0.00196121  0.32617140  1
  In  In14  1  0.65185324  0.64571440  0.33031682  1
  In  In15  1  0.00231317  0.68027218  0.00583863  1
  In  In16  1  0.51617407  -0.02037960  0.47992560  1
  In  In17  1  0.03299752  0.02656069  0.36261550  1
  In  In18  1  0.33275056  0.14934886  0.14389054  1
  In  In19  1  0.16945947  0.66665731  0.51381422  1
  In  In20  1  0.82697013  0.50376289  -0.02100864  1
  In  In21  1  0.61689952  0.51774407  0.13606187  1
  In  In22  1  0.83395094  0.33930290  0.49762956  1
  In  In23  1  0.83294945  0.35017963  0.15572270  1
  In  In24  1  0.54041183  0.63704320  0.50665099  1
  In  In25  1  0.54443340  0.52657278  0.69015374  1
  In  In26  1  0.82067573  0.16757674  0.00269881  1
  In  In27  1  -0.01797326  0.82413097  0.83616358  1
  In  In28  1  0.34981399  0.17690439  0.87686796  1
  In  In29  1  0.26802612  0.15618315  0.48416621  1
  In  In30  1  0.85442412  0.51494500  0.32660458  1
  In  In31  1  0.14814402  0.16350520  -0.00091193  1
  In  In32  1  0.33936180  0.35554172  0.28177374  1
  In  In33  1  0.80351527  0.82477027  0.68067601  1
  In  In34  1  0.67170960  0.33854160  0.69948551  1
  In  In35  1  0.17321471  0.37080737  0.85222093  1
  In  In36  1  0.63855343  0.19337144  0.14384971  1
  In  In37  1  0.17614362  0.64990104  0.83836801  1
  In  In38  1  0.33674836  0.33501747  0.66630890  1
  In  In39  1  0.14893401  0.83031896  0.33216253  1
  In  In40  1  0.64485086  0.15620380  0.50067030  1
  In  In41  1  0.52564925  0.66759031  0.83246437  1
  In  In42  1  0.65322717  0.50676010  0.85329906  1
  In  In43  1  -0.00766338  0.81804050  0.51510552  1
  In  In44  1  -0.00456531  0.85282928  0.17817771  1
  In  In45  1  0.14883656  0.32400934  0.16505164  1
  In  In46  1  0.84259468  0.18140995  0.35526184  1
  In  In47  1  0.84277954  -0.02200897  0.50889121  1
  In  In48  1  0.65960866  -0.00834035  -0.02203792  1
  In  In49  1  -0.00829428  0.51623666  0.84063819  1
  In  In50  1  0.68715401  0.35891132  0.31513712  1
  In  In51  1  0.18333116  0.65521173  0.16451560  1
  In  In52  1  0.47095052  0.19141349  0.33374351  1
  In  In53  1  -0.01306396  0.33180093  0.68283287  1
  In  In54  1  0.34168100  0.49670338  0.49448403  1
  In  In55  1  0.67873512  -0.00656957  0.30265097  1
  In  In56  1  0.35109025  0.50062750  0.83648391  1
  In  In57  1  0.15347709  0.00071508  0.82109324  1
  In  In58  1  0.19361322  0.84256525  -0.00908595  1
  In  In59  1  0.18649369  0.18517759  0.65716795  1
  In  In60  1  0.50938259  0.35951698  0.50799929  1
  In  In61  1  0.49931031  0.31588727  0.84373123  1
  In  In62  1  0.83158838  0.00937978  0.83905530  1
  In  In63  1  0.82355488  0.67598359  0.15899674  1
  In  In64  1  0.64194462  0.78544133  0.16503598  1
  In  In65  1  -0.00138747  0.49182788  0.49949474  1
  In  In66  1  0.82534976  0.14586974  0.66821655  1
  In  In67  1  0.16668685  0.34658231  0.48353278  1
  In  In68  1  0.35028623  0.80280485  0.84212918  1
  In  In69  1  0.49964315  0.82386120  0.67330889  1
  In  In70  1  0.51196816  0.18308201  0.65988172  1
  In  In71  1  -0.01539157  0.66431434  0.67992347  1
  Te  Te72  1  0.07025534  0.07204981  0.08217972  1
  Te  Te73  1  0.13045328  0.09824393  0.44389715  1
  Te  Te74  1  0.07263776  0.09991456  0.73724208  1
  Te  Te75  1  0.07338728  0.40790588  0.07103606  1
  Te  Te76  1  0.09208011  0.43847340  0.39967234  1
  Te  Te77  1  0.08120265  0.43027312  0.74890901  1
  Te  Te78  1  0.09661572  0.76609508  0.09101704  1
  Te  Te79  1  0.07227336  0.73318647  0.41798244  1
  Te  Te80  1  0.08575022  0.74423798  0.75979670  1
  Te  Te81  1  0.44222694  0.09291120  0.06114343  1
  Te  Te82  1  0.41627070  0.08519493  0.42919155  1
  Te  Te83  1  0.40580037  0.10791209  0.74662859  1
  Te  Te84  1  0.47239026  0.46677614  0.11476402  1
  Te  Te85  1  0.42475442  0.41722246  0.39593681  1
  Te  Te86  1  0.44880453  0.41005596  0.73436054  1
  Te  Te87  1  0.41704892  0.72983469  0.09044710  1
  Te  Te88  1  0.43358579  0.72611946  0.42621842  1
  Te  Te89  1  0.41579293  0.71615637  0.73776149  1
  Te  Te90  1  0.72718221  0.07904244  0.09476509  1
  Te  Te91  1  0.74556780  0.07507277  0.42035334  1
  Te  Te92  1  0.73327316  0.06752511  0.74901057  1
  Te  Te93  1  0.73637847  0.43236628  0.07914926  1
  Te  Te94  1  0.75320289  0.44130872  0.42084120  1
  Te  Te95  1  0.75145714  0.43957224  0.76752259  1
  Te  Te96  1  0.72671173  0.72761611  0.05981837  1
  Te  Te97  1  0.75067619  0.72009935  0.41323187  1
  Te  Te98  1  0.76917121  0.71771972  0.77574516  1
  Te  Te99  1  0.08421043  0.23405605  0.26137327  1
  Te  Te100  1  0.08196017  0.26522511  0.58466158  1
  Te  Te101  1  0.07942937  0.25901016  0.90435389  1
  Te  Te102  1  0.08372601  0.60008388  0.25605256  1
  Te  Te103  1  0.07838128  0.57902641  0.59723554  1
  Te  Te104  1  0.09151181  0.57760066  0.94052725  1
  Te  Te105  1  0.09420733  0.94432746  0.24930906  1
  Te  Te106  1  0.09479808  0.88847039  0.59101642  1
  Te  Te107  1  0.07864176  0.91089726  0.91715119  1
  Te  Te108  1  0.42773100  0.25800818  0.20681635  1
  Te  Te109  1  0.41555907  0.25255613  0.56572658  1
  Te  Te110  1  0.40428573  0.28815723  0.95371237  1
  Te  Te111  1  0.39176534  0.55260617  0.21868892  1
  Te  Te112  1  0.43249752  0.56684848  0.59137834  1
  Te  Te113  1  0.44273021  0.58314654  0.92361005  1
  Te  Te114  1  0.43162932  0.90714592  0.26979878  1
  Te  Te115  1  0.41188326  0.91882582  0.58594135  1
  Te  Te116  1  0.40372485  0.91756477  0.92439196  1
  Te  Te117  1  0.75737631  0.24021924  0.24380838  1
  Te  Te118  1  0.73769992  0.24589462  0.58119594  1
  Te  Te119  1  0.73184287  0.25650007  0.93133364  1
  Te  Te120  1  0.74664954  0.56724437  0.23121071  1
  Te  Te121  1  0.67896319  0.65021195  0.56939363  1
  Te  Te122  1  0.72163239  0.60245127  0.94350345  1
  Te  Te123  1  0.76081937  0.89475907  0.22101792  1
  Te  Te124  1  0.73741157  0.90288850  0.57487004  1
  Te  Te125  1  0.77045002  0.91094278  0.92922861  1
  Te  Te126  1  0.24625790  0.25123114  0.07255758  1
  Te  Te127  1  0.26707648  0.27492610  0.39460108  1
  Te  Te128  1  0.25705377  0.25970924  0.77209179  1
  Te  Te129  1  0.27473317  0.55008171  0.11727127  1
  Te  Te130  1  0.24586632  0.57932804  0.41280581  1
  Te  Te131  1  0.25570559  0.56627805  0.74885994  1
  Te  Te132  1  0.26034239  0.93056516  0.08631928  1
  Te  Te133  1  0.24422503  0.91258189  0.41712412  1
  Te  Te134  1  0.24865055  0.89423396  0.76868222  1
  Te  Te135  1  0.61737744  0.27855294  0.02520174  1
  Te  Te136  1  0.59055730  0.26563564  0.40887865  1
  Te  Te137  1  0.60238908  0.22682865  0.77271421  1
  Te  Te138  1  0.52887809  0.60741335  0.05240808  1
  Te  Te139  1  0.56808093  0.54368767  0.39494972  1
  Te  Te140  1  0.64231641  0.64728313  0.72193332  1
  Te  Te141  1  0.58049380  0.91307955  0.09567246  1
  Te  Te142  1  0.60394884  0.90409506  0.39116490  1
  Te  Te143  1  0.59214914  0.89133178  0.76834083  1
  Te  Te144  1  0.91981916  0.26084070  0.06992382  1
  Te  Te145  1  0.93759442  0.26508900  0.42567587  1
  Te  Te146  1  0.87856803  0.25565341  0.75885590  1
  Te  Te147  1  0.91780919  0.57753698  0.08761312  1
  Te  Te148  1  0.91302507  0.59278722  0.43464567  1
  Te  Te149  1  0.88700253  0.59576917  0.76882076  1
  Te  Te150  1  0.90800889  0.89439026  0.06829731  1
  Te  Te151  1  0.93012179  0.91136227  0.40396835  1
  Te  Te152  1  0.91855358  0.92487268  0.73441442  1
  Te  Te153  1  0.24993361  0.09956049  0.25333158  1
  Te  Te154  1  0.22813651  0.05333249  0.59171426  1
  Te  Te155  1  0.24452813  0.07698328  0.91683237  1
  Te  Te156  1  0.22902057  0.43737771  0.22692555  1
  Te  Te157  1  0.24601940  0.42484977  0.58905776  1
  Te  Te158  1  0.26934653  0.43590784  0.94025039  1
  Te  Te159  1  0.26147327  0.75628225  0.26167942  1
  Te  Te160  1  0.25952306  0.74494784  0.59779449  1
  Te  Te161  1  0.26707379  0.72079945  0.93893512  1
  Te  Te162  1  0.57495286  0.09983996  0.26490147  1
  Te  Te163  1  0.57772447  0.06138048  0.59692915  1
  Te  Te164  1  0.55685339  0.07815611  0.91945186  1
  Te  Te165  1  0.57732960  0.40101851  0.22625672  1
  Te  Te166  1  0.61319665  0.42920180  0.59200293  1
  Te  Te167  1  0.57295167  0.41199721  0.93292340  1
  Te  Te168  1  0.54913560  0.71756785  0.25236682  1
  Te  Te169  1  0.58660872  0.77451529  0.56182788  1
  Te  Te170  1  0.59076306  0.78477943  0.89611765  1
  Te  Te171  1  0.91254253  0.07307490  0.27019701  1
  Te  Te172  1  0.92114764  0.09751740  0.56064991  1
  Te  Te173  1  0.92527530  0.07776218  0.93605362  1
  Te  Te174  1  0.92798978  0.40183497  0.25963089  1
  Te  Te175  1  0.90103005  0.42573168  0.60177988  1
  Te  Te176  1  0.92022386  0.41207207  0.91472910  1
  Te  Te177  1  0.92987997  0.73663279  0.24970442  1
  Te  Te178  1  0.88906290  0.73710251  0.58704935  1
  Te  Te179  1  0.90035017  0.72880776  0.91211192  1
