# generated using pymatgen
data_In2Te3
_symmetry_space_group_name_H-M   'P 1'
_cell_length_a   18.92942370
_cell_length_b   18.93806681
_cell_length_c   18.92798638
_cell_angle_alpha   89.97633993
_cell_angle_beta   89.89034223
_cell_angle_gamma   90.05093812
_symmetry_Int_Tables_number   1
_chemical_formula_structural   In2Te3
_chemical_formula_sum   'In72 Te108'
_cell_volume   6785.41550701
_cell_formula_units_Z   36
loop_
 _symmetry_equiv_pos_site_id
 _symmetry_equiv_pos_as_xyz
  1  'x, y, z'
loop_
 _atom_site_type_symbol
 _atom_site_label
 _atom_site_symmetry_multiplicity
 _atom_site_fract_x
 _atom_site_fract_y
 _atom_site_fract_z
 _atom_site_occupancy
  In  In0  1  0.03137444  0.86360398  0.83645766  1
  In  In1  1  0.83623210  0.01082336  0.85427925  1
  In  In2  1  0.82700670  0.50883741  0.00719353  1
  In  In3  1  0.68689557  0.01575897  0.64433824  1
  In  In4  1  0.04589500  0.34005141  0.34840258  1
  In  In5  1  0.32951071  0.66456646  0.01525517  1
  In  In6  1  0.64809810  0.53186722  0.16189347  1
  In  In7  1  0.36231617  0.68515206  0.34497611  1
  In  In8  1  0.83919690  0.34919397  0.50045018  1
  In  In9  1  0.17068283  0.02346047  0.82595873  1
  In  In10  1  0.81306069  0.67465500  0.47346185  1
  In  In11  1  0.66149437  0.34704623  0.01197193  1
  In  In12  1  0.16328961  0.81775020  0.03772281  1
  In  In13  1  0.31998133  0.01357591  0.66193669  1
  In  In14  1  0.69005644  -0.02062431  0.32094473  1
  In  In15  1  0.46926465  0.64120794  0.84333963  1
  In  In16  1  0.82966148  0.31615239  0.83097917  1
  In  In17  1  0.19226284  0.32988788  0.84547300  1
  In  In18  1  0.84010884  0.16844120  0.63962914  1
  In  In19  1  0.83745264  0.66249275  0.84517633  1
  In  In20  1  0.49711436  -0.00141570  0.50858550  1
  In  In21  1  0.16108544  0.00182795  0.49425766  1
  In  In22  1  0.51384771  0.82370224  0.65738306  1
  In  In23  1  0.65157580  0.33362992  0.66924134  1
  In  In24  1  0.47407629  0.50892435  0.66061129  1
  In  In25  1  0.85594091  0.17519739  -0.01158879  1
  In  In26  1  -0.00942121  0.84221509  0.18373772  1
  In  In27  1  0.32230711  0.34179091  0.01428168  1
  In  In28  1  0.49648955  0.15636879  0.00118791  1
  In  In29  1  0.33713409  -0.00687596  -0.01026704  1
  In  In30  1  0.65558885  0.51645829  0.49059002  1
  In  In31  1  0.82439207  0.83909145  0.03441033  1
  In  In32  1  0.01093060  0.69303166  0.01294565  1
  In  In33  1  0.18270336  0.82456959  0.65908569  1
  In  In34  1  0.33867121  0.16907585  0.15725959  1
  In  In35  1  0.18399607  0.81084752  0.33164213  1
  In  In36  1  0.66697285  0.46959315  0.82368294  1
  In  In37  1  0.16334370  0.32683707  0.16808258  1
  In  In38  1  0.68003591  0.17161494  0.14334645  1
  In  In39  1  0.63007736  0.81704640  0.84501007  1
  In  In40  1  0.84187457  0.68027892  0.16762744  1
  In  In41  1  0.16109741  0.48609782  0.65944144  1
  In  In42  1  0.30092819  0.31602487  0.36893883  1
  In  In43  1  0.01152076  0.83895767  0.48054821  1
  In  In44  1  0.01694860  0.33253711  0.00595950  1
  In  In45  1  -0.00537410  0.33215486  0.64521813  1
  In  In46  1  0.81166092  0.84568120  0.64620203  1
  In  In47  1  0.32603799  -0.02057320  0.32491961  1
  In  In48  1  0.03513784  0.49919819  0.19867870  1
  In  In49  1  0.48995076  0.49703922  0.33685829  1
  In  In50  1  0.63943152  0.14644471  0.48142293  1
  In  In51  1  0.32585575  0.51742298  0.50121128  1
  In  In52  1  0.48398808  0.16055914  0.33169200  1
  In  In53  1  0.00530834  0.52097909  0.84024398  1
  In  In54  1  0.64507079  0.78895187  0.18227807  1
  In  In55  1  0.35588746  0.29369438  0.65495490  1
  In  In56  1  0.51075839  -0.03037620  0.22053196  1
  In  In57  1  0.47597862  0.00150562  0.82509669  1
  In  In58  1  0.66346819  0.67001216  0.64606842  1
  In  In59  1  0.50067659  0.33670165  0.84647871  1
  In  In60  1  0.64565210  0.31146646  0.32642184  1
  In  In61  1  0.84644213  0.50169259  0.32154743  1
  In  In62  1  0.33732309  0.67658647  0.65256475  1
  In  In63  1  0.19141839  0.67301709  0.83830626  1
  In  In64  1  0.32420219  0.50011958  0.15408079  1
  In  In65  1  -0.02450194  -0.00906369  0.33395725  1
  In  In66  1  0.65784776  0.00163467  0.01399874  1
  In  In67  1  0.01553303  0.65219136  0.63804874  1
  In  In68  1  0.83792907  0.15693182  0.32080554  1
  In  In69  1  0.15652792  0.02809187  0.15708080  1
  In  In70  1  0.00118327  0.02686860  0.68986469  1
  In  In71  1  0.00652953  0.16123348  0.51382198  1
  Te  Te72  1  0.06592799  0.05284110  0.04409821  1
  Te  Te73  1  0.07468643  0.08447510  0.40182537  1
  Te  Te74  1  0.11108841  0.11667794  0.72687143  1
  Te  Te75  1  0.10137413  0.43447370  0.07925552  1
  Te  Te76  1  0.11365424  0.45340542  0.41097713  1
  Te  Te77  1  0.07291791  0.41175911  0.76035540  1
  Te  Te78  1  0.08586854  0.73148298  0.13860317  1
  Te  Te79  1  0.08242102  0.73478339  0.40780758  1
  Te  Te80  1  0.07978589  0.74116306  0.75154590  1
  Te  Te81  1  0.43734350  0.06439589  0.10804990  1
  Te  Te82  1  0.39818157  0.07491166  0.42076276  1
  Te  Te83  1  0.39327371  0.10002150  0.75669945  1
  Te  Te84  1  0.42412492  0.41479669  0.08974979  1
  Te  Te85  1  0.40841572  0.41062805  0.43062786  1
  Te  Te86  1  0.40765499  0.40839229  0.75024853  1
  Te  Te87  1  0.45065703  0.73289269  0.06823995  1
  Te  Te88  1  0.45325966  0.80037701  0.37679415  1
  Te  Te89  1  0.41818424  0.75376250  0.75398509  1
  Te  Te90  1  0.77358272  0.07372954  0.07718230  1
  Te  Te91  1  0.75702821  0.07393080  0.42079291  1
  Te  Te92  1  0.76120674  0.09548494  0.75109236  1
  Te  Te93  1  0.74835209  0.42792717  0.10741726  1
  Te  Te94  1  0.73657674  0.41288496  0.40359804  1
  Te  Te95  1  0.77018941  0.41116546  0.72800542  1
  Te  Te96  1  0.73524393  0.72439718  0.06954251  1
  Te  Te97  1  0.71585424  0.77873469  0.44463778  1
  Te  Te98  1  0.74426541  0.74970930  0.75401495  1
  Te  Te99  1  0.09590670  0.23457107  0.26086009  1
  Te  Te100  1  0.09737268  0.27498910  0.55105034  1
  Te  Te101  1  0.08663664  0.24943179  0.90948406  1
  Te  Te102  1  0.10541002  0.56520582  0.30931402  1
  Te  Te103  1  0.10178429  0.56941113  0.55234671  1
  Te  Te104  1  0.09753819  0.59689773  0.93161115  1
  Te  Te105  1  0.10044061  0.92286176  0.26068030  1
  Te  Te106  1  0.07892350  0.92118900  0.60196697  1
  Te  Te107  1  0.10504496  0.93382998  0.94947574  1
  Te  Te108  1  0.40189420  0.26298206  0.25777815  1
  Te  Te109  1  0.45410806  0.22587349  0.57299015  1
  Te  Te110  1  0.40484587  0.24774387  0.92290150  1
  Te  Te111  1  0.42438452  0.58961558  0.23450718  1
  Te  Te112  1  0.43414876  0.61063663  0.55620781  1
  Te  Te113  1  0.37522255  0.55669233  0.92017999  1
  Te  Te114  1  0.39261940  0.87884083  0.23494676  1
  Te  Te115  1  0.40674050  0.90677680  0.58873092  1
  Te  Te116  1  0.43677783  0.90505951  0.92662386  1
  Te  Te117  1  0.75819937  0.25800509  0.24043134  1
  Te  Te118  1  0.73384105  0.24574304  0.56381834  1
  Te  Te119  1  0.73395077  0.24600677  0.92458218  1
  Te  Te120  1  0.74893618  0.59784197  0.25682505  1
  Te  Te121  1  0.76057773  0.57450016  0.58241476  1
  Te  Te122  1  0.73218986  0.57919513  0.91342637  1
  Te  Te123  1  0.74762730  0.89223874  0.21814487  1
  Te  Te124  1  0.72155769  0.90784115  0.54595631  1
  Te  Te125  1  0.73854593  0.90475167  0.91835333  1
  Te  Te126  1  0.23175344  0.23163696  0.07045097  1
  Te  Te127  1  0.22844283  0.23596710  0.46977786  1
  Te  Te128  1  0.23680879  0.24610742  0.73174099  1
  Te  Te129  1  0.22942002  0.60184415  0.10441972  1
  Te  Te130  1  0.26080119  0.58298232  0.38532267  1
  Te  Te131  1  0.25471893  0.58133941  0.73710782  1
  Te  Te132  1  0.25384301  0.92551489  0.09780962  1
  Te  Te133  1  0.25547045  0.89964982  0.43409815  1
  Te  Te134  1  0.25197717  0.91292355  0.75895438  1
  Te  Te135  1  0.56653767  0.25724222  0.09227199  1
  Te  Te136  1  0.54831592  0.26005454  0.43423721  1
  Te  Te137  1  0.59347929  0.24988306  0.77322832  1
  Te  Te138  1  0.52858248  0.60841553  0.10694577  1
  Te  Te139  1  0.58246951  0.60103797  0.39314055  1
  Te  Te140  1  0.58460007  0.57748080  0.74386659  1
  Te  Te141  1  0.58357025  0.90424414  0.10100406  1
  Te  Te142  1  0.55987709  0.93554752  0.38317078  1
  Te  Te143  1  0.59902846  0.92289156  0.73665027  1
  Te  Te144  1  0.91753093  0.26328031  0.08758807  1
  Te  Te145  1  0.91614051  0.24673696  0.41958329  1
  Te  Te146  1  0.92575796  0.23712467  0.74419109  1
  Te  Te147  1  0.93081146  0.58143519  0.09127465  1
  Te  Te148  1  0.91413514  0.58231536  0.42212954  1
  Te  Te149  1  0.91506988  0.58789198  0.73942122  1
  Te  Te150  1  0.93909817  0.92214535  0.07034309  1
  Te  Te151  1  0.89644999  0.88407962  0.39955276  1
  Te  Te152  1  0.90567320  0.91680080  0.75249150  1
  Te  Te153  1  0.25169895  0.09538671  0.25888742  1
  Te  Te154  1  0.24865883  0.10162103  0.56237831  1
  Te  Te155  1  0.26697940  0.09425211  0.91150294  1
  Te  Te156  1  0.25420019  0.40776173  0.25688122  1
  Te  Te157  1  0.27080480  0.40874121  0.59040588  1
  Te  Te158  1  0.25362023  0.43912019  0.92362419  1
  Te  Te159  1  0.27846755  0.74614359  0.23695828  1
  Te  Te160  1  0.24323212  0.73855262  0.55869752  1
  Te  Te161  1  0.25895257  0.77225830  0.92685939  1
  Te  Te162  1  0.60096843  0.09733747  0.25144686  1
  Te  Te163  1  0.56192745  0.09980220  0.60758026  1
  Te  Te164  1  0.58648596  0.07775463  0.90696510  1
  Te  Te165  1  0.57915107  0.41543026  0.24301350  1
  Te  Te166  1  0.57117895  0.42484330  0.57910109  1
  Te  Te167  1  0.56900901  0.44057951  0.93548217  1
  Te  Te168  1  0.56414518  0.73191210  0.29274938  1
  Te  Te169  1  0.58984064  0.75479245  0.54787502  1
  Te  Te170  1  0.55905949  0.72098861  0.93291689  1
  Te  Te171  1  0.91736998  0.07500822  0.22984299  1
  Te  Te172  1  0.91156101  0.05388187  0.57002977  1
  Te  Te173  1  0.94856242  0.08847439  0.91009452  1
  Te  Te174  1  0.93738737  0.39895708  0.25535746  1
  Te  Te175  1  0.93005106  0.44006569  0.56956938  1
  Te  Te176  1  0.90676247  0.42337350  0.91081800  1
  Te  Te177  1  0.90534763  0.76052773  0.27456010  1
  Te  Te178  1  0.91536291  0.75587060  0.58224409  1
  Te  Te179  1  0.92284267  0.76722627  0.91346714  1
