# generated using pymatgen
data_In2Te3
_symmetry_space_group_name_H-M   'P 1'
_cell_length_a   18.95278558
_cell_length_b   18.95333618
_cell_length_c   18.91683170
_cell_angle_alpha   89.84875578
_cell_angle_beta   89.90790235
_cell_angle_gamma   89.84295638
_symmetry_Int_Tables_number   1
_chemical_formula_structural   In2Te3
_chemical_formula_sum   'In72 Te108'
_cell_volume   6795.21831991
_cell_formula_units_Z   36
loop_
 _symmetry_equiv_pos_site_id
 _symmetry_equiv_pos_as_xyz
  1  'x, y, z'
loop_
 _atom_site_type_symbol
 _atom_site_label
 _atom_site_symmetry_multiplicity
 _atom_site_fract_x
 _atom_site_fract_y
 _atom_site_fract_z
 _atom_site_occupancy
  In  In0  1  0.50028738  0.32470518  0.16454027  1
  In  In1  1  0.02079621  0.32515206  0.69203673  1
  In  In2  1  0.84534786  0.49812239  0.64478367  1
  In  In3  1  0.49811628  0.66100789  0.50855277  1
  In  In4  1  0.15363542  0.36581929  0.13098439  1
  In  In5  1  0.34303953  0.18129759  0.85257187  1
  In  In6  1  0.50397322  0.00080104  0.85097932  1
  In  In7  1  -0.02933313  -0.02368481  0.00911510  1
  In  In8  1  0.47938233  0.81933641  -0.00968150  1
  In  In9  1  0.19416961  0.17500233  0.35962381  1
  In  In10  1  0.82116961  0.16435912  0.33888029  1
  In  In11  1  0.47783284  0.34994044  0.50865276  1
  In  In12  1  0.18946536  0.15947435  0.67659011  1
  In  In13  1  0.35855086  0.83097838  0.46641809  1
  In  In14  1  0.82837063  0.81624185  -0.00790705  1
  In  In15  1  0.68843223  0.50124211  0.49773116  1
  In  In16  1  0.15495998  0.18744964  0.01216003  1
  In  In17  1  0.63727620  0.81423584  0.84052966  1
  In  In18  1  0.66826496  0.17213007  0.51361200  1
  In  In19  1  0.00917660  0.16601638  0.84110964  1
  In  In20  1  0.13309744  0.84182661  0.33049849  1
  In  In21  1  0.82253365  0.33942056  0.14613463  1
  In  In22  1  0.67589620  -0.00692273  0.66761334  1
  In  In23  1  0.18100070  0.51062375  0.33003216  1
  In  In24  1  0.82870457  0.00868021  0.83022670  1
  In  In25  1  0.52301403  0.17078594  0.00341085  1
  In  In26  1  0.33297632  0.65866703  0.00201743  1
  In  In27  1  0.51749779  0.20131723  0.68551543  1
  In  In28  1  0.82918574  0.64120252  0.86557941  1
  In  In29  1  0.35412511  0.74022203  0.80369439  1
  In  In30  1  0.32013445  0.00436995  -0.00079756  1
  In  In31  1  0.68177671  0.02017533  0.01763365  1
  In  In32  1  0.63166964  0.66999286  0.32217467  1
  In  In33  1  0.18184812  0.37532161  0.86171286  1
  In  In34  1  0.32297189  0.82542328  0.19835913  1
  In  In35  1  0.01617171  0.16178074  0.50204491  1
  In  In36  1  0.02207331  0.51071735  0.49769353  1
  In  In37  1  0.12916866  -0.02106443  0.85121512  1
  In  In38  1  0.30844947  0.48272629  0.67021599  1
  In  In39  1  0.16290176  0.00235634  0.18549472  1
  In  In40  1  0.17659510  0.64316846  0.83722149  1
  In  In41  1  0.35069500  0.51182927  0.19005236  1
  In  In42  1  0.67817597  0.31693948  0.67433411  1
  In  In43  1  0.82236002  0.49163486  0.31616603  1
  In  In44  1  -0.00344411  0.48637337  0.84087325  1
  In  In45  1  0.63871391  0.48911697  0.15849101  1
  In  In46  1  0.49373508  0.00251699  0.15910360  1
  In  In47  1  0.81188299  0.30906813  0.85986441  1
  In  In48  1  0.20413074  0.67214167  0.48326228  1
  In  In49  1  0.01853497  0.34399995  0.32174183  1
  In  In50  1  -0.02978497  0.85841436  0.47159407  1
  In  In51  1  0.84392243  0.64062312  0.12538034  1
  In  In52  1  0.51050575  0.49919719  -0.01086246  1
  In  In53  1  0.16914938  0.01352322  0.52171507  1
  In  In54  1  0.35037092  -0.02160131  0.66150736  1
  In  In55  1  0.33956237  0.02228611  0.35220876  1
  In  In56  1  -0.01018678  0.67814662  0.31148577  1
  In  In57  1  0.66336113  0.35536120  0.33974110  1
  In  In58  1  0.82368411  0.67114424  0.50582832  1
  In  In59  1  0.82047448  0.83741393  0.68947099  1
  In  In60  1  -0.01476926  0.18579956  0.17173248  1
  In  In61  1  0.17774817  0.81306486  0.67105127  1
  In  In62  1  0.84158992  -0.00233170  0.47311544  1
  In  In63  1  0.69817432  0.83109459  0.17841743  1
  In  In64  1  0.49321543  0.48512627  0.69219326  1
  In  In65  1  0.65688512  0.50873801  0.82411388  1
  In  In66  1  0.13876345  0.67245410  0.14370628  1
  In  In67  1  -0.02158542  0.00681275  0.29879854  1
  In  In68  1  0.50447639  0.15588296  0.30965894  1
  In  In69  1  -0.03086115  -0.02116611  0.66177588  1
  In  In70  1  0.62170776  0.83077139  0.46324228  1
  In  In71  1  0.02562103  0.66384547  0.65419514  1
  Te  Te72  1  0.07488449  0.08232013  0.08751953  1
  Te  Te73  1  0.07737850  0.06155979  0.40150517  1
  Te  Te74  1  0.06947715  0.07553939  0.73274829  1
  Te  Te75  1  0.07135261  0.46141344  0.05368447  1
  Te  Te76  1  0.10876415  0.41115512  0.42249428  1
  Te  Te77  1  0.10612363  0.43873554  0.74403075  1
  Te  Te78  1  0.02991911  0.71772503  0.05425528  1
  Te  Te79  1  0.07133269  0.73876241  0.43172674  1
  Te  Te80  1  0.08280363  0.74657448  0.76768671  1
  Te  Te81  1  0.40715646  0.09718638  0.07718432  1
  Te  Te82  1  0.44407187  0.09106426  0.43024290  1
  Te  Te83  1  0.41478358  0.08532561  0.75742920  1
  Te  Te84  1  0.41619369  0.42401725  0.08534315  1
  Te  Te85  1  0.36676392  0.39368392  0.41969806  1
  Te  Te86  1  0.39090740  0.41151382  0.77348806  1
  Te  Te87  1  0.40863049  0.74379660  0.10363609  1
  Te  Te88  1  0.43142395  0.72759482  0.38731493  1
  Te  Te89  1  0.47601345  0.73206050  0.72267314  1
  Te  Te90  1  0.76613409  0.12786841  0.06853765  1
  Te  Te91  1  0.72372129  0.07322039  0.41136287  1
  Te  Te92  1  0.75046842  0.09461067  0.74159638  1
  Te  Te93  1  0.74769416  0.44337485  0.06828673  1
  Te  Te94  1  0.77887548  0.40046211  0.42956418  1
  Te  Te95  1  0.76950405  0.42113825  0.75184085  1
  Te  Te96  1  0.73115355  0.73001812  0.07030128  1
  Te  Te97  1  0.73696971  0.74440418  0.40823696  1
  Te  Te98  1  0.74727548  0.73384377  0.77065994  1
  Te  Te99  1  0.10431036  0.24166962  0.24828025  1
  Te  Te100  1  0.10470651  0.24922596  0.58649618  1
  Te  Te101  1  0.07637146  0.27677507  0.91742588  1
  Te  Te102  1  0.07192401  0.57246970  0.24349194  1
  Te  Te103  1  0.12889718  0.58006104  0.58110672  1
  Te  Te104  1  0.09224816  0.56350999  0.93140638  1
  Te  Te105  1  0.05363751  0.89964474  0.21667429  1
  Te  Te106  1  0.08092130  0.90405469  0.58230618  1
  Te  Te107  1  0.08387910  0.89522169  0.96150277  1
  Te  Te108  1  0.40819679  0.24630109  0.24811528  1
  Te  Te109  1  0.40871392  0.27137876  0.61468636  1
  Te  Te110  1  0.42359256  0.26187118  0.94169489  1
  Te  Te111  1  0.39665829  0.60918198  0.28995911  1
  Te  Te112  1  0.41408451  0.55922988  0.58302688  1
  Te  Te113  1  0.40704657  0.57231055  0.90354327  1
  Te  Te114  1  0.41598520  0.92404961  0.26417096  1
  Te  Te115  1  0.44037233  0.91489832  0.55999629  1
  Te  Te116  1  0.39314492  0.91130131  0.90343693  1
  Te  Te117  1  0.74172655  0.26140540  0.25156938  1
  Te  Te118  1  0.76932434  0.25519125  0.57795707  1
  Te  Te119  1  0.73520076  0.23970377  0.97333124  1
  Te  Te120  1  0.73662249  0.58779956  0.24026482  1
  Te  Te121  1  0.73579444  0.59754370  0.60499799  1
  Te  Te122  1  0.73541557  0.55702010  0.94226155  1
  Te  Te123  1  0.74686339  0.93077606  0.27103400  1
  Te  Te124  1  0.75788656  0.90897241  0.56957623  1
  Te  Te125  1  0.73618074  0.91474383  0.90898249  1
  Te  Te126  1  0.25331302  0.28332442  0.06034086  1
  Te  Te127  1  0.27914665  0.26521892  0.43614778  1
  Te  Te128  1  0.24237741  0.26184516  0.77194954  1
  Te  Te129  1  0.24617545  0.57732749  0.09486449  1
  Te  Te130  1  0.29043685  0.57401170  0.41081226  1
  Te  Te131  1  0.28889703  0.62119478  0.73856387  1
  Te  Te132  1  0.24780199  0.91222245  0.09615693  1
  Te  Te133  1  0.23579580  0.91613262  0.41574706  1
  Te  Te134  1  0.23497040  0.92976076  0.74775290  1
  Te  Te135  1  0.60939149  0.26633207  0.07966003  1
  Te  Te136  1  0.57860297  0.26504384  0.42857723  1
  Te  Te137  1  0.59124580  0.27595430  0.78864796  1
  Te  Te138  1  0.54946852  0.58900651  0.09898947  1
  Te  Te139  1  0.57775002  0.56325203  0.41778521  1
  Te  Te140  1  0.56084107  0.60374308  0.75565155  1
  Te  Te141  1  0.57218388  0.91973524  0.05889274  1
  Te  Te142  1  0.53664047  0.94546589  0.43444722  1
  Te  Te143  1  0.57119133  0.91416377  0.74586626  1
  Te  Te144  1  0.93515716  0.27952787  0.07133592  1
  Te  Te145  1  0.93493932  0.24328145  0.40232832  1
  Te  Te146  1  0.91074859  0.24433409  0.75607443  1
  Te  Te147  1  0.95747283  0.57019584  0.05943803  1
  Te  Te148  1  0.90992552  0.57975744  0.41741523  1
  Te  Te149  1  0.92375916  0.58867243  0.74134979  1
  Te  Te150  1  0.87160527  0.91177508  0.09513691  1
  Te  Te151  1  0.87594108  0.89990345  0.35367076  1
  Te  Te152  1  0.92458152  0.89853949  0.78201728  1
  Te  Te153  1  0.26281651  0.09882819  0.24509540  1
  Te  Te154  1  0.28324135  0.09168518  0.57760242  1
  Te  Te155  1  0.22380780  0.08514831  0.90988902  1
  Te  Te156  1  0.24876479  0.40773379  0.24150686  1
  Te  Te157  1  0.28566642  0.38414330  0.56000482  1
  Te  Te158  1  0.29602702  0.46202479  0.89600602  1
  Te  Te159  1  0.21843969  0.73714629  0.26157444  1
  Te  Te160  1  0.28460953  0.75650500  0.57997472  1
  Te  Te161  1  0.25008934  0.75283090  0.91559048  1
  Te  Te162  1  0.59820938  0.07696746  0.22983625  1
  Te  Te163  1  0.57575681  0.09042944  0.60157622  1
  Te  Te164  1  0.60897261  0.09293323  0.90252564  1
  Te  Te165  1  0.55235748  0.42647917  0.26762114  1
  Te  Te166  1  0.59726370  0.41947177  0.59238575  1
  Te  Te167  1  0.58205236  0.40395681  0.89862403  1
  Te  Te168  1  0.57653343  0.78170818  0.24509946  1
  Te  Te169  1  0.58550658  0.75395118  0.58460461  1
  Te  Te170  1  0.56888412  0.72058965  0.92955687  1
  Te  Te171  1  0.87835861  0.08808023  0.21869504  1
  Te  Te172  1  0.90631950  0.08832611  0.57723529  1
  Te  Te173  1  0.91005259  0.09116763  0.92825116  1
  Te  Te174  1  0.92513129  0.42170202  0.23139084  1
  Te  Te175  1  0.94762676  0.40713078  0.58115004  1
  Te  Te176  1  0.89925295  0.41034839  0.91968794  1
  Te  Te177  1  0.89292331  0.73975892  0.22221985  1
  Te  Te178  1  0.91708807  0.75549992  0.59143667  1
  Te  Te179  1  0.93288947  0.72847739  0.92796226  1
