# generated using pymatgen
data_In2Te3
_symmetry_space_group_name_H-M   'P 1'
_cell_length_a   18.94941852
_cell_length_b   18.93428413
_cell_length_c   18.94805987
_cell_angle_alpha   89.81689197
_cell_angle_beta   90.04515541
_cell_angle_gamma   89.97823991
_symmetry_Int_Tables_number   1
_chemical_formula_structural   In2Te3
_chemical_formula_sum   'In72 Te108'
_cell_volume   6798.40669802
_cell_formula_units_Z   36
loop_
 _symmetry_equiv_pos_site_id
 _symmetry_equiv_pos_as_xyz
  1  'x, y, z'
loop_
 _atom_site_type_symbol
 _atom_site_label
 _atom_site_symmetry_multiplicity
 _atom_site_fract_x
 _atom_site_fract_y
 _atom_site_fract_z
 _atom_site_occupancy
  In  In0  1  0.65352829  0.84810181  0.52467022  1
  In  In1  1  0.84244168  0.82444133  0.68190892  1
  In  In2  1  0.31705821  0.00301666  0.34525394  1
  In  In3  1  0.83902777  0.48815550  0.68175092  1
  In  In4  1  0.18999625  0.68625602  0.53178164  1
  In  In5  1  -0.00770890  0.67887446  0.34538688  1
  In  In6  1  0.17401772  -0.00773106  0.18645914  1
  In  In7  1  0.81717068  0.64636067  0.15012442  1
  In  In8  1  0.82396769  0.68470838  0.48162751  1
  In  In9  1  0.51260976  0.31993057  0.48610381  1
  In  In10  1  0.82956133  0.86130788  0.31698252  1
  In  In11  1  0.83187578  0.46470646  0.33343488  1
  In  In12  1  -0.02813454  0.01376728  0.01151790  1
  In  In13  1  0.01984530  0.14477293  0.47474081  1
  In  In14  1  0.01464869  0.15618387  0.19247071  1
  In  In15  1  0.02583378  0.83074130  0.51680685  1
  In  In16  1  0.15593376  0.81613929  -0.01864421  1
  In  In17  1  -0.01629055  0.49504029  0.84043927  1
  In  In18  1  0.18028822  0.19149451  0.00338142  1
  In  In19  1  0.18608670  0.33444221  0.48755282  1
  In  In20  1  0.84233325  0.34242289  0.15670398  1
  In  In21  1  0.65312742  0.84597648  0.18276704  1
  In  In22  1  0.49430558  0.15107239  0.01212179  1
  In  In23  1  0.48055055  0.65304735  0.83840871  1
  In  In24  1  0.83795642  0.18105846  0.33958033  1
  In  In25  1  0.34012501  0.50498148  0.52422497  1
  In  In26  1  0.32909978  0.83226127  0.15265399  1
  In  In27  1  0.01942741  0.62810490  0.67922099  1
  In  In28  1  0.48188219  0.49656722  0.35101044  1
  In  In29  1  0.15831038  0.49657186  0.34063151  1
  In  In30  1  0.48861657  0.49908841  0.67660357  1
  In  In31  1  0.35366372  0.28435981  0.30619844  1
  In  In32  1  0.51145942  -0.00343959  0.82163648  1
  In  In33  1  0.67235520  -0.02053601  -0.04936281  1
  In  In34  1  0.33662710  -0.02132044  0.67741135  1
  In  In35  1  0.33003960  0.34343659  0.65953534  1
  In  In36  1  0.00248433  0.33347765  0.68750432  1
  In  In37  1  -0.02065467  0.66433888  -0.00729099  1
  In  In38  1  0.35338408  0.17749874  0.83271951  1
  In  In39  1  0.33247950  0.68045978  0.31959630  1
  In  In40  1  0.69637596  0.02558367  0.69983745  1
  In  In41  1  0.84450689  0.02106954  0.49083892  1
  In  In42  1  0.51436563  0.01248687  0.52809922  1
  In  In43  1  0.68063154  0.68656607  0.66578277  1
  In  In44  1  0.19943565  0.65628583  0.81363469  1
  In  In45  1  0.15008131  0.01999286  0.83255313  1
  In  In46  1  0.16452654  0.32420593  0.16728058  1
  In  In47  1  0.18438794  0.65239387  0.19243737  1
  In  In48  1  0.18286582  0.48094684  -0.02983649  1
  In  In49  1  0.49159263  0.49194792  -0.00373577  1
  In  In50  1  0.33402475  0.49200136  0.15286215  1
  In  In51  1  0.69533370  0.49038231  0.82689528  1
  In  In52  1  0.00994798  0.85192853  0.16852281  1
  In  In53  1  -0.00732999  0.81001798  0.82702237  1
  In  In54  1  0.17470581  0.15673707  0.66718940  1
  In  In55  1  0.35395664  0.83970619  0.83238010  1
  In  In56  1  0.63401478  0.65866893  0.34115548  1
  In  In57  1  -0.01215629  0.17734497  0.86870279  1
  In  In58  1  0.50029040  0.02494648  0.17775237  1
  In  In59  1  0.48129549  0.83207741  0.00674625  1
  In  In60  1  0.65873552  0.50143887  0.47526844  1
  In  In61  1  -0.00210110  0.01421990  0.61945553  1
  In  In62  1  0.82445329  0.03416465  0.15817768  1
  In  In63  1  0.67454907  0.31832628  0.32578710  1
  In  In64  1  0.65037707  0.66347318  -0.01555338  1
  In  In65  1  0.68247046  0.22167024  0.68212628  1
  In  In66  1  0.64684305  0.32148079  -0.00729634  1
  In  In67  1  -0.00356129  0.34653908  -0.00512463  1
  In  In68  1  0.65934004  0.48262316  0.15850119  1
  In  In69  1  0.81931223  0.17370987  -0.00832430  1
  In  In70  1  0.49081012  0.83360478  0.36104647  1
  In  In71  1  0.35284886  0.17289556  0.50287646  1
  Te  Te72  1  0.09032544  0.08440355  0.07659984  1
  Te  Te73  1  0.09978294  0.04484594  0.40294269  1
  Te  Te74  1  0.05483724  0.10321166  0.74754111  1
  Te  Te75  1  0.09190230  0.42665264  0.08098723  1
  Te  Te76  1  0.07700555  0.41626667  0.43232060  1
  Te  Te77  1  0.08639498  0.43079722  0.75865264  1
  Te  Te78  1  0.08074852  0.74186981  0.09223260  1
  Te  Te79  1  0.10456253  0.75010164  0.41520235  1
  Te  Te80  1  0.09627472  0.74423151  0.73820879  1
  Te  Te81  1  0.39298778  0.07758689  0.09273554  1
  Te  Te82  1  0.43046351  0.07725760  0.41644099  1
  Te  Te83  1  0.42555406  0.08791011  0.73423115  1
  Te  Te84  1  0.42692721  0.39789698  0.09024739  1
  Te  Te85  1  0.39532258  0.39534415  0.42474028  1
  Te  Te86  1  0.41428627  0.40626880  0.76497232  1
  Te  Te87  1  0.40226989  0.73136515  0.07739975  1
  Te  Te88  1  0.38360441  0.75989353  0.43721689  1
  Te  Te89  1  0.42503131  0.75000342  0.74183188  1
  Te  Te90  1  0.72141592  0.08145787  0.05944313  1
  Te  Te91  1  0.74216782  0.10316046  0.42256179  1
  Te  Te92  1  0.79254461  0.10757819  0.77301987  1
  Te  Te93  1  0.75120334  0.41707636  0.06206207  1
  Te  Te94  1  0.75306643  0.38774655  0.43797654  1
  Te  Te95  1  0.73241523  0.39310952  0.72021640  1
  Te  Te96  1  0.72774708  0.75230416  0.08967957  1
  Te  Te97  1  0.72907502  0.76622353  0.39521727  1
  Te  Te98  1  0.74039527  0.76921675  0.77648457  1
  Te  Te99  1  0.08909738  0.25300319  0.27235042  1
  Te  Te100  1  0.09246103  0.24368004  0.57545603  1
  Te  Te101  1  0.09805635  0.27483801  0.90696965  1
  Te  Te102  1  0.06563993  0.58176286  0.25248406  1
  Te  Te103  1  0.08594456  0.58636299  0.55683798  1
  Te  Te104  1  0.08887662  0.59421491  0.90828168  1
  Te  Te105  1  0.07063889  0.93292420  0.27569473  1
  Te  Te106  1  0.11349017  0.92945710  0.58316816  1
  Te  Te107  1  0.06419508  0.92611321  0.92207651  1
  Te  Te108  1  0.46526985  0.21905526  0.22659111  1
  Te  Te109  1  0.43689521  0.25196763  0.59986727  1
  Te  Te110  1  0.41898064  0.25436185  0.93821432  1
  Te  Te111  1  0.41936728  0.58274452  0.24349521  1
  Te  Te112  1  0.38992967  0.60334842  0.62623582  1
  Te  Te113  1  0.38656477  0.56122718  0.91086821  1
  Te  Te114  1  0.41634112  0.91264224  0.25142348  1
  Te  Te115  1  0.42152927  0.90743091  0.57889753  1
  Te  Te116  1  0.41360991  0.94201313  0.92585799  1
  Te  Te117  1  0.75425618  0.24017507  0.22333787  1
  Te  Te118  1  0.76928241  0.21443656  0.56513434  1
  Te  Te119  1  0.75594369  0.27308071  0.90410931  1
  Te  Te120  1  0.73529615  0.57200232  0.26641319  1
  Te  Te121  1  0.74735314  0.58401651  0.56949754  1
  Te  Te122  1  0.75588484  0.58637643  0.91998016  1
  Te  Te123  1  0.73000520  0.95593523  0.25285641  1
  Te  Te124  1  0.76938709  0.92211711  0.58739872  1
  Te  Te125  1  0.75980779  0.88476904  0.88283377  1
  Te  Te126  1  0.27260839  0.27591919  0.08026005  1
  Te  Te127  1  0.25088437  0.22555399  0.40371390  1
  Te  Te128  1  0.24653262  0.25590005  0.75342131  1
  Te  Te129  1  0.24222087  0.58287561  0.07375713  1
  Te  Te130  1  0.26223379  0.58162571  0.41614027  1
  Te  Te131  1  0.25890522  0.57896822  0.70579946  1
  Te  Te132  1  0.23352018  0.91408317  0.06803654  1
  Te  Te133  1  0.21553859  0.94786306  0.43640437  1
  Te  Te134  1  0.23362324  0.91207915  0.76707661  1
  Te  Te135  1  0.57067632  0.24952645  0.09830875  1
  Te  Te136  1  0.58881696  0.22380472  0.40376604  1
  Te  Te137  1  0.57578277  0.21098875  0.78077115  1
  Te  Te138  1  0.57214126  0.58449682  0.08826988  1
  Te  Te139  1  0.54127679  0.59876043  0.44565124  1
  Te  Te140  1  0.59513601  0.58654693  0.75114557  1
  Te  Te141  1  0.58221817  0.92688181  0.07295759  1
  Te  Te142  1  0.59007951  0.93320834  0.41673157  1
  Te  Te143  1  0.59810935  0.92139105  0.73086037  1
  Te  Te144  1  0.93354224  0.23413101  0.08176619  1
  Te  Te145  1  0.94997960  0.25312665  0.40247642  1
  Te  Te146  1  0.90719702  0.26336482  0.77862603  1
  Te  Te147  1  0.91239074  0.56474719  0.07678306  1
  Te  Te148  1  0.90450067  0.57603872  0.41443862  1
  Te  Te149  1  0.89900406  0.59918881  0.76612982  1
  Te  Te150  1  0.89234041  0.91327234  0.09313062  1
  Te  Te151  1  0.92002656  0.90432051  0.42916868  1
  Te  Te152  1  0.94574756  0.92080776  0.73383180  1
  Te  Te153  1  0.27087836  0.09072057  0.23492292  1
  Te  Te154  1  0.26555915  0.07585609  0.58040719  1
  Te  Te155  1  0.25264298  0.09128944  0.91478926  1
  Te  Te156  1  0.25914452  0.41239282  0.26136237  1
  Te  Te157  1  0.22546369  0.43462132  0.59705835  1
  Te  Te158  1  0.29710512  0.43588462  0.89140400  1
  Te  Te159  1  0.23277118  0.77861822  0.25853035  1
  Te  Te160  1  0.28928033  0.79082691  0.55804328  1
  Te  Te161  1  0.27063024  0.74267103  0.91634992  1
  Te  Te162  1  0.57278792  0.11998898  0.26363461  1
  Te  Te163  1  0.60845979  0.10491316  0.60277321  1
  Te  Te164  1  0.59672027  0.10559140  0.88979299  1
  Te  Te165  1  0.57300492  0.41307651  0.26206380  1
  Te  Te166  1  0.57722206  0.42222493  0.57697201  1
  Te  Te167  1  0.57951196  0.41871203  0.89720292  1
  Te  Te168  1  0.55543711  0.75031662  0.24906800  1
  Te  Te169  1  0.57304454  0.74114010  0.58139814  1
  Te  Te170  1  0.56676217  0.76120525  0.90417222  1
  Te  Te171  1  0.91910128  0.06921887  0.26982736  1
  Te  Te172  1  0.89698780  0.12902777  0.58812583  1
  Te  Te173  1  0.88063893  0.06169121  0.89671722  1
  Te  Te174  1  0.93481432  0.41167707  0.24513258  1
  Te  Te175  1  0.92610228  0.41533373  0.59145378  1
  Te  Te176  1  0.89214487  0.39425279  0.90053444  1
  Te  Te177  1  0.90005944  0.74762985  0.24297839  1
  Te  Te178  1  0.92170423  0.73524639  0.58635836  1
  Te  Te179  1  0.89831005  0.77298834  0.93331973  1
