# generated using pymatgen
data_In2Te3
_symmetry_space_group_name_H-M   'P 1'
_cell_length_a   18.83748612
_cell_length_b   18.82888412
_cell_length_c   18.83268994
_cell_angle_alpha   89.96686034
_cell_angle_beta   90.13796951
_cell_angle_gamma   90.12568407
_symmetry_Int_Tables_number   1
_chemical_formula_structural   In2Te3
_chemical_formula_sum   'In72 Te108'
_cell_volume   6679.70847490
_cell_formula_units_Z   36
loop_
 _symmetry_equiv_pos_site_id
 _symmetry_equiv_pos_as_xyz
  1  'x, y, z'
loop_
 _atom_site_type_symbol
 _atom_site_label
 _atom_site_symmetry_multiplicity
 _atom_site_fract_x
 _atom_site_fract_y
 _atom_site_fract_z
 _atom_site_occupancy
  In  In0  1  0.65181221  0.49152824  0.52303062  1
  In  In1  1  -0.00070552  0.65959640  0.03058110  1
  In  In2  1  0.17633227  0.50143706  0.66879259  1
  In  In3  1  0.83131450  0.33438491  0.81850373  1
  In  In4  1  0.36141406  0.17538508  0.48766577  1
  In  In5  1  0.69836209  -0.01712539  -0.00231559  1
  In  In6  1  0.64430711  0.69755702  0.32760373  1
  In  In7  1  0.15881494  0.32852271  0.83471497  1
  In  In8  1  0.84927551  0.15351000  -0.00119213  1
  In  In9  1  0.15712430  0.33062195  0.16871552  1
  In  In10  1  0.36960108  -0.02978077  0.32330817  1
  In  In11  1  0.50436179  -0.00120206  0.82118332  1
  In  In12  1  0.51222558  0.82599183  0.64554557  1
  In  In13  1  0.17745322  0.67393703  0.82033264  1
  In  In14  1  0.34047104  -0.00956816  0.68385681  1
  In  In15  1  -0.00285991  0.16104774  0.18503957  1
  In  In16  1  0.66007168  0.33097637  0.02257953  1
  In  In17  1  -0.00229991  -0.01092384  0.65022756  1
  In  In18  1  0.84922989  0.84494570  0.32484236  1
  In  In19  1  0.80002145  0.65396494  0.82921153  1
  In  In20  1  0.17328857  -0.02263584  0.17534849  1
  In  In21  1  0.33613866  0.68786094  0.34523738  1
  In  In22  1  -0.01782675  0.66972279  0.65454655  1
  In  In23  1  -0.01620843  0.47538632  0.50024267  1
  In  In24  1  0.00705600  0.84087086  0.84438834  1
  In  In25  1  -0.02618053  0.18468417  0.48156522  1
  In  In26  1  0.31890628  0.84160693  0.84178088  1
  In  In27  1  0.17527957  0.48978414  0.00808478  1
  In  In28  1  0.69179981  0.30900565  0.35250645  1
  In  In29  1  0.82909225  0.48549106  0.64886313  1
  In  In30  1  0.01961700  0.33416818  0.00849105  1
  In  In31  1  0.32421788  0.35106834  0.34803361  1
  In  In32  1  0.50376827  0.33886863  0.15854502  1
  In  In33  1  0.66948354  0.49063035  0.15812592  1
  In  In34  1  0.79658787  0.20009512  0.64564952  1
  In  In35  1  -0.00888415  -0.00534077  0.00920826  1
  In  In36  1  0.48157211  0.49750930  -0.01626421  1
  In  In37  1  0.33433646  0.18192138  0.15216713  1
  In  In38  1  0.65036664  0.16462291  0.82638636  1
  In  In39  1  0.16013977  0.00375924  0.84251048  1
  In  In40  1  0.15972596  0.16156805  -0.03244532  1
  In  In41  1  0.35540389  0.49514510  0.53477158  1
  In  In42  1  0.35187192  0.84896173  0.51094455  1
  In  In43  1  0.49644071  0.35003938  0.80029200  1
  In  In44  1  0.83348231  0.48260707  0.32096863  1
  In  In45  1  0.35737711  0.34632565  -0.01789375  1
  In  In46  1  0.54362964  0.18367718  0.34330344  1
  In  In47  1  0.83579146  0.83788494  -0.00857614  1
  In  In48  1  0.65048869  0.64688356  -0.02865361  1
  In  In49  1  0.34196563  0.66569872  0.64826388  1
  In  In50  1  0.51939548  0.63919101  0.80350632  1
  In  In51  1  0.16004441  0.16017587  0.33024718  1
  In  In52  1  0.50613900  0.18322830  0.02606676  1
  In  In53  1  0.17630577  0.67656923  0.48125961  1
  In  In54  1  0.16428084  0.17600209  0.66193407  1
  In  In55  1  0.51349768  0.17469862  0.63983453  1
  In  In56  1  0.81814813  0.82486259  0.66073307  1
  In  In57  1  0.84290747  0.66960084  0.16935512  1
  In  In58  1  0.16566405  0.65922825  0.16992015  1
  In  In59  1  0.68571374  0.83372671  0.17799253  1
  In  In60  1  0.32814186  0.02240926  0.01988604  1
  In  In61  1  0.48781006  0.50307839  0.34191295  1
  In  In62  1  0.82736115  0.65132249  0.48485186  1
  In  In63  1  0.15156725  0.00599070  0.51294726  1
  In  In64  1  0.81465471  0.02734163  0.46873221  1
  In  In65  1  0.00710933  0.47684812  0.83879025  1
  In  In66  1  0.51094863  0.81687384  0.00879459  1
  In  In67  1  0.82368782  -0.00890987  0.18618026  1
  In  In68  1  0.14617224  0.83693612  0.33486006  1
  In  In69  1  0.49748682  0.69401501  0.18074255  1
  In  In70  1  0.66867925  0.01873710  0.65642696  1
  In  In71  1  0.14209616  0.50046225  0.33716113  1
  Te  Te72  1  0.09670921  0.09262422  0.08782411  1
  Te  Te73  1  0.06337922  0.07667857  0.41218232  1
  Te  Te74  1  0.07450029  0.08323358  0.74486674  1
  Te  Te75  1  0.06896288  0.43933262  0.10633794  1
  Te  Te76  1  0.09933837  0.40518968  0.44102932  1
  Te  Te77  1  0.07595256  0.40111370  0.72801747  1
  Te  Te78  1  0.08321801  0.75901306  0.09575890  1
  Te  Te79  1  0.06464183  0.73988591  0.41043560  1
  Te  Te80  1  0.07742328  0.75561959  0.73891006  1
  Te  Te81  1  0.43838503  0.07713391  0.11292064  1
  Te  Te82  1  0.44226969  0.07880643  0.40207549  1
  Te  Te83  1  0.42443106  0.10161957  0.74543021  1
  Te  Te84  1  0.40122576  0.43299460  0.09920974  1
  Te  Te85  1  0.43518605  0.39967917  0.43906444  1
  Te  Te86  1  0.41395481  0.42482167  0.70325738  1
  Te  Te87  1  0.40570751  0.73684347  0.07330159  1
  Te  Te88  1  0.43709978  0.74333618  0.44226826  1
  Te  Te89  1  0.41233956  0.76411228  0.74712395  1
  Te  Te90  1  0.75008448  0.08849877  0.09481560  1
  Te  Te91  1  0.70808419  0.10117316  0.38858091  1
  Te  Te92  1  0.76060439  0.09180658  0.75405884  1
  Te  Te93  1  0.76358430  0.38932720  0.11022164  1
  Te  Te94  1  0.75786650  0.42112135  0.44047299  1
  Te  Te95  1  0.73536247  0.42804338  0.75152760  1
  Te  Te96  1  0.73666889  0.73952999  0.07010188  1
  Te  Te97  1  0.75100995  0.76213235  0.41208496  1
  Te  Te98  1  0.72419818  0.73520175  0.73324854  1
  Te  Te99  1  0.06750754  0.27029209  0.27536838  1
  Te  Te100  1  0.08423869  0.24609506  0.55877084  1
  Te  Te101  1  0.05031034  0.23707190  0.89562991  1
  Te  Te102  1  0.06279279  0.58701725  0.24974741  1
  Te  Te103  1  0.08512787  0.58591403  0.57748095  1
  Te  Te104  1  0.08528958  0.58368845  0.91404336  1
  Te  Te105  1  0.06332261  0.93469100  0.26081329  1
  Te  Te106  1  0.07988956  0.89364159  0.57408554  1
  Te  Te107  1  0.10004386  0.90851447  0.94512770  1
  Te  Te108  1  0.41376761  0.25671582  0.25972241  1
  Te  Te109  1  0.40123570  0.26407296  0.59915662  1
  Te  Te110  1  0.43922713  0.24639566  0.90497867  1
  Te  Te111  1  0.40646255  0.59102705  0.24943839  1
  Te  Te112  1  0.45416812  0.59865436  0.57895874  1
  Te  Te113  1  0.41618573  0.59858564  0.90029574  1
  Te  Te114  1  0.42132777  0.87914478  0.22203455  1
  Te  Te115  1  0.44477635  0.95390610  0.57943018  1
  Te  Te116  1  0.41954407  0.92604516  0.92555045  1
  Te  Te117  1  0.78554309  0.20724018  0.29151721  1
  Te  Te118  1  0.72669295  0.26427885  0.53259726  1
  Te  Te119  1  0.74400464  0.24459498  0.92052231  1
  Te  Te120  1  0.73464227  0.59156803  0.25769672  1
  Te  Te121  1  0.73873675  0.59712769  0.59504334  1
  Te  Te122  1  0.75574129  0.55448776  0.92823859  1
  Te  Te123  1  0.72199845  0.93447196  0.28632772  1
  Te  Te124  1  0.74886497  0.92448837  0.56746342  1
  Te  Te125  1  0.75497531  0.90470087  0.88838034  1
  Te  Te126  1  0.24160741  0.26531634  0.05611934  1
  Te  Te127  1  0.24188967  0.24854033  0.42438760  1
  Te  Te128  1  0.25262175  0.24616631  0.75790994  1
  Te  Te129  1  0.25803771  0.58895643  0.07729247  1
  Te  Te130  1  0.26768812  0.57076444  0.42068907  1
  Te  Te131  1  0.27605445  0.57838795  0.75454255  1
  Te  Te132  1  0.26400851  0.90756570  0.08475698  1
  Te  Te133  1  0.25530970  0.92688937  0.41633825  1
  Te  Te134  1  0.22539982  0.91041760  0.74076989  1
  Te  Te135  1  0.60818448  0.23194607  0.12894744  1
  Te  Te136  1  0.58863605  0.27441202  0.45719967  1
  Te  Te137  1  0.60227004  0.26603204  0.72505074  1
  Te  Te138  1  0.57089457  0.58384673  0.08882979  1
  Te  Te139  1  0.59023074  0.58593479  0.41780597  1
  Te  Te140  1  0.60841113  0.53381497  0.75055389  1
  Te  Te141  1  0.59439645  0.91767745  0.08803199  1
  Te  Te142  1  0.53552972  0.86763658  0.46451585  1
  Te  Te143  1  0.59711082  0.91286807  0.74186014  1
  Te  Te144  1  0.91895436  0.25265931  0.09191297  1
  Te  Te145  1  0.88986567  0.27255857  0.39169271  1
  Te  Te146  1  0.91127620  0.25416820  0.72455221  1
  Te  Te147  1  0.89892762  0.56530750  0.08216939  1
  Te  Te148  1  0.92767457  0.57580309  0.39991820  1
  Te  Te149  1  0.91871112  0.57157870  0.75263579  1
  Te  Te150  1  0.91665809  0.90161879  0.10364786  1
  Te  Te151  1  0.91717745  0.93199420  0.42275128  1
  Te  Te152  1  0.91077659  0.91161526  0.74984363  1
  Te  Te153  1  0.26626510  0.08521447  0.25143784  1
  Te  Te154  1  0.26788100  0.08068298  0.57733688  1
  Te  Te155  1  0.27365078  0.09304458  0.89571329  1
  Te  Te156  1  0.24504325  0.42906391  0.24455467  1
  Te  Te157  1  0.25200979  0.40421569  0.58716651  1
  Te  Te158  1  0.26045292  0.42620359  0.89754611  1
  Te  Te159  1  0.25119697  0.76660376  0.25072879  1
  Te  Te160  1  0.24573601  0.76457004  0.58463848  1
  Te  Te161  1  0.24332165  0.74957985  0.92772057  1
  Te  Te162  1  0.60134522  0.06336714  0.28043351  1
  Te  Te163  1  0.59582433  0.09054950  0.55013869  1
  Te  Te164  1  0.58371519  0.07810869  0.93406106  1
  Te  Te165  1  0.58952307  0.41026877  0.26722728  1
  Te  Te166  1  0.54905563  0.45183997  0.62748524  1
  Te  Te167  1  0.58345627  0.40876910  0.91664223  1
  Te  Te168  1  0.55044390  0.80727112  0.26986183  1
  Te  Te169  1  0.60557988  0.76688476  0.54793663  1
  Te  Te170  1  0.58266192  0.75477377  0.88989727  1
  Te  Te171  1  0.90065361  0.08794199  0.27257906  1
  Te  Te172  1  0.90132293  0.09227720  0.58530481  1
  Te  Te173  1  0.92006334  0.06747692  0.90354740  1
  Te  Te174  1  0.92616931  0.37642408  0.28071382  1
  Te  Te175  1  0.91553682  0.37994783  0.59203952  1
  Te  Te176  1  0.90845081  0.40696822  0.92936777  1
  Te  Te177  1  0.93411360  0.74745404  0.25395243  1
  Te  Te178  1  0.91081899  0.75946530  0.55679207  1
  Te  Te179  1  0.91593166  0.73485135  0.90948176  1
