# generated using pymatgen
data_In2Te3
_symmetry_space_group_name_H-M   'P 1'
_cell_length_a   19.02413240
_cell_length_b   19.03137472
_cell_length_c   19.02676432
_cell_angle_alpha   90.34262183
_cell_angle_beta   90.26222427
_cell_angle_gamma   90.07133591
_symmetry_Int_Tables_number   1
_chemical_formula_structural   In2Te3
_chemical_formula_sum   'In72 Te108'
_cell_volume   6888.54173382
_cell_formula_units_Z   36
loop_
 _symmetry_equiv_pos_site_id
 _symmetry_equiv_pos_as_xyz
  1  'x, y, z'
loop_
 _atom_site_type_symbol
 _atom_site_label
 _atom_site_symmetry_multiplicity
 _atom_site_fract_x
 _atom_site_fract_y
 _atom_site_fract_z
 _atom_site_occupancy
  In  In0  1  0.15921261  0.49697065  -0.02150629  1
  In  In1  1  0.15151101  0.82777076  0.00478547  1
  In  In2  1  0.66700935  0.30531144  0.00019391  1
  In  In3  1  0.00793329  0.18005805  0.14900484  1
  In  In4  1  0.85089973  -0.02020685  0.49839402  1
  In  In5  1  0.83147056  -0.01637493  0.17072318  1
  In  In6  1  0.29442177  0.32661868  0.67164589  1
  In  In7  1  0.48330963  0.82676378  0.31812683  1
  In  In8  1  0.16877494  0.67234732  0.80493175  1
  In  In9  1  0.49945327  0.81456753  0.64904267  1
  In  In10  1  0.16953925  0.01347562  0.49737271  1
  In  In11  1  0.31547770  0.32821559  0.02527525  1
  In  In12  1  0.64886458  0.83857244  0.17559550  1
  In  In13  1  0.82831698  0.81940882  -0.01114052  1
  In  In14  1  0.34206702  0.66948643  0.01041104  1
  In  In15  1  0.49819422  0.34107973  0.84104886  1
  In  In16  1  0.65957333  0.34700411  0.66681231  1
  In  In17  1  0.04767870  0.48852953  0.17232775  1
  In  In18  1  0.33679565  0.17315663  0.83416877  1
  In  In19  1  0.81941109  0.63782358  0.50742504  1
  In  In20  1  0.18122743  -0.00202865  0.85004454  1
  In  In21  1  0.47885588  0.49346088  0.00772332  1
  In  In22  1  0.29826243  0.47841812  0.19454700  1
  In  In23  1  0.66892960  0.81286934  0.82234860  1
  In  In24  1  0.28485585  0.20446956  0.48938995  1
  In  In25  1  0.03250733  0.34171794  0.65578720  1
  In  In26  1  0.17578687  0.02095209  0.14648904  1
  In  In27  1  0.82972225  0.16972758  0.33107013  1
  In  In28  1  0.68202459  0.17883685  0.82129203  1
  In  In29  1  0.66246715  0.81201281  0.47809003  1
  In  In30  1  -0.00960903  0.79176442  0.82118104  1
  In  In31  1  0.31930089  0.01706685  0.33640718  1
  In  In32  1  0.32934042  0.47899651  0.49696209  1
  In  In33  1  0.32653535  0.66814352  0.35788782  1
  In  In34  1  0.50467964  0.64672508  0.16786491  1
  In  In35  1  0.01659629  -0.00158269  0.68195009  1
  In  In36  1  0.45919684  0.15784723  0.65269939  1
  In  In37  1  0.52553953  0.16017363  0.02066021  1
  In  In38  1  0.03047357  0.51723347  0.51279171  1
  In  In39  1  0.64365488  -0.00178198  0.67373467  1
  In  In40  1  0.83928786  0.50130479  -0.00145782  1
  In  In41  1  0.34029334  0.17408531  0.15334137  1
  In  In42  1  0.84067940  0.31073674  0.17397769  1
  In  In43  1  0.67110257  0.01879268  0.33092326  1
  In  In44  1  0.84183800  0.31805700  0.84663184  1
  In  In45  1  0.31904832  0.84233202  0.17208317  1
  In  In46  1  0.01846822  0.35645565  0.34265415  1
  In  In47  1  0.02441823  0.13356860  0.92431563  1
  In  In48  1  0.81504397  0.49324574  0.33794355  1
  In  In49  1  0.84223520  0.82678168  0.64872411  1
  In  In50  1  0.50686532  0.35064178  0.47540306  1
  In  In51  1  0.15864711  0.83212414  0.32597228  1
  In  In52  1  0.66673538  0.18090788  0.18873848  1
  In  In53  1  0.82725067  0.36298895  0.50989480  1
  In  In54  1  0.51554210  0.63719697  0.47958019  1
  In  In55  1  -0.01719959  0.53131770  0.78947905  1
  In  In56  1  0.49014334  -0.00699844  0.51776472  1
  In  In57  1  0.33436645  0.84026811  0.80865502  1
  In  In58  1  0.48245900  0.18627867  0.34006646  1
  In  In59  1  0.67927563  -0.00013942  -0.00377135  1
  In  In60  1  0.65472595  0.48158789  0.18221079  1
  In  In61  1  0.00464231  0.83083208  0.15415916  1
  In  In62  1  0.49804955  0.52740264  0.68139113  1
  In  In63  1  0.83851909  0.17358847  0.67234320  1
  In  In64  1  0.85238315  0.66696210  0.15105036  1
  In  In65  1  0.69526778  0.51984014  0.82424342  1
  In  In66  1  0.02330948  0.17937538  0.48850846  1
  In  In67  1  0.33191785  0.51221528  0.84832169  1
  In  In68  1  0.50239527  0.85103723  -0.02866113  1
  In  In69  1  0.30569026  0.80838028  0.54071170  1
  In  In70  1  0.02095898  0.64810377  0.30806342  1
  In  In71  1  0.01063908  0.84281755  0.47358284  1
  Te  Te72  1  0.06142087  0.06877324  0.06121348  1
  Te  Te73  1  0.09131014  0.08755215  0.39940207  1
  Te  Te74  1  0.07747930  0.08880615  0.78439009  1
  Te  Te75  1  0.09488658  0.39569543  0.06667871  1
  Te  Te76  1  0.10630541  0.39938813  0.45586241  1
  Te  Te77  1  0.08839209  0.43756507  0.75191776  1
  Te  Te78  1  0.08979635  0.73025605  0.09241527  1
  Te  Te79  1  0.09411899  0.73025275  0.41451419  1
  Te  Te80  1  0.07079800  0.73485278  0.70855016  1
  Te  Te81  1  0.42625795  0.07727702  0.08542385  1
  Te  Te82  1  0.40527784  0.09194306  0.43695016  1
  Te  Te83  1  0.41306917  0.07266794  0.75876351  1
  Te  Te84  1  0.41109302  0.41265864  0.10998096  1
  Te  Te85  1  0.42265107  0.43489124  0.38875161  1
  Te  Te86  1  0.41027625  0.41267508  0.74408087  1
  Te  Te87  1  0.42791103  0.76044539  0.09820928  1
  Te  Te88  1  0.42286106  0.75860506  0.43805179  1
  Te  Te89  1  0.41059002  0.73852939  0.73566340  1
  Te  Te90  1  0.74826750  0.08904531  0.10085085  1
  Te  Te91  1  0.75820751  0.08604674  0.43365217  1
  Te  Te92  1  0.75701345  0.06961082  0.74611709  1
  Te  Te93  1  0.75303627  0.40778673  0.08492071  1
  Te  Te94  1  0.72303822  0.44633438  0.44416851  1
  Te  Te95  1  0.76849164  0.40987629  0.74924569  1
  Te  Te96  1  0.74099795  0.75200544  0.09154478  1
  Te  Te97  1  0.76433482  0.73281780  0.41153561  1
  Te  Te98  1  0.76762749  0.73555361  0.73936660  1
  Te  Te99  1  0.08323491  0.26750720  0.24378187  1
  Te  Te100  1  0.10464230  0.22286756  0.60179745  1
  Te  Te101  1  0.04925709  0.27487635  0.96052271  1
  Te  Te102  1  0.12762534  0.54664038  0.28294982  1
  Te  Te103  1  0.09242354  0.61278983  0.60845027  1
  Te  Te104  1  0.07912736  0.59335837  0.89704170  1
  Te  Te105  1  0.09087397  0.92837780  0.23342221  1
  Te  Te106  1  0.09242774  0.91441765  0.58046518  1
  Te  Te107  1  0.07326310  0.89506974  0.89724493  1
  Te  Te108  1  0.38841713  0.26655314  0.26047464  1
  Te  Te109  1  0.40357526  0.26969669  0.56762772  1
  Te  Te110  1  0.42975515  0.25603460  0.94233615  1
  Te  Te111  1  0.39842890  0.58420983  0.25200754  1
  Te  Te112  1  0.41036374  0.58651655  0.57295578  1
  Te  Te113  1  0.43708452  0.60146213  0.91293178  1
  Te  Te114  1  0.41205187  0.93738938  0.24523515  1
  Te  Te115  1  0.39370283  0.91800632  0.60275606  1
  Te  Te116  1  0.40161558  0.92957272  0.90526375  1
  Te  Te117  1  0.73793688  0.27965913  0.28047104  1
  Te  Te118  1  0.74806259  0.25564089  0.58349530  1
  Te  Te119  1  0.77725040  0.21090525  0.94030859  1
  Te  Te120  1  0.75412876  0.58410781  0.23461846  1
  Te  Te121  1  0.78068863  0.56142932  0.62424899  1
  Te  Te122  1  0.77318231  0.60509219  0.91843178  1
  Te  Te123  1  0.74916119  0.90494595  0.26916942  1
  Te  Te124  1  0.72954001  0.91406671  0.57912165  1
  Te  Te125  1  0.75551983  0.91494321  0.89815529  1
  Te  Te126  1  0.23227118  0.21002624  0.05520236  1
  Te  Te127  1  0.23161536  0.30598092  0.39919207  1
  Te  Te128  1  0.22767858  0.25014099  0.77438784  1
  Te  Te129  1  0.25447365  0.56648179  0.07644437  1
  Te  Te130  1  0.23993557  0.56032685  0.40784493  1
  Te  Te131  1  0.27482289  0.59300966  0.74229513  1
  Te  Te132  1  0.25516130  0.92310699  0.06295991  1
  Te  Te133  1  0.26091254  0.90136840  0.41499263  1
  Te  Te134  1  0.22714631  0.91239753  0.74079699  1
  Te  Te135  1  0.57434386  0.27475055  0.11451152  1
  Te  Te136  1  0.59252388  0.25108582  0.41286379  1
  Te  Te137  1  0.56823253  0.24670916  0.74367284  1
  Te  Te138  1  0.59198179  0.56973122  0.07185285  1
  Te  Te139  1  0.60940188  0.55716397  0.40039090  1
  Te  Te140  1  0.60374677  0.60422855  0.74661725  1
  Te  Te141  1  0.57737471  0.93241375  0.08433571  1
  Te  Te142  1  0.57183441  0.92428728  0.40942064  1
  Te  Te143  1  0.56546819  0.90281759  0.75607745  1
  Te  Te144  1  0.92905868  0.27346839  0.05987919  1
  Te  Te145  1  0.91148979  0.27074184  0.41989590  1
  Te  Te146  1  0.93692676  0.25883267  0.74570952  1
  Te  Te147  1  0.94505474  0.56616497  0.08822735  1
  Te  Te148  1  0.93054800  0.56706815  0.40565069  1
  Te  Te149  1  0.87659323  0.61864979  0.72519261  1
  Te  Te150  1  0.91639473  0.91654034  0.06586521  1
  Te  Te151  1  0.92856269  0.92801413  0.38806575  1
  Te  Te152  1  0.91706622  0.90901744  0.75104709  1
  Te  Te153  1  0.23737993  0.10890696  0.25324674  1
  Te  Te154  1  0.24150269  0.10542877  0.58790454  1
  Te  Te155  1  0.25501036  0.09816826  0.93345533  1
  Te  Te156  1  0.23742338  0.35581490  0.25133035  1
  Te  Te157  1  0.22624742  0.42698647  0.59035786  1
  Te  Te158  1  0.25231022  0.39980839  0.90772721  1
  Te  Te159  1  0.24460458  0.73690899  0.24534186  1
  Te  Te160  1  0.21496589  0.70353827  0.58038496  1
  Te  Te161  1  0.25098107  0.74533023  0.91847371  1
  Te  Te162  1  0.56572598  0.08922140  0.25181619  1
  Te  Te163  1  0.57992264  0.09798457  0.58076355  1
  Te  Te164  1  0.59359382  0.08713278  0.90601012  1
  Te  Te165  1  0.56105251  0.45822775  0.29174297  1
  Te  Te166  1  0.57349891  0.43717899  0.58495666  1
  Te  Te167  1  0.61160920  0.41288845  0.90937830  1
  Te  Te168  1  0.58689184  0.73184152  0.26504110  1
  Te  Te169  1  0.59863805  0.72318504  0.57885555  1
  Te  Te170  1  0.59480218  0.74885443  0.93049923  1
  Te  Te171  1  0.91618915  0.09180413  0.23752768  1
  Te  Te172  1  0.92762022  0.08196268  0.58308199  1
  Te  Te173  1  0.88467189  0.10979015  0.89246389  1
  Te  Te174  1  0.91863127  0.42287752  0.24253775  1
  Te  Te175  1  0.92913156  0.43583451  0.59240338  1
  Te  Te176  1  0.92605462  0.43333274  0.89633353  1
  Te  Te177  1  0.92406329  0.75152637  0.25491032  1
  Te  Te178  1  0.92074493  0.74790323  0.54914507  1
  Te  Te179  1  0.90866624  0.71729825  0.91967283  1
