# generated using pymatgen
data_In2Te3
_symmetry_space_group_name_H-M   'P 1'
_cell_length_a   18.88431676
_cell_length_b   18.89510134
_cell_length_c   18.90579358
_cell_angle_alpha   89.89747908
_cell_angle_beta   90.13673601
_cell_angle_gamma   89.95000407
_symmetry_Int_Tables_number   1
_chemical_formula_structural   In2Te3
_chemical_formula_sum   'In72 Te108'
_cell_volume   6745.95306281
_cell_formula_units_Z   36
loop_
 _symmetry_equiv_pos_site_id
 _symmetry_equiv_pos_as_xyz
  1  'x, y, z'
loop_
 _atom_site_type_symbol
 _atom_site_label
 _atom_site_symmetry_multiplicity
 _atom_site_fract_x
 _atom_site_fract_y
 _atom_site_fract_z
 _atom_site_occupancy
  In  In0  1  0.55902350  0.72497387  0.85761044  1
  In  In1  1  0.50198695  0.50990444  0.34154833  1
  In  In2  1  0.49878765  0.19736186  -0.01869112  1
  In  In3  1  0.81608905  0.68424191  0.83982314  1
  In  In4  1  -0.01792426  0.33036082  -0.00323082  1
  In  In5  1  0.80903782  0.01978815  0.15998492  1
  In  In6  1  0.51490204  0.82862571  0.31353833  1
  In  In7  1  0.15335085  0.84381986  0.34631225  1
  In  In8  1  -0.01651937  0.80574447  0.50743777  1
  In  In9  1  0.36995071  0.00051197  0.01081278  1
  In  In10  1  -0.01012405  0.66316482  -0.02479491  1
  In  In11  1  0.82519789  0.16453774  0.00562513  1
  In  In12  1  0.17509711  0.35891614  0.14478494  1
  In  In13  1  -0.04583195  0.16950438  0.47887308  1
  In  In14  1  0.15919502  0.70307680  0.79163681  1
  In  In15  1  -0.01460964  0.50088284  0.86066060  1
  In  In16  1  0.67550336  0.82705552  0.48429975  1
  In  In17  1  0.35136678  0.49102387  0.17998627  1
  In  In18  1  0.13017190  0.63380631  0.16564010  1
  In  In19  1  0.34677759  0.81409975  0.17645137  1
  In  In20  1  0.52005061  0.15646242  0.69615305  1
  In  In21  1  0.53503206  0.02068369  0.16030446  1
  In  In22  1  0.70433417  0.52055255  0.18001203  1
  In  In23  1  0.68790361  0.66810251  0.66290753  1
  In  In24  1  0.69142687  0.83029914  0.17043910  1
  In  In25  1  0.80961742  0.49283328  0.66746564  1
  In  In26  1  0.65716912  0.32840057  0.32245794  1
  In  In27  1  0.50390085  0.17302568  0.33577648  1
  In  In28  1  -0.02909402  -0.00221477  0.63830146  1
  In  In29  1  0.49921073  0.34853755  0.50205683  1
  In  In30  1  0.11870343  0.18734558  0.67019434  1
  In  In31  1  0.84410874  0.81655785  0.32912498  1
  In  In32  1  0.66912357  0.17901843  0.84730131  1
  In  In33  1  0.51117222  0.49851725  0.66420645  1
  In  In34  1  0.15040661  0.49221056  0.63848929  1
  In  In35  1  0.32789355  0.17014694  0.50446540  1
  In  In36  1  -0.05333897  0.49540020  0.19955468  1
  In  In37  1  0.19467975  0.16916987  0.02421098  1
  In  In38  1  0.35583054  0.02296366  0.67157093  1
  In  In39  1  0.00530665  0.17017873  0.14872097  1
  In  In40  1  0.14935794  0.80195794  0.67746560  1
  In  In41  1  0.81294261  0.18330042  0.34692653  1
  In  In42  1  -0.02958413  -0.01376011  0.00377752  1
  In  In43  1  0.18690856  -0.01764720  0.48817700  1
  In  In44  1  0.33524429  0.67564832  0.64911284  1
  In  In45  1  0.32452181  0.66747344  0.33640685  1
  In  In46  1  0.50808283  0.85692005  0.68219245  1
  In  In47  1  0.33609522  0.85172350  0.83916266  1
  In  In48  1  0.50526483  0.65434432  0.49192852  1
  In  In49  1  0.33237829  0.32542817  0.69421357  1
  In  In50  1  0.17382046  -0.01142233  0.19031634  1
  In  In51  1  0.13656013  0.30190668  0.82062758  1
  In  In52  1  0.01692820  0.00747419  0.32683366  1
  In  In53  1  0.18103710  0.47619513  -0.02774451  1
  In  In54  1  0.31919146  0.48336486  0.83495755  1
  In  In55  1  -0.03896514  0.51340253  0.48210960  1
  In  In56  1  0.15556746  0.17235179  0.31317252  1
  In  In57  1  -0.02739471  0.85951745  0.82937483  1
  In  In58  1  0.83056803  0.33814061  0.49323167  1
  In  In59  1  0.17574859  0.80513763  0.00342855  1
  In  In60  1  0.51994282  0.49164599  -0.00057917  1
  In  In61  1  0.15454193  0.64819700  0.48812910  1
  In  In62  1  0.82504526  0.47624775  -0.00144045  1
  In  In63  1  0.15059356  0.34248027  0.48251817  1
  In  In64  1  0.81869628  0.00475560  0.50030220  1
  In  In65  1  0.50707816  -0.00039248  0.52507666  1
  In  In66  1  0.50503031  0.31562066  0.16106716  1
  In  In67  1  0.17004937  0.01595338  0.83539901  1
  In  In68  1  0.36591173  0.64944016  0.01924460  1
  In  In69  1  0.66663163  0.47564512  0.82083849  1
  In  In70  1  0.54395215  0.69163258  0.15707491  1
  In  In71  1  0.68632079  0.01307320  0.69818021  1
  Te  Te72  1  0.08815565  0.05935239  0.08163885  1
  Te  Te73  1  0.08563516  0.09332140  0.43359996  1
  Te  Te74  1  0.05829255  0.06635148  0.74765011  1
  Te  Te75  1  0.06598691  0.43722097  0.06524811  1
  Te  Te76  1  0.07429396  0.44747922  0.40943234  1
  Te  Te77  1  0.08585359  0.43573595  0.76334371  1
  Te  Te78  1  0.06286770  0.74435896  0.08407355  1
  Te  Te79  1  0.06409981  0.73501724  0.39996051  1
  Te  Te80  1  0.01248541  0.74382996  0.73404326  1
  Te  Te81  1  0.42932369  0.10839250  0.09589962  1
  Te  Te82  1  0.42063749  0.07905832  0.42690638  1
  Te  Te83  1  0.43357134  0.07481357  0.78497923  1
  Te  Te84  1  0.41619637  0.40833007  0.07292378  1
  Te  Te85  1  0.41078366  0.40860369  0.39908180  1
  Te  Te86  1  0.43641957  0.41055428  0.76498671  1
  Te  Te87  1  0.44480414  0.76854005  0.06785406  1
  Te  Te88  1  0.42290131  0.75535571  0.41192536  1
  Te  Te89  1  0.41969758  0.74855600  0.75276481  1
  Te  Te90  1  0.72338368  0.06340316  0.04788025  1
  Te  Te91  1  0.72992099  0.07793670  0.40917102  1
  Te  Te92  1  0.77558317  0.09368244  0.78457988  1
  Te  Te93  1  0.74631189  0.40530414  0.09980331  1
  Te  Te94  1  0.75090315  0.42151002  0.39586100  1
  Te  Te95  1  0.72868965  0.38072392  0.72381993  1
  Te  Te96  1  0.74021984  0.72353552  0.08127304  1
  Te  Te97  1  0.78801387  0.73761118  0.44487351  1
  Te  Te98  1  0.74014617  0.77974031  0.75035271  1
  Te  Te99  1  0.07764961  0.27377836  0.23276074  1
  Te  Te100  1  0.04707508  0.26430205  0.55897679  1
  Te  Te101  1  0.07939133  0.22678525  0.94272555  1
  Te  Te102  1  0.06594536  0.55176485  0.27070965  1
  Te  Te103  1  0.05216270  0.59273058  0.58482078  1
  Te  Te104  1  0.10612210  0.59691133  0.90154665  1
  Te  Te105  1  0.06162222  0.89540437  0.23535210  1
  Te  Te106  1  0.08361629  0.91133850  0.57672154  1
  Te  Te107  1  0.09929637  0.90182777  0.91193983  1
  Te  Te108  1  0.42006993  0.28145244  0.27785193  1
  Te  Te109  1  0.42578276  0.24069371  0.59781798  1
  Te  Te110  1  0.40112897  0.27596661  0.90516605  1
  Te  Te111  1  0.43146686  0.60953775  0.23380600  1
  Te  Te112  1  0.40932219  0.56722711  0.57227137  1
  Te  Te113  1  0.42605419  0.57150101  0.90572674  1
  Te  Te114  1  0.43172647  0.92576710  0.23161079  1
  Te  Te115  1  0.40042856  0.90778626  0.58445453  1
  Te  Te116  1  0.44229388  0.90372311  0.92664068  1
  Te  Te117  1  0.72090444  0.22492598  0.23564521  1
  Te  Te118  1  0.77047770  0.22867992  0.56771184  1
  Te  Te119  1  0.76130952  0.27063277  0.92226314  1
  Te  Te120  1  0.79917477  0.60108133  0.26783458  1
  Te  Te121  1  0.73454838  0.56964411  0.56499521  1
  Te  Te122  1  0.74376987  0.57160181  0.91161710  1
  Te  Te123  1  0.75605403  0.92436829  0.27108605  1
  Te  Te124  1  0.74028669  0.91282194  0.59086558  1
  Te  Te125  1  0.71074904  0.88129130  0.86746528  1
  Te  Te126  1  0.26931229  0.24803903  0.12093014  1
  Te  Te127  1  0.24777756  0.25384108  0.40648604  1
  Te  Te128  1  0.24695941  0.21798262  0.75398365  1
  Te  Te129  1  0.24637247  0.57579835  0.07617688  1
  Te  Te130  1  0.25752838  0.56858862  0.42018866  1
  Te  Te131  1  0.24973254  0.57842575  0.73067989  1
  Te  Te132  1  0.25806439  0.90783807  0.08216251  1
  Te  Te133  1  0.27143619  0.91977274  0.38666464  1
  Te  Te134  1  0.24325583  0.92003520  0.73927468  1
  Te  Te135  1  0.59832803  0.23184881  0.08621309  1
  Te  Te136  1  0.59224593  0.24906853  0.43502899  1
  Te  Te137  1  0.60341089  0.26819471  0.74434161  1
  Te  Te138  1  0.61426647  0.58928969  0.07116010  1
  Te  Te139  1  0.60726971  0.57850196  0.41879809  1
  Te  Te140  1  0.58634270  0.59892879  0.75453369  1
  Te  Te141  1  0.61248504  0.92231700  0.08047130  1
  Te  Te142  1  0.58056092  0.92288880  0.41482094  1
  Te  Te143  1  0.58851999  0.93329576  0.78384896  1
  Te  Te144  1  0.89737477  0.26585362  0.10390348  1
  Te  Te145  1  0.92832760  0.28229151  0.37632536  1
  Te  Te146  1  1.01243000  0.24482346  0.75923433  1
  Te  Te147  1  0.91126667  0.57629387  0.07372884  1
  Te  Te148  1  0.89306159  0.61440209  0.39288436  1
  Te  Te149  1  0.89495729  0.57533779  0.76460536  1
  Te  Te150  1  0.88644795  0.91109807  0.09558825  1
  Te  Te151  1  0.92641045  0.92824749  0.42135093  1
  Te  Te152  1  0.88325410  0.93757002  0.74110516  1
  Te  Te153  1  0.25988952  0.08516456  0.25778242  1
  Te  Te154  1  0.23468502  0.08497233  0.59130334  1
  Te  Te155  1  0.27203624  0.08379171  0.92509129  1
  Te  Te156  1  0.23878486  0.43609195  0.25406516  1
  Te  Te157  1  0.25549961  0.39722651  0.58347117  1
  Te  Te158  1  0.27347473  0.36456702  0.92284310  1
  Te  Te159  1  0.22880247  0.73727336  0.23675051  1
  Te  Te160  1  0.23943218  0.75285412  0.56077441  1
  Te  Te161  1  0.27202276  0.73159515  0.91200632  1
  Te  Te162  1  0.61089159  0.09670609  0.26353047  1
  Te  Te163  1  0.60787522  0.09067844  0.59175712  1
  Te  Te164  1  0.56308562  0.08843313  0.90230234  1
  Te  Te165  1  0.58138637  0.43615494  0.23262870  1
  Te  Te166  1  0.60199957  0.42521939  0.57485858  1
  Te  Te167  1  0.60633909  0.39635815  0.92910992  1
  Te  Te168  1  0.62538939  0.73304263  0.27694700  1
  Te  Te169  1  0.57502719  0.75718368  0.58713340  1
  Te  Te170  1  0.65395675  0.77940978  0.96761103  1
  Te  Te171  1  0.91900440  0.09514705  0.25127001  1
  Te  Te172  1  0.87435138  0.12078934  0.60109298  1
  Te  Te173  1  0.90950560  0.08281302  0.91302973  1
  Te  Te174  1  0.86835212  0.40970543  0.29160698  1
  Te  Te175  1  0.91749791  0.41606613  0.59224524  1
  Te  Te176  1  0.89054184  0.38406928  0.88622265  1
  Te  Te177  1  0.90317746  0.71204974  0.24447893  1
  Te  Te178  1  0.90991490  0.74947573  0.61851428  1
  Te  Te179  1  0.89646862  0.77537365  0.93260060  1
