# generated using pymatgen
data_In2Te3
_symmetry_space_group_name_H-M   'P 1'
_cell_length_a   18.76565154
_cell_length_b   18.76858373
_cell_length_c   18.77077002
_cell_angle_alpha   89.95929781
_cell_angle_beta   90.06533932
_cell_angle_gamma   90.01333827
_symmetry_Int_Tables_number   1
_chemical_formula_structural   In2Te3
_chemical_formula_sum   'In72 Te108'
_cell_volume   6611.14731930
_cell_formula_units_Z   36
loop_
 _symmetry_equiv_pos_site_id
 _symmetry_equiv_pos_as_xyz
  1  'x, y, z'
loop_
 _atom_site_type_symbol
 _atom_site_label
 _atom_site_symmetry_multiplicity
 _atom_site_fract_x
 _atom_site_fract_y
 _atom_site_fract_z
 _atom_site_occupancy
  In  In0  1  0.17184021  0.63494261  0.49669234  1
  In  In1  1  0.16881602  0.48089604  0.33333445  1
  In  In2  1  -0.02512258  0.30336132  0.35405753  1
  In  In3  1  -0.01462013  0.14881563  0.18444606  1
  In  In4  1  0.16818256  0.84284596  0.65894299  1
  In  In5  1  0.00385660  0.64074729  0.69246315  1
  In  In6  1  0.16445646  0.16640608  0.34473578  1
  In  In7  1  0.33446906  0.16961479  0.50545894  1
  In  In8  1  0.52778825  0.47966860  0.64793037  1
  In  In9  1  0.68614675  -0.00065742  0.34281282  1
  In  In10  1  0.66152324  0.51074565  0.15071746  1
  In  In11  1  0.00841638  0.32471039  -0.01912893  1
  In  In12  1  0.15810437  0.01809842  0.14448622  1
  In  In13  1  -0.01486506  0.01728432  -0.00711719  1
  In  In14  1  0.49270671  0.00875703  0.83650648  1
  In  In15  1  0.34473870  0.03093035  0.65766386  1
  In  In16  1  0.52328119  0.84787136  0.69831562  1
  In  In17  1  -0.01643320  0.65555728  0.35679193  1
  In  In18  1  0.36351078  0.63760160  0.66802601  1
  In  In19  1  0.16551143  0.03316804  0.47837644  1
  In  In20  1  0.31647861  0.49099695  0.84006719  1
  In  In21  1  0.14887037  0.46922005  0.66572909  1
  In  In22  1  0.69180345  0.66849274  0.68172773  1
  In  In23  1  0.70202986  0.85393565  0.51831029  1
  In  In24  1  0.67554174  0.83782156  0.16906574  1
  In  In25  1  0.50050679  0.33364586  0.83950435  1
  In  In26  1  0.19609003  0.30317323  0.13788364  1
  In  In27  1  0.16255728  0.68519289  0.15220005  1
  In  In28  1  0.32608864  0.84362394  0.85468437  1
  In  In29  1  -0.01377382  0.00258287  0.67149647  1
  In  In30  1  0.34593539  0.00684611  -0.00393517  1
  In  In31  1  -0.01646004  0.32072033  0.67161851  1
  In  In32  1  0.31347393  0.31403314  0.67277977  1
  In  In33  1  0.82534114  0.83589685  0.32501943  1
  In  In34  1  0.65320981  0.65369120  0.31291962  1
  In  In35  1  0.51746149  0.83444601  0.33993499  1
  In  In36  1  0.15651354  0.83077808  0.01173295  1
  In  In37  1  0.49791754  0.17368385  -0.00294149  1
  In  In38  1  0.83123100  0.00344799  0.51003886  1
  In  In39  1  0.36437319  0.79352615  0.13519277  1
  In  In40  1  -0.04473976  0.82608495  0.85693873  1
  In  In41  1  0.68934733  0.14904054  0.82464363  1
  In  In42  1  0.16251383  0.49317685  -0.01454509  1
  In  In43  1  0.35616448  0.83333971  0.51061832  1
  In  In44  1  -0.01707004  0.50256048  0.16830823  1
  In  In45  1  0.52537763  0.68907208  0.86484065  1
  In  In46  1  0.50189875  0.15123598  0.66053476  1
  In  In47  1  0.84015260  0.33216894  0.83459167  1
  In  In48  1  0.80337241  0.34263675  0.16343167  1
  In  In49  1  0.68094781  0.53257344  0.85093370  1
  In  In50  1  0.82870873  0.66581613  0.16058572  1
  In  In51  1  0.83068745  0.16989125  -0.00606752  1
  In  In52  1  0.83511195  0.65092357  0.51440072  1
  In  In53  1  0.81801055  0.85128188  0.67794041  1
  In  In54  1  0.49578341  0.50962804  0.01143227  1
  In  In55  1  0.51946990  0.65587903  0.49729650  1
  In  In56  1  0.49090915  0.33581949  0.16587858  1
  In  In57  1  0.15803848  0.66862078  0.85050089  1
  In  In58  1  0.15836839  0.03290882  0.83855927  1
  In  In59  1  0.00648581  0.85744861  0.14320225  1
  In  In60  1  0.69408286  0.31546283  0.63918920  1
  In  In61  1  0.33001013  0.01291589  0.33650424  1
  In  In62  1  0.50944032  -0.01984482  0.16632861  1
  In  In63  1  0.70364727  0.33725025  0.35691337  1
  In  In64  1  0.34351894  0.50535572  0.17020537  1
  In  In65  1  -0.02615635  0.83697542  0.47995724  1
  In  In66  1  0.16041440  0.32224589  0.50185509  1
  In  In67  1  0.48318481  0.46430469  0.34178258  1
  In  In68  1  0.17185885  0.83107469  0.29926686  1
  In  In69  1  0.84133545  0.49232391  0.66363816  1
  In  In70  1  0.67863003  0.16131948  0.15219793  1
  In  In71  1  0.50534258  0.19604045  0.33972119  1
  Te  Te72  1  0.07704764  0.11739954  0.06423401  1
  Te  Te73  1  0.05175969  0.10647746  0.41921396  1
  Te  Te74  1  0.07572341  0.10168798  0.73932978  1
  Te  Te75  1  0.08732642  0.41322486  0.09574351  1
  Te  Te76  1  0.06553638  0.41127213  0.42080356  1
  Te  Te77  1  0.05487692  0.41451311  0.76520741  1
  Te  Te78  1  0.05067688  0.73263012  0.06068072  1
  Te  Te79  1  0.09255775  0.75289946  0.41670231  1
  Te  Te80  1  0.07429401  0.76779422  0.75401751  1
  Te  Te81  1  0.42228411  0.08779594  0.10074695  1
  Te  Te82  1  0.43009219  0.08228602  0.42514194  1
  Te  Te83  1  0.40111474  0.11379330  0.77274622  1
  Te  Te84  1  0.39780891  0.40655843  0.06551719  1
  Te  Te85  1  0.39592381  0.41925346  0.44947764  1
  Te  Te86  1  0.41597588  0.42367391  0.74115984  1
  Te  Te87  1  0.45655367  0.70655356  0.06163210  1
  Te  Te88  1  0.42126688  0.73739016  0.41139668  1
  Te  Te89  1  0.41039504  0.75822793  0.75550307  1
  Te  Te90  1  0.75222779  0.06673246  0.06666134  1
  Te  Te91  1  0.73809812  0.10172494  0.43908924  1
  Te  Te92  1  0.77467389  0.07949853  0.72729816  1
  Te  Te93  1  0.74785109  0.43170214  0.05952707  1
  Te  Te94  1  0.79576910  0.41042098  0.44777305  1
  Te  Te95  1  0.73112467  0.41840710  0.74863017  1
  Te  Te96  1  0.76716296  0.76845600  0.07244146  1
  Te  Te97  1  0.74326055  0.74009072  0.41382259  1
  Te  Te98  1  0.74618855  0.76499428  0.78294171  1
  Te  Te99  1  0.08473609  0.25842701  0.24752763  1
  Te  Te100  1  0.08146997  0.23836517  0.59372114  1
  Te  Te101  1  0.09365133  0.26991555  0.87289107  1
  Te  Te102  1  0.08467531  0.59220184  0.25246608  1
  Te  Te103  1  0.06021027  0.56436051  0.57405398  1
  Te  Te104  1  0.06361560  0.57297959  0.90909104  1
  Te  Te105  1  0.07921509  0.94157187  0.25171134  1
  Te  Te106  1  0.07658188  0.92281074  0.56655016  1
  Te  Te107  1  0.08385893  0.91494019  0.90768311  1
  Te  Te108  1  0.40324807  0.25049011  0.24906366  1
  Te  Te109  1  0.42772409  0.26128932  0.58395274  1
  Te  Te110  1  0.40024778  0.25998702  0.92219882  1
  Te  Te111  1  0.44630420  0.57424436  0.25021406  1
  Te  Te112  1  0.41889350  0.55182765  0.55265357  1
  Te  Te113  1  0.41283643  0.58682542  0.90706656  1
  Te  Te114  1  0.40544693  0.90566711  0.25567672  1
  Te  Te115  1  0.43940630  0.93005363  0.59433858  1
  Te  Te116  1  0.43970876  0.90228543  0.93660588  1
  Te  Te117  1  0.76084709  0.23156823  0.26091918  1
  Te  Te118  1  0.76979069  0.21460813  0.55950377  1
  Te  Te119  1  0.73347721  0.26153347  0.91958296  1
  Te  Te120  1  0.76294890  0.56626052  0.25578924  1
  Te  Te121  1  0.72878718  0.56445877  0.57923913  1
  Te  Te122  1  0.76736153  0.61532950  0.93643497  1
  Te  Te123  1  0.77301450  0.94556237  0.22902635  1
  Te  Te124  1  0.71750196  0.97598750  0.62289539  1
  Te  Te125  1  0.72965780  0.88791166  0.88178691  1
  Te  Te126  1  0.27342327  0.22528303  0.04053501  1
  Te  Te127  1  0.26547654  0.26245864  0.40665795  1
  Te  Te128  1  0.21989441  0.26941430  0.77745192  1
  Te  Te129  1  0.24782285  0.58245145  0.07715130  1
  Te  Te130  1  0.26339058  0.57372843  0.40030768  1
  Te  Te131  1  0.23429942  0.58540759  0.73920318  1
  Te  Te132  1  0.25972089  0.91008750  0.09480826  1
  Te  Te133  1  0.25220419  0.90990407  0.42594242  1
  Te  Te134  1  0.25793375  0.93103957  0.74836825  1
  Te  Te135  1  0.59307066  0.26352781  0.07700979  1
  Te  Te136  1  0.59563070  0.26475785  0.43534476  1
  Te  Te137  1  0.58994314  0.25064264  0.74695395  1
  Te  Te138  1  0.58915525  0.61501497  0.06689031  1
  Te  Te139  1  0.59642455  0.55594797  0.41314722  1
  Te  Te140  1  0.56952844  0.59095936  0.74643061  1
  Te  Te141  1  0.59404527  0.91224411  0.06681087  1
  Te  Te142  1  0.58839988  0.92538956  0.43593203  1
  Te  Te143  1  0.61442984  0.93312829  0.78220673  1
  Te  Te144  1  0.91401154  0.25812400  0.09106607  1
  Te  Te145  1  0.88110005  0.23870057  0.45023452  1
  Te  Te146  1  0.89513010  0.22534324  0.74880221  1
  Te  Te147  1  0.89459506  0.56743364  0.06787803  1
  Te  Te148  1  0.89756201  0.55320274  0.42018769  1
  Te  Te149  1  0.88852018  0.58825393  0.76618162  1
  Te  Te150  1  0.90042968  0.91506668  0.05825402  1
  Te  Te151  1  0.91541267  0.94597698  0.39097698  1
  Te  Te152  1  0.89373477  0.94245570  0.77848021  1
  Te  Te153  1  0.25156818  0.09743575  0.23733143  1
  Te  Te154  1  0.22790372  0.10802829  0.59772607  1
  Te  Te155  1  0.24640698  0.10431623  0.93735400  1
  Te  Te156  1  0.25957538  0.39907260  0.24161711  1
  Te  Te157  1  0.25852245  0.41971705  0.57149755  1
  Te  Te158  1  0.22355457  0.38609612  0.89590704  1
  Te  Te159  1  0.27539334  0.73165846  0.24578552  1
  Te  Te160  1  0.25603622  0.73957891  0.58745204  1
  Te  Te161  1  0.25913660  0.73839268  0.94160754  1
  Te  Te162  1  0.58245956  0.08331757  0.25598686  1
  Te  Te163  1  0.59107863  0.06530985  0.58399990  1
  Te  Te164  1  0.59592362  0.08038817  0.92700308  1
  Te  Te165  1  0.60184498  0.40205339  0.25133985  1
  Te  Te166  1  0.59713132  0.39083488  0.55066886  1
  Te  Te167  1  0.58832570  0.42941715  0.91977361  1
  Te  Te168  1  0.56721784  0.74457016  0.22733357  1
  Te  Te169  1  0.59116636  0.75659093  0.58977855  1
  Te  Te170  1  0.61527550  0.79037062  0.92430109  1
  Te  Te171  1  0.89887235  0.06061781  0.26113053  1
  Te  Te172  1  0.92108666  0.10194928  0.57900126  1
  Te  Te173  1  0.92675600  0.11287434  0.89544778  1
  Te  Te174  1  0.90722931  0.40530236  0.25759603  1
  Te  Te175  1  0.89957271  0.39251261  0.56577656  1
  Te  Te176  1  0.91461005  0.42359814  0.92409327  1
  Te  Te177  1  0.93427130  0.75532694  0.25097609  1
  Te  Te178  1  0.91544181  0.75349564  0.59570475  1
  Te  Te179  1  0.88321497  0.72165559  0.93038658  1
