# generated using pymatgen
data_In2Te3
_symmetry_space_group_name_H-M   'P 1'
_cell_length_a   19.03872601
_cell_length_b   19.04367054
_cell_length_c   19.02807700
_cell_angle_alpha   90.08204976
_cell_angle_beta   90.23412921
_cell_angle_gamma   90.16234527
_symmetry_Int_Tables_number   1
_chemical_formula_structural   In2Te3
_chemical_formula_sum   'In72 Te108'
_cell_volume   6898.86460429
_cell_formula_units_Z   36
loop_
 _symmetry_equiv_pos_site_id
 _symmetry_equiv_pos_as_xyz
  1  'x, y, z'
loop_
 _atom_site_type_symbol
 _atom_site_label
 _atom_site_symmetry_multiplicity
 _atom_site_fract_x
 _atom_site_fract_y
 _atom_site_fract_z
 _atom_site_occupancy
  In  In0  1  0.50250578  0.16444831  0.66722251  1
  In  In1  1  0.50319681  0.62215159  0.89013448  1
  In  In2  1  0.68928823  0.00935422  0.35975645  1
  In  In3  1  -0.02478810  0.56780328  0.32729431  1
  In  In4  1  0.16922105  0.00159432  0.85593631  1
  In  In5  1  -0.00406848  0.82367836  0.47720441  1
  In  In6  1  0.35144299  0.33319914  0.34099699  1
  In  In7  1  0.82551424  0.18351773  0.66884325  1
  In  In8  1  0.32246852  0.66761184  0.65174504  1
  In  In9  1  0.82709183  0.01205033  0.82859453  1
  In  In10  1  0.65711189  0.82997220  0.51313528  1
  In  In11  1  0.33292834  0.15237760  0.50021251  1
  In  In12  1  0.64170380  0.18501779  0.50526419  1
  In  In13  1  0.13723005  0.36588381  0.47979605  1
  In  In14  1  0.82700456  -0.00047561  0.17598453  1
  In  In15  1  0.66821794  0.49985450  0.50523501  1
  In  In16  1  0.47624373  0.67840143  0.10060936  1
  In  In17  1  0.47749949  0.51118712  0.35717833  1
  In  In18  1  0.49917831  0.83518153  0.67172603  1
  In  In19  1  0.82309346  0.33660069  0.50996751  1
  In  In20  1  0.85333582  0.83436809  0.31658961  1
  In  In21  1  0.00520913  -0.00196733  0.32745974  1
  In  In22  1  0.32448079  0.84789908  0.84625890  1
  In  In23  1  0.52575283  0.49424790  0.67268797  1
  In  In24  1  0.50102351  0.83540754  0.30568725  1
  In  In25  1  0.00687537  0.00267992  0.66955505  1
  In  In26  1  0.17508267  0.15364374  0.33461311  1
  In  In27  1  0.18166577  0.17906258  0.68030552  1
  In  In28  1  -0.00824356  0.31943581  0.00308913  1
  In  In29  1  0.52400381  0.00569420  0.81054583  1
  In  In30  1  0.37353726  0.31489290  -0.01269269  1
  In  In31  1  -0.01146884  0.64991312  0.68203776  1
  In  In32  1  0.17810315  0.83166070  0.32280633  1
  In  In33  1  0.80662179  0.49603479  -0.00363372  1
  In  In34  1  0.49328907  0.68272273  0.50536030  1
  In  In35  1  0.17566676  0.17861818  0.02237714  1
  In  In36  1  -0.00453560  0.82320937  0.13718783  1
  In  In37  1  0.66923735  0.18330229  0.83525116  1
  In  In38  1  0.64070859  0.48874757  0.16335079  1
  In  In39  1  -0.01216313  0.18246333  0.48512162  1
  In  In40  1  0.81364076  0.17645727  -0.00378529  1
  In  In41  1  0.80363898  0.21033750  0.32224727  1
  In  In42  1  0.81543778  0.47188891  0.33299497  1
  In  In43  1  -0.00492194  0.50160354  0.85084895  1
  In  In44  1  0.51739379  0.03177557  0.17740427  1
  In  In45  1  0.17758460  0.33093593  0.86199584  1
  In  In46  1  0.18952126  0.48451526  0.00746931  1
  In  In47  1  0.65778467  0.69741553  0.30912536  1
  In  In48  1  0.80763329  0.66978147  0.53677617  1
  In  In49  1  0.20005090  0.67949108  0.83357017  1
  In  In50  1  0.66798577  0.69218754  -0.02467267  1
  In  In51  1  0.85088033  0.83449774  -0.02256670  1
  In  In52  1  0.34208819  0.00004736  0.01941043  1
  In  In53  1  0.00358503  0.14904537  0.15335550  1
  In  In54  1  0.67363582  -0.00822334  0.00971132  1
  In  In55  1  0.16029853  0.34395230  0.19892576  1
  In  In56  1  -0.02314906  0.33077057  0.66419247  1
  In  In57  1  0.16736047  0.82671735  -0.01659476  1
  In  In58  1  0.80511571  0.82699866  0.69516648  1
  In  In59  1  0.16247012  0.66191381  0.45948315  1
  In  In60  1  0.36005139  0.48476512  0.16323748  1
  In  In61  1  0.66018189  0.47988235  0.83382506  1
  In  In62  1  0.34071669  0.34919283  0.68108763  1
  In  In63  1  0.34920456  -0.01183818  0.65072109  1
  In  In64  1  0.33476498  0.00557902  0.34799054  1
  In  In65  1  0.32263492  0.65232093  0.32932610  1
  In  In66  1  0.50984688  0.30531202  0.18020223  1
  In  In67  1  0.14124599  0.50515224  0.65889869  1
  In  In68  1  0.82369236  0.64122486  0.12806746  1
  In  In69  1  0.15762069  0.81209786  0.65296979  1
  In  In70  1  -0.00136447  0.67267369  -0.01111481  1
  In  In71  1  0.32826724  0.15296313  0.16847717  1
  Te  Te72  1  0.09609091  0.06932110  0.07648916  1
  Te  Te73  1  0.08336194  0.07947015  0.42871467  1
  Te  Te74  1  0.08803072  0.09224182  0.76118748  1
  Te  Te75  1  0.08465186  0.40875441  0.08472659  1
  Te  Te76  1  0.07872645  0.46397070  0.38251503  1
  Te  Te77  1  0.08815595  0.40777909  0.76636036  1
  Te  Te78  1  0.10102382  0.73022604  0.08314643  1
  Te  Te79  1  0.06342418  0.73875086  0.37472938  1
  Te  Te80  1  0.08114403  0.74148939  0.76136794  1
  Te  Te81  1  0.43550767  0.10930485  0.07330305  1
  Te  Te82  1  0.43328209  0.06798534  0.43863735  1
  Te  Te83  1  0.40619864  0.08180390  0.75272624  1
  Te  Te84  1  0.45475954  0.40684481  0.07643895  1
  Te  Te85  1  0.43713586  0.39796635  0.44225661  1
  Te  Te86  1  0.42701860  0.43417038  0.76290965  1
  Te  Te87  1  0.37707512  0.78393589  0.07483040  1
  Te  Te88  1  0.41446497  0.75489097  0.40027428  1
  Te  Te89  1  0.39802075  0.75448228  0.74980258  1
  Te  Te90  1  0.73781319  0.09425209  0.10210406  1
  Te  Te91  1  0.76251450  0.11877668  0.43507365  1
  Te  Te92  1  0.73320194  0.08618078  0.73687415  1
  Te  Te93  1  0.75508995  0.41034227  0.10754103  1
  Te  Te94  1  0.71713713  0.39107116  0.41152370  1
  Te  Te95  1  0.76698574  0.45656484  0.73775093  1
  Te  Te96  1  0.75737960  0.76547678  0.07443149  1
  Te  Te97  1  0.75886385  0.75292512  0.41080221  1
  Te  Te98  1  0.78718472  0.71438833  0.78459156  1
  Te  Te99  1  0.07376292  0.23687011  0.25880897  1
  Te  Te100  1  0.08980263  0.25181589  0.58045459  1
  Te  Te101  1  0.07862325  0.23200777  0.91782519  1
  Te  Te102  1  0.09908013  0.54550042  0.25427724  1
  Te  Te103  1  0.06999329  0.59798241  0.56567120  1
  Te  Te104  1  0.11005892  0.58305546  0.91281370  1
  Te  Te105  1  0.07773612  0.90777608  0.23404466  1
  Te  Te106  1  0.07821395  0.91042211  0.57116237  1
  Te  Te107  1  0.07188115  0.90872761  0.91198932  1
  Te  Te108  1  0.41752637  0.21846070  0.27146928  1
  Te  Te109  1  0.40818136  0.25102751  0.58510475  1
  Te  Te110  1  0.48693480  0.27725214  0.89828895  1
  Te  Te111  1  0.44004261  0.59719528  0.23276762  1
  Te  Te112  1  0.42398700  0.57828073  0.58654872  1
  Te  Te113  1  0.39023939  0.59720663  0.97988496  1
  Te  Te114  1  0.41352226  0.93750465  0.23855300  1
  Te  Te115  1  0.42447098  0.90008585  0.56462734  1
  Te  Te116  1  0.42544236  0.93723009  0.91015564  1
  Te  Te117  1  0.73445439  0.29559628  0.22013048  1
  Te  Te118  1  0.72484290  0.27334365  0.60352106  1
  Te  Te119  1  0.73382121  0.27808568  0.92762220  1
  Te  Te120  1  0.73934593  0.58639146  0.24302321  1
  Te  Te121  1  0.74693041  0.55959108  0.61732476  1
  Te  Te122  1  0.76367595  0.60279584  0.89938581  1
  Te  Te123  1  0.73706815  0.90855134  0.25471410  1
  Te  Te124  1  0.75780584  0.90811575  0.58419873  1
  Te  Te125  1  0.74310319  0.90965662  0.90352026  1
  Te  Te126  1  0.26515552  0.27757907  0.10255771  1
  Te  Te127  1  0.23749624  0.26093392  0.42185066  1
  Te  Te128  1  0.27306852  0.24990879  0.77694584  1
  Te  Te129  1  0.26514469  0.57626060  0.09465479  1
  Te  Te130  1  0.26498614  0.56341366  0.42893741  1
  Te  Te131  1  0.25179341  0.56999225  0.74308673  1
  Te  Te132  1  0.25761499  0.89383034  0.08149398  1
  Te  Te133  1  0.23880493  0.92231341  0.41910299  1
  Te  Te134  1  0.23516941  0.91228814  0.74041794  1
  Te  Te135  1  0.63163214  0.26229599  0.11245090  1
  Te  Te136  1  0.58636448  0.21741177  0.37331728  1
  Te  Te137  1  0.56927784  0.26247472  0.75625962  1
  Te  Te138  1  0.59413475  0.58513986  0.05930725  1
  Te  Te139  1  0.59322825  0.60324228  0.41096832  1
  Te  Te140  1  0.58582511  0.59794394  0.76866713  1
  Te  Te141  1  0.57304300  0.92685887  0.09315812  1
  Te  Te142  1  0.58363365  0.91173862  0.40949962  1
  Te  Te143  1  0.60515366  0.90585233  0.74374285  1
  Te  Te144  1  0.90591764  0.25000697  0.10361991  1
  Te  Te145  1  0.91599492  0.28096848  0.39873582  1
  Te  Te146  1  0.90395921  0.25955717  0.76564953  1
  Te  Te147  1  0.93301328  0.56115492  0.06406571  1
  Te  Te148  1  0.87024508  0.57296015  0.43745702  1
  Te  Te149  1  0.90389336  0.54290494  0.74061602  1
  Te  Te150  1  0.91597653  0.93492793  0.07330276  1
  Te  Te151  1  0.90566162  0.93105199  0.42107718  1
  Te  Te152  1  0.91820267  0.91529525  0.75282330  1
  Te  Te153  1  0.23539212  0.05859849  0.23685259  1
  Te  Te154  1  0.23901465  0.07428903  0.58853798  1
  Te  Te155  1  0.26268926  0.09434232  0.93045684  1
  Te  Te156  1  0.26384833  0.43074074  0.26722124  1
  Te  Te157  1  0.23582734  0.41317444  0.58479464  1
  Te  Te158  1  0.28880661  0.41845222  0.91525691  1
  Te  Te159  1  0.25690680  0.74351233  0.23762981  1
  Te  Te160  1  0.24892034  0.75187341  0.55091499  1
  Te  Te161  1  0.30073173  0.73003501  0.94451009  1
  Te  Te162  1  0.61062198  0.10648765  0.27446629  1
  Te  Te163  1  0.57228279  0.07580607  0.57374876  1
  Te  Te164  1  0.59197035  0.08408811  0.92068484  1
  Te  Te165  1  0.56169671  0.41905117  0.27053967  1
  Te  Te166  1  0.56797570  0.40749182  0.56100240  1
  Te  Te167  1  0.56875328  0.40673828  0.92014273  1
  Te  Te168  1  0.57419330  0.75703173  0.20014640  1
  Te  Te169  1  0.59598314  0.72941761  0.60463654  1
  Te  Te170  1  0.54994420  0.75803263  0.91950711  1
  Te  Te171  1  0.90114499  0.09378876  0.26968739  1
  Te  Te172  1  0.91903120  0.09615768  0.58767195  1
  Te  Te173  1  0.90580090  0.09055954  0.92273229  1
  Te  Te174  1  0.93165212  0.44857809  0.24785801  1
  Te  Te175  1  0.92528857  0.42471622  0.56771318  1
  Te  Te176  1  0.90088901  0.40506329  0.91828450  1
  Te  Te177  1  0.90922074  0.73243173  0.22122832  1
  Te  Te178  1  0.92101063  0.75670560  0.59231161  1
  Te  Te179  1  0.90938927  0.73108559  0.88582402  1
