# generated using pymatgen
data_In2Te3
_symmetry_space_group_name_H-M   'P 1'
_cell_length_a   18.77428395
_cell_length_b   18.77897181
_cell_length_c   18.78388318
_cell_angle_alpha   89.89152362
_cell_angle_beta   89.95184205
_cell_angle_gamma   89.95962434
_symmetry_Int_Tables_number   1
_chemical_formula_structural   In2Te3
_chemical_formula_sum   'In72 Te108'
_cell_volume   6622.46286510
_cell_formula_units_Z   36
loop_
 _symmetry_equiv_pos_site_id
 _symmetry_equiv_pos_as_xyz
  1  'x, y, z'
loop_
 _atom_site_type_symbol
 _atom_site_label
 _atom_site_symmetry_multiplicity
 _atom_site_fract_x
 _atom_site_fract_y
 _atom_site_fract_z
 _atom_site_occupancy
  In  In0  1  0.16438715  0.33084338  0.13894969  1
  In  In1  1  0.35960017  0.48988264  0.51365268  1
  In  In2  1  0.34453296  0.32020349  0.30162620  1
  In  In3  1  0.82307956  0.67542205  0.49819107  1
  In  In4  1  0.66235442  0.49289561  0.50212182  1
  In  In5  1  0.66366936  0.14072001  0.84648331  1
  In  In6  1  0.66482696  -0.01026454  0.34260779  1
  In  In7  1  0.34317012  0.66060306  -0.01828658  1
  In  In8  1  0.48741796  0.34763241  0.83332691  1
  In  In9  1  -0.00606773  0.83053276  0.51723766  1
  In  In10  1  0.49493405  0.84822527  0.33229142  1
  In  In11  1  0.15961840  0.50300270  0.69933001  1
  In  In12  1  0.82186655  0.35809797  0.18325252  1
  In  In13  1  -0.00033470  0.68438206  0.69117307  1
  In  In14  1  0.33540782  0.17918920  0.82861402  1
  In  In15  1  0.00487973  -0.01268081  0.00967117  1
  In  In16  1  0.54195627  -0.02844479  0.86134793  1
  In  In17  1  0.34554967  0.48224491  0.15177283  1
  In  In18  1  0.51315281  0.15842614  0.33478150  1
  In  In19  1  0.16024168  0.49446758  -0.01876411  1
  In  In20  1  0.81930213  0.15585979  -0.00991152  1
  In  In21  1  -0.03402845  0.67892698  0.33479406  1
  In  In22  1  0.34220326  0.33781939  0.00676114  1
  In  In23  1  0.66623359  0.19069628  0.14398643  1
  In  In24  1  0.16258352  0.00043030  0.52121585  1
  In  In25  1  0.82004418  0.48258804  0.00662770  1
  In  In26  1  0.13566090  0.64943122  0.17211129  1
  In  In27  1  0.67535942  0.64455962  0.30931950  1
  In  In28  1  0.82224219  -0.00339456  0.15192524  1
  In  In29  1  0.50924448  0.52112199  0.00815098  1
  In  In30  1  0.35636006  0.00538836  0.32269290  1
  In  In31  1  0.64878271  0.17866597  0.49737099  1
  In  In32  1  0.18023523  0.32671850  0.48493107  1
  In  In33  1  -0.00455153  0.32169282  -0.00317186  1
  In  In34  1  0.82866382  0.82577659  0.34711988  1
  In  In35  1  0.35108812  0.31954445  0.66841653  1
  In  In36  1  0.83193435  0.17404002  0.30637016  1
  In  In37  1  0.82880905  -0.00816841  0.51652461  1
  In  In38  1  0.36171955  0.69238474  0.34516863  1
  In  In39  1  0.34584503  0.82642364  0.51360862  1
  In  In40  1  0.83362149  0.32077011  0.84540955  1
  In  In41  1  0.35939621  0.81932592  0.17265895  1
  In  In42  1  0.81255779  -0.06054423  0.82598814  1
  In  In43  1  0.52523568  0.67593115  0.14875739  1
  In  In44  1  0.19530770  0.65937764  0.51578267  1
  In  In45  1  0.16671931  0.86006828  -0.02268602  1
  In  In46  1  0.52497438  0.48805036  0.30433182  1
  In  In47  1  0.67847216  0.33191675  0.65700368  1
  In  In48  1  0.52760533  0.51451640  0.67687508  1
  In  In49  1  0.66955253  -0.02380745  0.68466277  1
  In  In50  1  0.84113670  0.53124858  0.65735734  1
  In  In51  1  0.01010742  0.34432466  0.66583324  1
  In  In52  1  0.66317833  0.52637329  0.82625050  1
  In  In53  1  0.14167802  0.51953684  0.33744773  1
  In  In54  1  0.00447887  0.16285870  0.16806671  1
  In  In55  1  0.33611747  0.66680595  0.67347978  1
  In  In56  1  0.33773920  0.83241421  0.83128244  1
  In  In57  1  0.15336645  0.00507206  0.85050996  1
  In  In58  1  0.16064954  0.00491453  0.16151924  1
  In  In59  1  0.80949007  0.69392348  0.82636653  1
  In  In60  1  0.36432035  0.02545395  0.02029132  1
  In  In61  1  0.80946570  0.32442616  0.48538473  1
  In  In62  1  0.15626925  0.83852809  0.33341232  1
  In  In63  1  0.00673238  0.18081699  0.84559268  1
  In  In64  1  0.49584951  0.15856912  0.66544737  1
  In  In65  1  -0.01854171  0.15081427  0.49844878  1
  In  In66  1  -0.02348265  0.82036728  0.16185210  1
  In  In67  1  -0.01940680  0.65299042  -0.00749579  1
  In  In68  1  0.16261885  0.17398540  0.33330984  1
  In  In69  1  0.35119145  -0.00880920  0.65778213  1
  In  In70  1  -0.01530551  0.52614118  0.48106573  1
  In  In71  1  0.18172764  0.15184786  0.68058935  1
  Te  Te72  1  0.09397476  0.10033756  0.06196495  1
  Te  Te73  1  0.08117742  0.07084659  0.41177407  1
  Te  Te74  1  0.06717102  0.07818507  0.74639285  1
  Te  Te75  1  0.06374501  0.43040634  0.08135980  1
  Te  Te76  1  0.07035782  0.41199244  0.42015320  1
  Te  Te77  1  0.07312236  0.41362339  0.77904304  1
  Te  Te78  1  0.09087032  0.76176230  0.07742437  1
  Te  Te79  1  0.08566995  0.73270583  0.42077013  1
  Te  Te80  1  0.06957396  0.79429662  0.75921179  1
  Te  Te81  1  0.43630745  0.11441120  0.11307223  1
  Te  Te82  1  0.43558206  0.07140235  0.42688871  1
  Te  Te83  1  0.42937014  0.07052576  0.77036318  1
  Te  Te84  1  0.46253833  0.39481132  0.09982338  1
  Te  Te85  1  0.42279983  0.41448331  0.39683604  1
  Te  Te86  1  0.40752393  0.43933851  0.74231023  1
  Te  Te87  1  0.43549271  0.75748092  0.05532075  1
  Te  Te88  1  0.45921679  0.74740033  0.44548595  1
  Te  Te89  1  0.43229524  0.75568201  0.74642334  1
  Te  Te90  1  0.72038114  0.06573860  0.06276902  1
  Te  Te91  1  0.75779556  0.09220060  0.41476398  1
  Te  Te92  1  0.76587090  0.07150985  0.75799874  1
  Te  Te93  1  0.71380960  0.41142994  0.09194190  1
  Te  Te94  1  0.73227792  0.41515485  0.39828574  1
  Te  Te95  1  0.75821703  0.42539191  0.74828827  1
  Te  Te96  1  0.71267430  0.77818573  0.05404348  1
  Te  Te97  1  0.71817240  0.75143758  0.41941856  1
  Te  Te98  1  0.72385321  0.78409593  0.73365809  1
  Te  Te99  1  0.07567264  0.26890299  0.25005569  1
  Te  Te100  1  0.09252600  0.23870666  0.57827744  1
  Te  Te101  1  0.10584698  0.25546568  0.92498606  1
  Te  Te102  1  0.02930175  0.56613181  0.24192917  1
  Te  Te103  1  0.07291962  0.58621570  0.59065852  1
  Te  Te104  1  0.08895258  0.60051553  0.90660613  1
  Te  Te105  1  0.06411955  0.91889090  0.24316074  1
  Te  Te106  1  0.08366270  0.90862907  0.60541011  1
  Te  Te107  1  0.04573200  0.89376605  0.88588551  1
  Te  Te108  1  0.43476969  0.22858494  0.22173784  1
  Te  Te109  1  0.42896614  0.24793075  0.56797774  1
  Te  Te110  1  0.43576906  0.23884321  0.92513700  1
  Te  Te111  1  0.41769870  0.59033586  0.23765754  1
  Te  Te112  1  0.43850880  0.59863813  0.58033950  1
  Te  Te113  1  0.44118248  0.59060070  0.89614699  1
  Te  Te114  1  0.44455933  0.93753338  0.21623108  1
  Te  Te115  1  0.44712380  0.90226865  0.59051521  1
  Te  Te116  1  0.41954490  0.91229680  0.93352921  1
  Te  Te117  1  0.72187174  0.26877111  0.26448990  1
  Te  Te118  1  0.76320228  0.22382394  0.59089838  1
  Te  Te119  1  0.72519888  0.25995296  0.93064454  1
  Te  Te120  1  0.78461506  0.56329001  0.24690816  1
  Te  Te121  1  0.71834302  0.60012088  0.59917557  1
  Te  Te122  1  0.74692929  0.59688821  0.93011165  1
  Te  Te123  1  0.74337037  0.90366332  0.24330062  1
  Te  Te124  1  0.74244829  0.89043729  0.58341324  1
  Te  Te125  1  0.70711729  0.89919349  0.92844881  1
  Te  Te126  1  0.26546467  0.23910337  0.08605166  1
  Te  Te127  1  0.27824590  0.23513681  0.41276306  1
  Te  Te128  1  0.23657732  0.27174745  0.75730618  1
  Te  Te129  1  0.25430676  0.58875132  0.08773928  1
  Te  Te130  1  0.26820726  0.57555395  0.40903313  1
  Te  Te131  1  0.24762469  0.59646457  0.76991357  1
  Te  Te132  1  0.26012451  0.91250887  0.08770453  1
  Te  Te133  1  0.25794881  0.91475344  0.41671254  1
  Te  Te134  1  0.24969578  0.93095659  0.75465578  1
  Te  Te135  1  0.55191823  0.26453266  0.08449898  1
  Te  Te136  1  0.57648448  0.27130457  0.40952055  1
  Te  Te137  1  0.58899520  0.24996494  0.75296744  1
  Te  Te138  1  0.62070515  0.58221864  0.08623854  1
  Te  Te139  1  0.57717569  0.58452940  0.41154024  1
  Te  Te140  1  0.57276884  0.62779681  0.76433818  1
  Te  Te141  1  0.59992424  0.87754814  0.05220551  1
  Te  Te142  1  0.57678239  0.91709031  0.43516449  1
  Te  Te143  1  0.57274876  0.87929633  0.74794740  1
  Te  Te144  1  0.89499292  0.24378956  0.09361082  1
  Te  Te145  1  0.91892022  0.25398872  0.40332974  1
  Te  Te146  1  0.91552525  0.24749618  0.74043882  1
  Te  Te147  1  0.88577903  0.58888070  0.08813397  1
  Te  Te148  1  0.86448787  0.56891390  0.39364752  1
  Te  Te149  1  0.91650185  0.58767179  0.77436359  1
  Te  Te150  1  0.89135517  0.89663107  0.05845168  1
  Te  Te151  1  0.92472234  0.92112886  0.41565543  1
  Te  Te152  1  0.92680629  0.87399362  0.75728404  1
  Te  Te153  1  0.25508713  0.09096164  0.24320466  1
  Te  Te154  1  0.27272986  0.09289546  0.57376318  1
  Te  Te155  1  0.25914551  0.08679739  0.92461152  1
  Te  Te156  1  0.23629042  0.42382106  0.25272059  1
  Te  Te157  1  0.24033165  0.42541875  0.58603119  1
  Te  Te158  1  0.27387813  0.42933702  0.91295029  1
  Te  Te159  1  0.24117187  0.74208618  0.24849146  1
  Te  Te160  1  0.23844511  0.76984477  0.60782479  1
  Te  Te161  1  0.23691842  0.74405323  0.90703938  1
  Te  Te162  1  0.60439849  0.08173987  0.23767867  1
  Te  Te163  1  0.59108522  0.06974827  0.58689975  1
  Te  Te164  1  0.57079101  0.08810729  0.94902990  1
  Te  Te165  1  0.60567018  0.41189713  0.20794308  1
  Te  Te166  1  0.56734056  0.40066927  0.57938781  1
  Te  Te167  1  0.58984567  0.42413311  0.91359891  1
  Te  Te168  1  0.59524909  0.76290111  0.25072469  1
  Te  Te169  1  0.64111853  0.73639963  0.61973337  1
  Te  Te170  1  0.61543556  0.76730344  0.93904846  1
  Te  Te171  1  0.92090435  0.06364894  0.24874861  1
  Te  Te172  1  0.92596296  0.06252355  0.60235225  1
  Te  Te173  1  0.91699103  0.07248484  0.91163882  1
  Te  Te174  1  0.90868211  0.44563000  0.26180538  1
  Te  Te175  1  0.90543235  0.41748790  0.57553188  1
  Te  Te176  1  0.92432035  0.42508375  0.90864761  1
  Te  Te177  1  0.86938551  0.73521022  0.22752388  1
  Te  Te178  1  0.89311736  0.75659461  0.60495774  1
  Te  Te179  1  0.89755655  0.75880530  0.92817285  1
