# generated using pymatgen
data_In2Te3
_symmetry_space_group_name_H-M   'P 1'
_cell_length_a   19.05157147
_cell_length_b   19.01774003
_cell_length_c   19.03546290
_cell_angle_alpha   90.02621326
_cell_angle_beta   89.99484732
_cell_angle_gamma   89.94070375
_symmetry_Int_Tables_number   1
_chemical_formula_structural   In2Te3
_chemical_formula_sum   'In72 Te108'
_cell_volume   6896.88323305
_cell_formula_units_Z   36
loop_
 _symmetry_equiv_pos_site_id
 _symmetry_equiv_pos_as_xyz
  1  'x, y, z'
loop_
 _atom_site_type_symbol
 _atom_site_label
 _atom_site_symmetry_multiplicity
 _atom_site_fract_x
 _atom_site_fract_y
 _atom_site_fract_z
 _atom_site_occupancy
  In  In0  1  0.17194856  0.68577680  0.84027730  1
  In  In1  1  0.81775998  0.31296631  0.84407166  1
  In  In2  1  0.51315323  0.50419299  0.67801180  1
  In  In3  1  0.35204040  0.36207597  -0.00371231  1
  In  In4  1  0.36575492  0.33741157  0.69803878  1
  In  In5  1  0.31361452  0.01654757  0.66752364  1
  In  In6  1  0.31914142  0.16212677  0.17528842  1
  In  In7  1  0.80346317  0.31547923  0.16664516  1
  In  In8  1  0.66832544  0.03890645  0.33200160  1
  In  In9  1  0.18413900  0.69701973  0.16920841  1
  In  In10  1  0.84136000  -0.00127442  0.82578968  1
  In  In11  1  0.16760876  0.84463171  0.65007716  1
  In  In12  1  0.83962673  0.49556742  0.00328231  1
  In  In13  1  0.16724341  0.14516189  0.01506419  1
  In  In14  1  0.84013544  0.65009470  0.48812599  1
  In  In15  1  0.48522022  -0.00511408  0.47266582  1
  In  In16  1  0.33484939  0.49954622  0.47650870  1
  In  In17  1  -0.02436877  0.32458656  0.65926214  1
  In  In18  1  0.84506953  0.14522527  0.66086584  1
  In  In19  1  -0.01078405  0.81535316  0.15322054  1
  In  In20  1  -0.02258395  0.02230886  0.29561638  1
  In  In21  1  0.35447463  0.51605947  0.15331581  1
  In  In22  1  0.33256906  0.82516285  0.49332388  1
  In  In23  1  0.16882879  0.50509345  0.65729737  1
  In  In24  1  0.66019314  0.66126806  0.00011286  1
  In  In25  1  0.16615420  -0.01139836  0.83471207  1
  In  In26  1  0.68186952  -0.01387769  0.67173952  1
  In  In27  1  0.65283137  0.50554198  0.83813265  1
  In  In28  1  0.32105053  -0.00668641  0.00944081  1
  In  In29  1  0.15916288  0.50660994  0.33243843  1
  In  In30  1  0.50523393  0.02736613  0.86946103  1
  In  In31  1  0.83275608  0.70427408  0.81452174  1
  In  In32  1  -0.01737858  0.84421492  0.49660138  1
  In  In33  1  0.66943391  0.84754345  0.51615294  1
  In  In34  1  0.17105501  0.14633322  0.32431695  1
  In  In35  1  0.35751156  0.32588945  0.31893479  1
  In  In36  1  0.34161638  0.64994512  -0.01145715  1
  In  In37  1  -0.00058105  0.32664779  -0.02275586  1
  In  In38  1  0.51869354  0.47752119  0.31038264  1
  In  In39  1  0.67943162  0.16762372  0.50661898  1
  In  In40  1  0.17882619  0.85446137  0.33194705  1
  In  In41  1  0.34717847  0.66174663  0.66749377  1
  In  In42  1  0.83059345  0.31976003  0.48921719  1
  In  In43  1  0.50268756  0.82099997  0.66386470  1
  In  In44  1  0.00344008  -0.00577431  0.00902347  1
  In  In45  1  0.83364509  0.51726631  0.32020767  1
  In  In46  1  0.83631526  0.48855514  0.66870205  1
  In  In47  1  0.02452684  0.69335508  0.32104288  1
  In  In48  1  -0.01682792  0.28974655  0.35190964  1
  In  In49  1  0.51948065  0.33602270  0.83390725  1
  In  In50  1  0.65719834  0.48960119  0.51709516  1
  In  In51  1  0.48578655  0.84079284  0.01652152  1
  In  In52  1  0.33613693  0.16149157  0.51208790  1
  In  In53  1  0.81635135  0.66355168  0.14778824  1
  In  In54  1  0.13686786  0.15941100  0.68045809  1
  In  In55  1  -0.02786049  0.48837147  0.15128377  1
  In  In56  1  0.19865691  0.32880307  0.84310494  1
  In  In57  1  0.15027257  0.34428559  0.17275486  1
  In  In58  1  0.82660027  0.83400396  -0.01783483  1
  In  In59  1  0.48283335  0.82884322  0.32032728  1
  In  In60  1  0.03719419  0.51219221  0.81907897  1
  In  In61  1  0.16539731  0.33365715  0.50740575  1
  In  In62  1  0.50647337  0.66449772  0.15343694  1
  In  In63  1  0.50931835  0.15831732  0.67343661  1
  In  In64  1  0.80750901  0.86314799  0.31303883  1
  In  In65  1  0.66971003  0.66374864  0.32087386  1
  In  In66  1  0.65808655  0.83715646  0.85327736  1
  In  In67  1  0.02935998  0.67379672  0.65592975  1
  In  In68  1  0.49555853  0.00618994  0.16906833  1
  In  In69  1  0.83303285  0.16047818  0.02125158  1
  In  In70  1  0.52713321  0.20657672  0.02767225  1
  In  In71  1  0.66313800  0.30340731  0.33938824  1
  Te  Te72  1  0.07434127  0.08054008  0.10574727  1
  Te  Te73  1  0.06705633  0.07736480  0.39897655  1
  Te  Te74  1  0.05845917  0.05344773  0.75240184  1
  Te  Te75  1  0.07874854  0.42280504  0.06478672  1
  Te  Te76  1  0.07823896  0.40137333  0.40420359  1
  Te  Te77  1  0.09214172  0.39298243  0.74001408  1
  Te  Te78  1  0.10815504  0.78000162  0.07543967  1
  Te  Te79  1  0.09312865  0.76593785  0.43042334  1
  Te  Te80  1  0.07992247  0.77615869  0.75270618  1
  Te  Te81  1  0.41369458  0.10129457  0.06839831  1
  Te  Te82  1  0.38150079  0.07273872  0.40461183  1
  Te  Te83  1  0.41083196  0.08517506  0.76026588  1
  Te  Te84  1  0.43551537  0.40438392  0.10721703  1
  Te  Te85  1  0.43810278  0.40549192  0.41790556  1
  Te  Te86  1  0.41547190  0.45156631  0.78202849  1
  Te  Te87  1  0.39621604  0.74780605  0.09469985  1
  Te  Te88  1  0.43854656  0.74462005  0.43135917  1
  Te  Te89  1  0.43714019  0.73182918  0.75862706  1
  Te  Te90  1  0.75348504  0.10094553  0.13262885  1
  Te  Te91  1  0.76770519  0.07694599  0.43363068  1
  Te  Te92  1  0.74100375  0.09312281  0.75836569  1
  Te  Te93  1  0.74233740  0.40307043  0.06417585  1
  Te  Te94  1  0.74962377  0.42584641  0.40799731  1
  Te  Te95  1  0.74267020  0.41114666  0.75648980  1
  Te  Te96  1  0.73147488  0.76721865  0.08113105  1
  Te  Te97  1  0.75228182  0.75168481  0.41524063  1
  Te  Te98  1  0.72818266  0.77367218  0.73560558  1
  Te  Te99  1  0.07484861  0.23574578  0.24457793  1
  Te  Te100  1  0.06620809  0.23967330  0.57198302  1
  Te  Te101  1  0.09860931  0.23643110  0.90899608  1
  Te  Te102  1  0.07074497  0.57906117  0.23082095  1
  Te  Te103  1  0.08444336  0.57549688  0.56353008  1
  Te  Te104  1  0.08393135  0.60092559  0.92241160  1
  Te  Te105  1  0.06541488  0.90696562  0.24673014  1
  Te  Te106  1  0.06462173  0.93064122  0.58600543  1
  Te  Te107  1  0.11211931  0.91396877  0.94973662  1
  Te  Te108  1  0.43413057  0.22274063  0.24682866  1
  Te  Te109  1  0.42809666  0.25326166  0.58643766  1
  Te  Te110  1  0.42358337  0.25581863  0.91853215  1
  Te  Te111  1  0.42855838  0.58933263  0.26178406  1
  Te  Te112  1  0.42464869  0.57316578  0.57308301  1
  Te  Te113  1  0.39283707  0.52543209  0.92700367  1
  Te  Te114  1  0.39559052  0.91844378  0.23921770  1
  Te  Te115  1  0.41377378  0.92619911  0.58965553  1
  Te  Te116  1  0.40832976  0.91868701  0.91154315  1
  Te  Te117  1  0.77204481  0.21950416  0.27829417  1
  Te  Te118  1  0.75486162  0.25698907  0.60213269  1
  Te  Te119  1  0.73627867  0.23083532  0.93299779  1
  Te  Te120  1  0.73005371  0.56417129  0.22127736  1
  Te  Te121  1  0.74979216  0.58539743  0.59022172  1
  Te  Te122  1  0.76995145  0.59864680  0.91201374  1
  Te  Te123  1  0.73669452  0.95731388  0.22535975  1
  Te  Te124  1  0.78088911  0.92545861  0.57693949  1
  Te  Te125  1  0.73842329  0.94245523  0.92525247  1
  Te  Te126  1  0.24380430  0.26428648  0.08346624  1
  Te  Te127  1  0.24990255  0.25738013  0.40609243  1
  Te  Te128  1  0.25675335  0.23986245  0.73569041  1
  Te  Te129  1  0.23875005  0.58357508  0.08641185  1
  Te  Te130  1  0.24712020  0.59516451  0.40853367  1
  Te  Te131  1  0.24896723  0.58476125  0.75370736  1
  Te  Te132  1  0.27757264  0.92937416  0.13448591  1
  Te  Te133  1  0.25923389  0.93331561  0.42700821  1
  Te  Te134  1  0.26208443  0.90341862  0.75195947  1
  Te  Te135  1  0.63123671  0.27407104  0.11095024  1
  Te  Te136  1  0.57520936  0.24102853  0.43580209  1
  Te  Te137  1  0.59702767  0.24169824  0.75344099  1
  Te  Te138  1  0.58131168  0.56586807  0.07665786  1
  Te  Te139  1  0.58873736  0.57199995  0.40824030  1
  Te  Te140  1  0.59210884  0.60426344  0.75098309  1
  Te  Te141  1  0.58023710  0.93436233  0.07475651  1
  Te  Te142  1  0.59098188  0.91395490  0.39860358  1
  Te  Te143  1  0.57142096  0.92930719  0.76192908  1
  Te  Te144  1  0.92569014  0.26084761  0.08839766  1
  Te  Te145  1  0.90805876  0.20300359  0.44315132  1
  Te  Te146  1  0.91914631  0.23409986  0.76463279  1
  Te  Te147  1  0.92773852  0.60606839  0.06512378  1
  Te  Te148  1  0.94186061  0.58633265  0.39817031  1
  Te  Te149  1  0.92782790  0.58610143  0.74120832  1
  Te  Te150  1  0.89962801  0.91566931  0.08752323  1
  Te  Te151  1  0.90522558  0.93350355  0.40151305  1
  Te  Te152  1  0.83782090  0.88981881  0.72470023  1
  Te  Te153  1  0.22696815  0.05262554  0.21958027  1
  Te  Te154  1  0.21990282  0.08700588  0.57309704  1
  Te  Te155  1  0.25484946  0.08714207  0.90745006  1
  Te  Te156  1  0.26131162  0.42158714  0.24940304  1
  Te  Te157  1  0.27098480  0.40713116  0.59062546  1
  Te  Te158  1  0.25318405  0.44292027  0.91892951  1
  Te  Te159  1  0.25549285  0.73502110  0.28975309  1
  Te  Te160  1  0.24750706  0.73607941  0.58120730  1
  Te  Te161  1  0.27073918  0.75718719  0.92079690  1
  Te  Te162  1  0.55731818  0.10624595  0.26023700  1
  Te  Te163  1  0.58289175  0.06012907  0.57544981  1
  Te  Te164  1  0.60192922  0.11097069  0.94177660  1
  Te  Te165  1  0.58827814  0.37108557  0.22847960  1
  Te  Te166  1  0.58352217  0.40001068  0.60335642  1
  Te  Te167  1  0.58806336  0.41823069  0.93372447  1
  Te  Te168  1  0.59044289  0.76005405  0.23657350  1
  Te  Te169  1  0.57276790  0.74656574  0.55767172  1
  Te  Te170  1  0.56111647  0.74442157  0.92286193  1
  Te  Te171  1  0.87237958  0.10627172  0.23080106  1
  Te  Te172  1  0.95427597  0.05062911  0.63505808  1
  Te  Te173  1  0.92076930  0.08505708  0.92153297  1
  Te  Te174  1  0.91031216  0.39962669  0.25925905  1
  Te  Te175  1  0.91883028  0.42365741  0.56057093  1
  Te  Te176  1  0.92052461  0.42622021  0.89219374  1
  Te  Te177  1  0.89059634  0.74308484  0.25582265  1
  Te  Te178  1  0.91333333  0.74140591  0.58307335  1
  Te  Te179  1  0.92855009  0.77571158  0.89657826  1
