# generated using pymatgen
data_In2Te3
_symmetry_space_group_name_H-M   'P 1'
_cell_length_a   18.79560856
_cell_length_b   18.79084765
_cell_length_c   18.80505389
_cell_angle_alpha   89.96742215
_cell_angle_beta   89.89710875
_cell_angle_gamma   90.01218574
_symmetry_Int_Tables_number   1
_chemical_formula_structural   In2Te3
_chemical_formula_sum   'In72 Te108'
_cell_volume   6641.65886415
_cell_formula_units_Z   36
loop_
 _symmetry_equiv_pos_site_id
 _symmetry_equiv_pos_as_xyz
  1  'x, y, z'
loop_
 _atom_site_type_symbol
 _atom_site_label
 _atom_site_symmetry_multiplicity
 _atom_site_fract_x
 _atom_site_fract_y
 _atom_site_fract_z
 _atom_site_occupancy
  In  In0  1  0.69867315  0.51937890  0.17212996  1
  In  In1  1  0.64746470  0.67624294  0.00198101  1
  In  In2  1  0.68306439  0.51426000  0.50569670  1
  In  In3  1  0.14249714  0.18893143  0.29977779  1
  In  In4  1  0.02137543  0.65905470  0.32398170  1
  In  In5  1  0.35862877  -0.00847385  0.33143157  1
  In  In6  1  0.16570086  0.50708753  0.02089179  1
  In  In7  1  0.16195037  0.49118791  0.31896970  1
  In  In8  1  0.86987584  0.31833935  0.16651552  1
  In  In9  1  0.49057253  0.50823999  0.68652917  1
  In  In10  1  0.81316441  0.16432923  0.67775790  1
  In  In11  1  0.16831682  0.66316894  0.51150224  1
  In  In12  1  0.50436009  0.34294668  0.13949968  1
  In  In13  1  0.48836258  0.32329307  0.51918360  1
  In  In14  1  0.34303270  0.66074373  0.66864324  1
  In  In15  1  0.00791789  0.17735375  0.47159595  1
  In  In16  1  0.16404384  0.85401901  0.29465067  1
  In  In17  1  0.34525233  0.50109680  0.82745894  1
  In  In18  1  0.49866327  0.83100550  -0.01093845  1
  In  In19  1  0.86164483  0.48801344  -0.00140258  1
  In  In20  1  0.02562589  0.50367779  0.49452582  1
  In  In21  1  0.32168894  0.15455240  0.15027466  1
  In  In22  1  0.01804854  0.83806730  0.86345990  1
  In  In23  1  0.67047412  -0.00173159  0.67607802  1
  In  In24  1  0.17711305  0.16137091  0.67692184  1
  In  In25  1  0.33759114  0.82356260  0.50630830  1
  In  In26  1  0.48975326  0.49324016  -0.01488732  1
  In  In27  1  0.68069573  0.15423887  0.51818035  1
  In  In28  1  0.01857268  0.00000576  0.00501582  1
  In  In29  1  0.65275421  0.50794294  0.82877398  1
  In  In30  1  0.47561389  0.00167350  0.15446478  1
  In  In31  1  0.02133489  0.14651108  0.83859349  1
  In  In32  1  0.49000333  -0.01692850  0.49809682  1
  In  In33  1  0.00297124  0.34803439  0.67433038  1
  In  In34  1  0.82842352  0.67212851  0.50707841  1
  In  In35  1  0.50126748  0.65524812  0.52955922  1
  In  In36  1  0.29655400  0.13987416  0.86930054  1
  In  In37  1  0.47600038  0.17941640  0.69434780  1
  In  In38  1  0.82627231  0.33613810  0.85315484  1
  In  In39  1  0.84082791  0.83508702  0.68517925  1
  In  In40  1  -0.01997319  0.83534167  0.49606338  1
  In  In41  1  0.30346736  0.85256429  0.83358340  1
  In  In42  1  0.83457404  0.66677181  0.82461661  1
  In  In43  1  0.16895840  0.68689947  0.84045681  1
  In  In44  1  0.03872613  0.69429345  0.02767097  1
  In  In45  1  0.50372656  0.01348139  0.84858334  1
  In  In46  1  0.49988974  0.14956691  0.32270563  1
  In  In47  1  0.48379531  0.81800316  0.66220286  1
  In  In48  1  0.84781690  0.51093025  0.66224098  1
  In  In49  1  0.30860824  0.68295505  0.32273735  1
  In  In50  1  0.84070320  -0.00210567  0.48428830  1
  In  In51  1  0.00212171  0.32510309  0.00002419  1
  In  In52  1  0.00191145  0.00327653  0.67556720  1
  In  In53  1  0.81322421  0.86025978  -0.03372402  1
  In  In54  1  0.85140466  0.00616882  0.15954397  1
  In  In55  1  0.15833603  0.01571114  0.50519839  1
  In  In56  1  0.20041906  0.35009985  0.51672988  1
  In  In57  1  0.65241267  0.30591358  0.67134011  1
  In  In58  1  0.84831143  0.15617430  0.32316435  1
  In  In59  1  0.66710419  0.34216861  0.33900855  1
  In  In60  1  0.65663837  0.31749775  0.00115430  1
  In  In61  1  0.46939159  0.68393382  0.15541146  1
  In  In62  1  0.85178521  0.65912613  0.16784417  1
  In  In63  1  0.66452486  0.83815080  0.16758928  1
  In  In64  1  0.33043373  0.31173086  -0.00148031  1
  In  In65  1  0.66228002  0.14882034  0.15319852  1
  In  In66  1  0.83783714  0.49108932  0.29694910  1
  In  In67  1  0.48403462  0.51272909  0.34219931  1
  In  In68  1  0.49833752  0.84926891  0.31607271  1
  In  In69  1  0.14474111  0.32891468  0.83356712  1
  In  In70  1  0.84390515  0.81897761  0.33677269  1
  In  In71  1  0.30683536  0.32152276  0.32603630  1
  Te  Te72  1  0.10265928  0.06662725  0.11180604  1
  Te  Te73  1  0.07980435  0.07281644  0.38853791  1
  Te  Te74  1  0.12317963  0.04376259  0.76552065  1
  Te  Te75  1  0.09158615  0.39704362  0.09784256  1
  Te  Te76  1  0.09364771  0.39292450  0.41552790  1
  Te  Te77  1  0.10737693  0.43224859  0.73436361  1
  Te  Te78  1  0.11273016  0.81280534  0.08172032  1
  Te  Te79  1  0.09369889  0.76147016  0.41211216  1
  Te  Te80  1  0.07948289  0.76495728  0.75165516  1
  Te  Te81  1  0.39924549  0.07574248  0.05139635  1
  Te  Te82  1  0.40915052  0.09650972  0.43215551  1
  Te  Te83  1  0.39101332  0.07421033  0.76428044  1
  Te  Te84  1  0.39227648  0.42774013  0.08286125  1
  Te  Te85  1  0.41014460  0.39950472  0.41151516  1
  Te  Te86  1  0.42287259  0.39761720  0.75476241  1
  Te  Te87  1  0.38606502  0.75256963  0.05389040  1
  Te  Te88  1  0.42303878  0.74224271  0.40981523  1
  Te  Te89  1  0.40596519  0.75051614  0.77324054  1
  Te  Te90  1  0.75404547  0.07261217  0.06666488  1
  Te  Te91  1  0.74046103  0.07758328  0.40126816  1
  Te  Te92  1  0.76086880  0.06417462  0.77444554  1
  Te  Te93  1  0.75664553  0.40790959  0.08401904  1
  Te  Te94  1  0.76778282  0.42304890  0.41741671  1
  Te  Te95  1  0.74888452  0.41371950  0.74486264  1
  Te  Te96  1  0.75776871  0.74912622  0.08140278  1
  Te  Te97  1  0.74370529  0.76504714  0.43042063  1
  Te  Te98  1  0.74042819  0.76537436  0.76976001  1
  Te  Te99  1  0.06937499  0.28496993  0.21436764  1
  Te  Te100  1  0.08327919  0.24511099  0.58901588  1
  Te  Te101  1  0.10388796  0.22594597  0.93856604  1
  Te  Te102  1  0.10285037  0.59010890  0.21816247  1
  Te  Te103  1  0.08031063  0.58715130  0.60236197  1
  Te  Te104  1  0.08157326  0.58970914  0.92375203  1
  Te  Te105  1  0.08320266  0.93998876  0.20284073  1
  Te  Te106  1  0.08148840  0.90943507  0.58422146  1
  Te  Te107  1  0.12862204  0.92598895  0.92166291  1
  Te  Te108  1  0.42562361  0.25406263  0.24065649  1
  Te  Te109  1  0.38878898  0.24862636  0.59623432  1
  Te  Te110  1  0.41219242  0.22139135  0.91550441  1
  Te  Te111  1  0.39366347  0.58184298  0.24123398  1
  Te  Te112  1  0.39015471  0.55057678  0.56653944  1
  Te  Te113  1  0.40908597  0.59719464  0.92055443  1
  Te  Te114  1  0.38925244  0.89258301  0.21873744  1
  Te  Te115  1  0.39414507  0.92685264  0.60271332  1
  Te  Te116  1  0.39967192  0.92988365  0.92667467  1
  Te  Te117  1  0.74040260  0.25449640  0.23768099  1
  Te  Te118  1  0.76489410  0.26742939  0.57335235  1
  Te  Te119  1  0.75069845  0.23291859  0.92464049  1
  Te  Te120  1  0.75144488  0.61590061  0.27629550  1
  Te  Te121  1  0.73847225  0.60623012  0.61335242  1
  Te  Te122  1  0.74870357  0.57026741  0.93458195  1
  Te  Te123  1  0.76233053  0.91746040  0.25155236  1
  Te  Te124  1  0.75812433  0.91493821  0.58137251  1
  Te  Te125  1  0.71368520  0.94519939  0.89891020  1
  Te  Te126  1  0.22888781  0.25148222  0.08850789  1
  Te  Te127  1  0.23199473  0.23298529  0.42295490  1
  Te  Te128  1  0.25785335  0.25348686  0.76612374  1
  Te  Te129  1  0.21919256  0.60952302  0.11447329  1
  Te  Te130  1  0.24789247  0.57651535  0.41425680  1
  Te  Te131  1  0.24149667  0.58312819  0.75089511  1
  Te  Te132  1  0.20734881  0.94288787  0.09119374  1
  Te  Te133  1  0.25031611  0.90937095  0.41357053  1
  Te  Te134  1  0.21954983  0.92523633  0.73760149  1
  Te  Te135  1  0.55679968  0.22047433  0.06676481  1
  Te  Te136  1  0.58595047  0.24138497  0.41985849  1
  Te  Te137  1  0.59452334  0.21884843  0.77349560  1
  Te  Te138  1  0.57357613  0.57603138  0.09164188  1
  Te  Te139  1  0.58832239  0.59415929  0.41636918  1
  Te  Te140  1  0.57603140  0.60787130  0.75273895  1
  Te  Te141  1  0.58473477  0.92619395  0.07332973  1
  Te  Te142  1  0.58817589  0.91853813  0.40985743  1
  Te  Te143  1  0.56758340  0.91425067  0.74931487  1
  Te  Te144  1  0.91187775  0.22432212  0.06149768  1
  Te  Te145  1  0.91066081  0.26265476  0.40288989  1
  Te  Te146  1  0.92328479  0.24185851  0.75542487  1
  Te  Te147  1  0.94766015  0.57400118  0.08803815  1
  Te  Te148  1  0.92065871  0.58707944  0.41280109  1
  Te  Te149  1  0.93268543  0.57787663  0.76158682  1
  Te  Te150  1  0.91727994  0.90053123  0.06943717  1
  Te  Te151  1  0.93675683  0.93244855  0.38615295  1
  Te  Te152  1  0.92076803  0.92555818  0.77830345  1
  Te  Te153  1  0.25700947  0.08669113  0.26879342  1
  Te  Te154  1  0.26248538  0.08066351  0.58563101  1
  Te  Te155  1  0.22483484  0.04385402  0.96351872  1
  Te  Te156  1  0.25298149  0.41673122  0.22864413  1
  Te  Te157  1  0.27657518  0.44490607  0.59500078  1
  Te  Te158  1  0.24203383  0.42081246  0.91971546  1
  Te  Te159  1  0.22900967  0.74696183  0.21037984  1
  Te  Te160  1  0.24280535  0.75834947  0.60531387  1
  Te  Te161  1  0.26251046  0.75011597  0.93762781  1
  Te  Te162  1  0.58754514  0.05289379  0.24787873  1
  Te  Te163  1  0.56792261  0.08536744  0.59292299  1
  Te  Te164  1  0.61037589  0.05419160  0.94311081  1
  Te  Te165  1  0.58145962  0.42855061  0.24707439  1
  Te  Te166  1  0.58725675  0.42278054  0.58512412  1
  Te  Te167  1  0.57288849  0.39808952  0.90041683  1
  Te  Te168  1  0.57951628  0.73862179  0.24613950  1
  Te  Te169  1  0.58757909  0.76654026  0.57073107  1
  Te  Te170  1  0.59013546  0.75855793  0.89565875  1
  Te  Te171  1  0.94269000  0.10718331  0.22096551  1
  Te  Te172  1  0.91955303  0.09075440  0.57843643  1
  Te  Te173  1  0.92245443  0.07221541  0.91776452  1
  Te  Te174  1  0.95348578  0.41174902  0.24698411  1
  Te  Te175  1  0.91996000  0.41668671  0.56694742  1
  Te  Te176  1  0.94731622  0.42089308  0.89234422  1
  Te  Te177  1  0.94432894  0.75856937  0.23684964  1
  Te  Te178  1  0.92789577  0.73911967  0.60196426  1
  Te  Te179  1  0.91597835  0.73894741  0.93424889  1
