# generated using pymatgen
data_In2Te3
_symmetry_space_group_name_H-M   'P 1'
_cell_length_a   18.94685921
_cell_length_b   18.93479357
_cell_length_c   18.91631768
_cell_angle_alpha   90.09953804
_cell_angle_beta   89.87108966
_cell_angle_gamma   89.88956318
_symmetry_Int_Tables_number   1
_chemical_formula_structural   In2Te3
_chemical_formula_sum   'In72 Te108'
_cell_volume   6786.28097934
_cell_formula_units_Z   36
loop_
 _symmetry_equiv_pos_site_id
 _symmetry_equiv_pos_as_xyz
  1  'x, y, z'
loop_
 _atom_site_type_symbol
 _atom_site_label
 _atom_site_symmetry_multiplicity
 _atom_site_fract_x
 _atom_site_fract_y
 _atom_site_fract_z
 _atom_site_occupancy
  In  In0  1  0.49467691  0.66780133  0.17599534  1
  In  In1  1  0.50729815  0.34542857  0.16823360  1
  In  In2  1  -0.02595798  0.14505236  0.12433454  1
  In  In3  1  -0.00265581  0.66707488  0.66578790  1
  In  In4  1  0.18425467  0.81139178  0.66344943  1
  In  In5  1  0.81349565  0.79808099  0.36185214  1
  In  In6  1  0.16966994  0.84211134  0.33658849  1
  In  In7  1  0.64699885  0.86012566  0.14014487  1
  In  In8  1  0.66773076  -0.02406133  0.64861932  1
  In  In9  1  -0.02525215  -0.03416988  0.69488261  1
  In  In10  1  0.02461118  0.66525747  0.34684562  1
  In  In11  1  0.18216414  0.36065017  0.50082853  1
  In  In12  1  0.33702208  0.67387151  0.35907419  1
  In  In13  1  0.15599690  0.33309839  0.11930516  1
  In  In14  1  0.16952694  0.00068878  0.49775895  1
  In  In15  1  0.00202799  0.17484537  0.48967311  1
  In  In16  1  0.49930906  -0.01001374  0.81151321  1
  In  In17  1  -0.00032050  0.81179201  0.50244678  1
  In  In18  1  0.49748409  0.50450831  0.38237539  1
  In  In19  1  0.49796561  0.21758299  0.61500999  1
  In  In20  1  0.14958688  0.16288745  0.66731490  1
  In  In21  1  0.83856521  0.65212182  0.16871478  1
  In  In22  1  0.83481203  0.17394647  0.65174725  1
  In  In23  1  0.66503200  0.51788158  0.50981385  1
  In  In24  1  0.50239434  0.69632335  0.80418493  1
  In  In25  1  0.16625260  0.14469681  0.00568105  1
  In  In26  1  0.67948848  0.47843451  0.19169245  1
  In  In27  1  0.34967219  0.00427761  -0.02482801  1
  In  In28  1  0.16722741  0.67437603  0.12061525  1
  In  In29  1  0.83401492  0.31339437  0.83482801  1
  In  In30  1  0.63701292  0.15016159  0.79900590  1
  In  In31  1  0.45269521  0.48375658  0.66472427  1
  In  In32  1  0.84036023  0.66666383  0.83728908  1
  In  In33  1  0.14232992  -0.00504713  0.16728786  1
  In  In34  1  0.67602695  0.67889167  0.65380222  1
  In  In35  1  0.83274528  -0.01526960  0.50137103  1
  In  In36  1  0.83428462  -0.02328592  0.13511713  1
  In  In37  1  0.83769566  0.30263884  0.17214295  1
  In  In38  1  0.47833496  0.52624948  -0.01983625  1
  In  In39  1  0.31081879  -0.00198891  0.67296771  1
  In  In40  1  0.14813817  0.84635625  -0.03104201  1
  In  In41  1  0.51275282  0.84172365  0.33731949  1
  In  In42  1  0.18002306  0.34147372  0.84646602  1
  In  In43  1  0.33816846  0.82356603  0.13954556  1
  In  In44  1  0.00714624  0.48612042  0.14464422  1
  In  In45  1  0.81856126  0.34923548  0.51820244  1
  In  In46  1  0.64663475  0.32505499  -0.02283198  1
  In  In47  1  0.12911323  0.19653214  0.33103009  1
  In  In48  1  0.16577959  0.66040396  0.84530123  1
  In  In49  1  0.52173725  0.18381382  0.38146698  1
  In  In50  1  -0.02269153  0.10885920  0.84670537  1
  In  In51  1  0.34946799  0.18676927  0.83758287  1
  In  In52  1  0.67136894  0.00127003  0.32961127  1
  In  In53  1  0.81277236  0.82099678  -0.01246321  1
  In  In54  1  0.87040861  0.48847300  0.02957926  1
  In  In55  1  0.66032181  0.13124569  0.16314562  1
  In  In56  1  0.33727266  0.01315758  0.31149121  1
  In  In57  1  0.64280064  0.65146663  -0.01352838  1
  In  In58  1  0.03328425  0.34632529  -0.01233022  1
  In  In59  1  0.19894827  0.52283861  0.33818922  1
  In  In60  1  0.01510885  0.34617433  0.34095555  1
  In  In61  1  0.85379296  0.47421822  0.68003803  1
  In  In62  1  0.33481542  0.36123505  0.34839065  1
  In  In63  1  0.47430302  0.00038911  0.50797835  1
  In  In64  1  0.32175328  0.80643079  0.54195378  1
  In  In65  1  0.33655457  0.17180962  0.15210387  1
  In  In66  1  0.17347315  0.50632510  0.68959112  1
  In  In67  1  0.84926548  0.52207883  0.35968915  1
  In  In68  1  0.81775819  0.15113594  0.32183120  1
  In  In69  1  0.31702812  0.51233488  0.15373921  1
  In  In70  1  0.48586826  0.15566522  -0.03245160  1
  In  In71  1  0.68164111  0.52348747  0.81460399  1
  Te  Te72  1  0.05438428  0.03753191  0.04590077  1
  Te  Te73  1  0.07426552  0.07193466  0.40341016  1
  Te  Te74  1  0.08630923  0.05369607  0.75164313  1
  Te  Te75  1  0.12361007  0.46987805  0.02904656  1
  Te  Te76  1  0.08985663  0.45141884  0.41963807  1
  Te  Te77  1  0.08441931  0.42025079  0.76999892  1
  Te  Te78  1  0.08246839  0.78842225  0.08918904  1
  Te  Te79  1  0.12027228  0.74090345  0.43835768  1
  Te  Te80  1  0.07934991  0.75593218  0.75714937  1
  Te  Te81  1  0.42796731  0.07248456  0.08634233  1
  Te  Te82  1  0.40063786  0.10187002  0.42064687  1
  Te  Te83  1  0.41340036  0.09211059  0.73817029  1
  Te  Te84  1  0.41502636  0.42407189  0.07661747  1
  Te  Te85  1  0.43162450  0.39147116  0.45832550  1
  Te  Te86  1  0.44068299  0.37647657  0.76819937  1
  Te  Te87  1  0.45041347  0.75853753  0.06918956  1
  Te  Te88  1  0.42857018  0.76342538  0.43748165  1
  Te  Te89  1  0.41458259  0.75256268  0.69712508  1
  Te  Te90  1  0.76932917  0.09406773  0.06926245  1
  Te  Te91  1  0.74137035  0.08706036  0.43609787  1
  Te  Te92  1  0.75249961  0.07622803  0.73215430  1
  Te  Te93  1  0.74495022  0.39075352  0.07972345  1
  Te  Te94  1  0.74532013  0.42443036  0.41163557  1
  Te  Te95  1  0.74083475  0.39921817  0.74887136  1
  Te  Te96  1  0.73278458  0.73056674  0.08898750  1
  Te  Te97  1  0.70475160  0.73577365  0.44274007  1
  Te  Te98  1  0.72390614  0.74131800  0.78183033  1
  Te  Te99  1  0.05590639  0.25195144  0.20918803  1
  Te  Te100  1  0.08459450  0.26587106  0.57627511  1
  Te  Te101  1  0.07520238  0.21932872  0.90920134  1
  Te  Te102  1  0.09865658  0.58254382  0.23393884  1
  Te  Te103  1  0.10240157  0.59295568  0.59377362  1
  Te  Te104  1  0.08308915  0.60390431  0.95502909  1
  Te  Te105  1  0.06657631  0.91046033  0.25909272  1
  Te  Te106  1  0.08532654  0.91234089  0.58725887  1
  Te  Te107  1  0.05758771  0.95098509  0.91770308  1
  Te  Te108  1  0.40755211  0.26331830  0.25094493  1
  Te  Te109  1  0.38224876  0.30817773  0.58536834  1
  Te  Te110  1  0.43216394  0.28507713  0.91403439  1
  Te  Te111  1  0.41533303  0.56746929  0.26403273  1
  Te  Te112  1  0.39161842  0.58980235  0.57893290  1
  Te  Te113  1  0.40794031  0.60949580  0.88110733  1
  Te  Te114  1  0.42200796  0.91205553  0.23742204  1
  Te  Te115  1  0.41873894  0.90365656  0.61276802  1
  Te  Te116  1  0.41128311  0.90214687  0.89043181  1
  Te  Te117  1  0.72235027  0.24520039  0.25215857  1
  Te  Te118  1  0.72977088  0.25608786  0.58996992  1
  Te  Te119  1  0.72907161  0.22497742  0.89914348  1
  Te  Te120  1  0.74443190  0.59018823  0.27108801  1
  Te  Te121  1  0.77365690  0.57637883  0.59804710  1
  Te  Te122  1  0.76571161  0.57032880  0.93976944  1
  Te  Te123  1  0.75625400  0.90161556  0.25429099  1
  Te  Te124  1  0.77434202  0.88525633  0.59302944  1
  Te  Te125  1  0.77941387  0.94225989  0.90604994  1
  Te  Te126  1  0.26494115  0.25461796  0.04724876  1
  Te  Te127  1  0.24307473  0.25373540  0.41118969  1
  Te  Te128  1  0.24724187  0.25123373  0.74457120  1
  Te  Te129  1  0.29515828  0.62853113  0.06661029  1
  Te  Te130  1  0.28668100  0.56722401  0.45057584  1
  Te  Te131  1  0.26375061  0.54420100  0.81103917  1
  Te  Te132  1  0.25332602  0.93582599  0.08109933  1
  Te  Te133  1  0.27384817  0.92013235  0.41949624  1
  Te  Te134  1  0.24813702  0.89982124  0.76341302  1
  Te  Te135  1  0.57499225  0.23620470  0.08152002  1
  Te  Te136  1  0.58324766  0.25480202  0.49365062  1
  Te  Te137  1  0.55117755  0.26482428  0.75062256  1
  Te  Te138  1  0.58657530  0.55975246  0.10135309  1
  Te  Te139  1  0.58265354  0.61627191  0.43127884  1
  Te  Te140  1  0.57295354  0.58228571  0.72722015  1
  Te  Te141  1  0.60052197  0.96085729  0.04913454  1
  Te  Te142  1  0.58933968  0.92846941  0.43531373  1
  Te  Te143  1  0.59909538  0.89830407  0.75247689  1
  Te  Te144  1  0.91632639  0.26166306  0.04901583  1
  Te  Te145  1  0.90744335  0.25284386  0.39959713  1
  Te  Te146  1  0.93063641  0.22912898  0.75355826  1
  Te  Te147  1  0.94799479  0.61362760  0.06841945  1
  Te  Te148  1  0.92728708  0.61198777  0.44409316  1
  Te  Te149  1  0.93348705  0.57059959  0.76606244  1
  Te  Te150  1  0.91607337  0.86562117  0.08511019  1
  Te  Te151  1  0.91894301  0.90093309  0.40924498  1
  Te  Te152  1  0.89085416  0.90501782  0.80049594  1
  Te  Te153  1  0.22977361  0.10463591  0.24031179  1
  Te  Te154  1  0.25307656  0.10079323  0.57395945  1
  Te  Te155  1  0.25023348  0.08428150  0.89457205  1
  Te  Te156  1  0.23197358  0.40511282  0.23572334  1
  Te  Te157  1  0.26758219  0.41381504  0.61143487  1
  Te  Te158  1  0.24791468  0.44374238  0.92793044  1
  Te  Te159  1  0.25820842  0.74842045  0.25186780  1
  Te  Te160  1  0.28508175  0.68888367  0.63876844  1
  Te  Te161  1  0.25202430  0.76956896  0.89862705  1
  Te  Te162  1  0.56044400  0.08594384  0.26957973  1
  Te  Te163  1  0.56787821  0.08026134  0.59476839  1
  Te  Te164  1  0.59420784  0.05619332  0.92313558  1
  Te  Te165  1  0.57758310  0.41286770  0.28412746  1
  Te  Te166  1  0.56847008  0.43400790  0.58432763  1
  Te  Te167  1  0.58680266  0.44554063  0.90740310  1
  Te  Te168  1  0.59667764  0.75587235  0.24514189  1
  Te  Te169  1  0.60839942  0.76559823  0.55732524  1
  Te  Te170  1  0.60196445  0.76149088  0.89751846  1
  Te  Te171  1  0.91144671  0.06752544  0.23961985  1
  Te  Te172  1  0.93661806  0.07306173  0.58334340  1
  Te  Te173  1  0.87161574  0.06342455  0.93930657  1
  Te  Te174  1  0.90924914  0.42269207  0.24823772  1
  Te  Te175  1  0.93623661  0.40966520  0.57664146  1
  Te  Te176  1  0.92285865  0.41591226  0.90612055  1
  Te  Te177  1  0.91793303  0.73855310  0.26545651  1
  Te  Te178  1  0.90259470  0.76591832  0.60467042  1
  Te  Te179  1  0.92513651  0.77560914  0.89402076  1
