# generated using pymatgen
data_In2Te3
_symmetry_space_group_name_H-M   'P 1'
_cell_length_a   19.01271840
_cell_length_b   19.00656355
_cell_length_c   18.99507516
_cell_angle_alpha   90.02324871
_cell_angle_beta   89.73019641
_cell_angle_gamma   89.97969313
_symmetry_Int_Tables_number   1
_chemical_formula_structural   In2Te3
_chemical_formula_sum   'In72 Te108'
_cell_volume   6864.10559283
_cell_formula_units_Z   36
loop_
 _symmetry_equiv_pos_site_id
 _symmetry_equiv_pos_as_xyz
  1  'x, y, z'
loop_
 _atom_site_type_symbol
 _atom_site_label
 _atom_site_symmetry_multiplicity
 _atom_site_fract_x
 _atom_site_fract_y
 _atom_site_fract_z
 _atom_site_occupancy
  In  In0  1  0.18122908  0.15655174  0.64123925  1
  In  In1  1  0.50525342  -0.00446890  0.18218030  1
  In  In2  1  0.67581408  0.84297234  0.50371059  1
  In  In3  1  0.81872007  0.82376722  -0.01424901  1
  In  In4  1  0.17935689  0.02384790  0.14855462  1
  In  In5  1  0.47916624  0.50810783  0.67698752  1
  In  In6  1  0.53355561  0.83038536  0.66308578  1
  In  In7  1  0.35877608  -0.03156028  0.67291477  1
  In  In8  1  0.33865460  0.50490677  0.51479492  1
  In  In9  1  0.45327001  0.18846905  0.65385089  1
  In  In10  1  0.02525072  0.80632835  0.80655388  1
  In  In11  1  0.83681940  0.34619154  0.14311923  1
  In  In12  1  0.02514684  0.48745547  0.15376212  1
  In  In13  1  0.31768640  0.35077109  -0.02271037  1
  In  In14  1  0.17617609  0.34588741  0.82065358  1
  In  In15  1  0.67546941  0.66304569  0.66203789  1
  In  In16  1  0.50676144  0.49994400  -0.01350816  1
  In  In17  1  0.64075214  0.51426434  0.18014749  1
  In  In18  1  0.66492988  0.03141353  -0.02380097  1
  In  In19  1  0.82781132  0.16957371  0.38094227  1
  In  In20  1  0.16846316  0.17804742  0.02161618  1
  In  In21  1  0.31373496  0.34905702  0.35149889  1
  In  In22  1  0.80888665  0.47338134  0.67703648  1
  In  In23  1  0.51114396  0.16434617  0.34731017  1
  In  In24  1  -0.02557006  0.32245220  -0.07040651  1
  In  In25  1  0.66003792  0.17940105  0.15429179  1
  In  In26  1  0.45813788  0.52761408  0.33342061  1
  In  In27  1  0.22126245  0.85403081  -0.00566246  1
  In  In28  1  0.16343863  -0.02097560  0.49447368  1
  In  In29  1  0.64764291  0.47153210  0.51053035  1
  In  In30  1  0.80316935  0.65019806  0.82802562  1
  In  In31  1  0.00735198  0.00335180  0.34662295  1
  In  In32  1  0.64499758  0.17967912  0.81167717  1
  In  In33  1  0.16395736  0.83112940  0.32057819  1
  In  In34  1  -0.00960750  0.46978980  0.50963763  1
  In  In35  1  0.37691267  0.78705315  0.19165667  1
  In  In36  1  0.00443042  0.20170934  0.17123066  1
  In  In37  1  0.67924041  0.29376654  0.35848543  1
  In  In38  1  -0.02916911  0.47413648  0.83154484  1
  In  In39  1  -0.00997279  0.18884370  0.51984181  1
  In  In40  1  0.17595211  0.50723687  -0.01043825  1
  In  In41  1  0.36506680  -0.03663659  0.00625520  1
  In  In42  1  0.82285678  0.00706447  0.82310248  1
  In  In43  1  0.35000089  0.80446398  0.83412505  1
  In  In44  1  0.00323201  0.83151221  0.52163590  1
  In  In45  1  0.32810248  -0.01672414  0.33724602  1
  In  In46  1  0.81381030  0.01649746  0.18410846  1
  In  In47  1  0.17855762  0.01727505  0.82255909  1
  In  In48  1  0.85823773  0.67004794  0.49686524  1
  In  In49  1  0.17894050  0.34434032  0.51576996  1
  In  In50  1  0.01355803  0.66519713  0.00921916  1
  In  In51  1  0.67108939  0.17978817  0.54320142  1
  In  In52  1  0.53954309  0.68128903  0.83612944  1
  In  In53  1  -0.01086228  0.00187092  -0.04613316  1
  In  In54  1  0.82364517  0.69650195  0.18095130  1
  In  In55  1  0.82757205  0.48600288  0.32056619  1
  In  In56  1  -0.03341027  0.83718764  0.16030399  1
  In  In57  1  -0.01574721  0.00392950  0.66066587  1
  In  In58  1  0.48672996  0.37308112  0.17568981  1
  In  In59  1  0.16114183  0.68128505  0.16599536  1
  In  In60  1  0.64100364  0.33544274  -0.01246371  1
  In  In61  1  0.17355309  0.51563707  0.64096331  1
  In  In62  1  0.18525225  0.35406603  0.17076029  1
  In  In63  1  0.35825228  0.67312980  0.00692587  1
  In  In64  1  0.84743677  0.83220694  0.34984115  1
  In  In65  1  0.33516451  0.17350389  0.86467322  1
  In  In66  1  0.83654030  0.51838708  -0.00896418  1
  In  In67  1  0.50795673  -0.01951781  0.49673828  1
  In  In68  1  0.34460062  0.14311036  0.19441134  1
  In  In69  1  0.67234711  -0.01015084  0.65875043  1
  In  In70  1  0.16012178  0.66362015  0.51491390  1
  In  In71  1  0.63921974  0.81881714  0.17650178  1
  Te  Te72  1  0.05935277  0.07866920  0.07623163  1
  Te  Te73  1  0.08374094  0.09357943  0.43818189  1
  Te  Te74  1  0.08136093  0.09368973  0.73963103  1
  Te  Te75  1  0.09415243  0.39722452  0.05375600  1
  Te  Te76  1  0.10636669  0.43157350  0.42381018  1
  Te  Te77  1  0.08834548  0.43567134  0.73830550  1
  Te  Te78  1  0.08413382  0.78127684  0.07784144  1
  Te  Te79  1  0.07911972  0.75141819  0.41801331  1
  Te  Te80  1  0.11356668  0.71719680  0.73016556  1
  Te  Te81  1  0.42799994  0.08039226  0.08437758  1
  Te  Te82  1  0.41404215  0.07516915  0.42137653  1
  Te  Te83  1  0.40248817  0.08818886  0.75633798  1
  Te  Te84  1  0.39783725  0.43752155  0.07331309  1
  Te  Te85  1  0.42380464  0.41356964  0.42859258  1
  Te  Te86  1  0.38292452  0.41927906  0.74480215  1
  Te  Te87  1  0.44777443  0.78186002  0.05979095  1
  Te  Te88  1  0.45922209  0.67720711  0.36408175  1
  Te  Te89  1  0.43904681  0.73385356  0.73442811  1
  Te  Te90  1  0.76253550  0.10312183  0.07183049  1
  Te  Te91  1  0.73197068  0.08474843  0.44758765  1
  Te  Te92  1  0.74840199  0.09988677  0.73018302  1
  Te  Te93  1  0.73219479  0.43461849  0.08086335  1
  Te  Te94  1  0.75709309  0.40356321  0.42581471  1
  Te  Te95  1  0.71074348  0.35810463  0.69431788  1
  Te  Te96  1  0.72890679  0.74053373  0.07387330  1
  Te  Te97  1  0.75150606  0.73742721  0.41493416  1
  Te  Te98  1  0.72525270  0.75535563  0.76442851  1
  Te  Te99  1  0.11229896  0.25563893  0.25172004  1
  Te  Te100  1  0.08561683  0.26961959  0.60709292  1
  Te  Te101  1  0.10024046  0.24061107  0.90389191  1
  Te  Te102  1  0.08908132  0.58154841  0.24365597  1
  Te  Te103  1  0.05023049  0.58530730  0.58718024  1
  Te  Te104  1  0.07173131  0.57503200  0.90514040  1
  Te  Te105  1  0.07598904  0.92311403  0.23737862  1
  Te  Te106  1  0.09543036  0.91125591  0.61075045  1
  Te  Te107  1  0.09660873  0.90818132  0.90519591  1
  Te  Te108  1  0.42166336  0.25512068  0.26389636  1
  Te  Te109  1  0.35838986  0.25935784  0.56536674  1
  Te  Te110  1  0.42619337  0.28146694  0.90630082  1
  Te  Te111  1  0.45373057  0.61274986  0.20883788  1
  Te  Te112  1  0.42073710  0.60383559  0.58141168  1
  Te  Te113  1  0.42732000  0.59565390  0.89802452  1
  Te  Te114  1  0.43763748  0.89764150  0.27600505  1
  Te  Te115  1  0.42141331  0.87889613  0.56902349  1
  Te  Te116  1  0.44125986  0.91296971  0.88833584  1
  Te  Te117  1  0.77035869  0.24795006  0.23943278  1
  Te  Te118  1  0.77536932  0.27733074  0.58645974  1
  Te  Te119  1  0.72926396  0.24537522  0.91440530  1
  Te  Te120  1  0.74236113  0.59515058  0.25915773  1
  Te  Te121  1  0.75903174  0.56802813  0.56781946  1
  Te  Te122  1  0.72137761  0.58588847  0.93009224  1
  Te  Te123  1  0.75215147  0.89687688  0.24987905  1
  Te  Te124  1  0.77065101  0.89863209  0.59949736  1
  Te  Te125  1  0.73259009  0.91402705  0.90195396  1
  Te  Te126  1  0.28260649  0.24493364  0.09274333  1
  Te  Te127  1  0.26190021  0.24195994  0.44322094  1
  Te  Te128  1  0.25084785  0.23328285  0.75521339  1
  Te  Te129  1  0.25471386  0.59189128  0.08527720  1
  Te  Te130  1  0.22825989  0.56076720  0.43305332  1
  Te  Te131  1  0.24653961  0.62079431  0.71396743  1
  Te  Te132  1  0.27689606  0.90767910  0.12641422  1
  Te  Te133  1  0.25918675  0.88227908  0.42711553  1
  Te  Te134  1  0.25511330  0.90259552  0.76182994  1
  Te  Te135  1  0.55333654  0.26378679  0.09040141  1
  Te  Te136  1  0.56952796  0.25370585  0.45357572  1
  Te  Te137  1  0.56243112  0.26699405  0.71971526  1
  Te  Te138  1  0.56782278  0.59673510  0.08223078  1
  Te  Te139  1  0.58328846  0.56143871  0.41233404  1
  Te  Te140  1  0.59898869  0.56875743  0.75111079  1
  Te  Te141  1  0.60771977  0.93740081  0.08750945  1
  Te  Te142  1  0.59273988  0.90775296  0.40254052  1
  Te  Te143  1  0.57350043  0.93724363  0.75373993  1
  Te  Te144  1  0.91996536  0.25367284  0.05834846  1
  Te  Te145  1  0.92977148  0.26625084  0.41107647  1
  Te  Te146  1  0.92987879  0.32704670  0.78740468  1
  Te  Te147  1  0.91277550  0.59158426  0.10242242  1
  Te  Te148  1  0.92320068  0.56396432  0.40744746  1
  Te  Te149  1  0.90123531  0.57730485  0.74310403  1
  Te  Te150  1  0.89322307  0.93051177  0.06563685  1
  Te  Te151  1  0.91583543  0.93098000  0.44060093  1
  Te  Te152  1  0.92297684  0.90490691  0.75965830  1
  Te  Te153  1  0.23133510  0.08497819  0.27707603  1
  Te  Te154  1  0.26780273  0.04950091  0.57960520  1
  Te  Te155  1  0.25241480  0.06688394  0.94577970  1
  Te  Te156  1  0.27210949  0.44212389  0.24705672  1
  Te  Te157  1  0.29166230  0.39624245  0.62603774  1
  Te  Te158  1  0.26811012  0.45534662  0.87585940  1
  Te  Te159  1  0.26356869  0.72672891  0.27144080  1
  Te  Te160  1  0.22545245  0.74336365  0.62222059  1
  Te  Te161  1  0.24533249  0.72866259  0.91617385  1
  Te  Te162  1  0.60338335  0.08390682  0.25820905  1
  Te  Te163  1  0.55860622  0.08166180  0.59745451  1
  Te  Te164  1  0.56150025  0.10668313  0.90876931  1
  Te  Te165  1  0.60733392  0.39234319  0.26241616  1
  Te  Te166  1  0.56105174  0.39997928  0.60762091  1
  Te  Te167  1  0.55752803  0.40305167  0.88703990  1
  Te  Te168  1  0.56177198  0.71861627  0.25372774  1
  Te  Te169  1  0.58881537  0.73153548  0.56080646  1
  Te  Te170  1  0.53987359  0.79221938  0.93283770  1
  Te  Te171  1  0.92408575  0.09269287  0.25532653  1
  Te  Te172  1  0.89910304  0.10344355  0.59706007  1
  Te  Te173  1  0.91507322  0.10346997  0.88382394  1
  Te  Te174  1  0.93353664  0.40579903  0.24291213  1
  Te  Te175  1  0.90122015  0.38639611  0.59643183  1
  Te  Te176  1  0.84118268  0.40421583  0.89169905  1
  Te  Te177  1  0.93807238  0.73809418  0.26998326  1
  Te  Te178  1  0.90177331  0.76186311  0.60220075  1
  Te  Te179  1  0.92285184  0.73948752  0.91341412  1
