# generated using pymatgen
data_In2Te3
_symmetry_space_group_name_H-M   'P 1'
_cell_length_a   18.77580903
_cell_length_b   18.77784104
_cell_length_c   18.79021351
_cell_angle_alpha   90.06517882
_cell_angle_beta   89.93933926
_cell_angle_gamma   90.02905675
_symmetry_Int_Tables_number   1
_chemical_formula_structural   In2Te3
_chemical_formula_sum   'In72 Te108'
_cell_volume   6624.84089831
_cell_formula_units_Z   36
loop_
 _symmetry_equiv_pos_site_id
 _symmetry_equiv_pos_as_xyz
  1  'x, y, z'
loop_
 _atom_site_type_symbol
 _atom_site_label
 _atom_site_symmetry_multiplicity
 _atom_site_fract_x
 _atom_site_fract_y
 _atom_site_fract_z
 _atom_site_occupancy
  In  In0  1  0.15263305  0.50570349  0.66394497  1
  In  In1  1  0.85219543  0.17865862  -0.00182971  1
  In  In2  1  0.63376756  0.15435640  0.81695739  1
  In  In3  1  0.15365425  0.01336999  0.16184444  1
  In  In4  1  -0.00739054  0.34114497  0.00345355  1
  In  In5  1  0.81798077  0.66866000  0.82534922  1
  In  In6  1  0.83622117  0.64495717  0.18481968  1
  In  In7  1  0.49859584  0.34671211  0.15542850  1
  In  In8  1  0.50174103  0.83011359  -0.01920122  1
  In  In9  1  0.31408705  0.66212152  -0.01380286  1
  In  In10  1  0.00395852  0.81268292  0.15914473  1
  In  In11  1  0.17679795  0.82543611  0.34457665  1
  In  In12  1  0.68455397  0.48545411  0.18024867  1
  In  In13  1  0.34040309  0.33506648  0.33432066  1
  In  In14  1  0.83718755  0.33194680  0.85002085  1
  In  In15  1  0.17401309  0.32498768  0.17536150  1
  In  In16  1  0.01949753  0.02830057  -0.00483619  1
  In  In17  1  0.51183528  0.16504637  0.34515596  1
  In  In18  1  0.66007791  0.82649139  0.19275235  1
  In  In19  1  0.34998664  0.65425285  0.32494728  1
  In  In20  1  0.17322556  0.50062904  0.01434532  1
  In  In21  1  0.34858888  -0.00082044  0.32981440  1
  In  In22  1  0.00483657  0.16914299  0.50280285  1
  In  In23  1  0.34375475  0.48834684  0.83870799  1
  In  In24  1  0.82565113  0.84780841  -0.01056867  1
  In  In25  1  0.66034581  0.50220706  0.85467208  1
  In  In26  1  0.83589276  0.67997295  0.48617435  1
  In  In27  1  -0.01917358  0.01161782  0.34695591  1
  In  In28  1  0.82635662  -0.00998330  0.18407462  1
  In  In29  1  0.17161071  0.68095178  0.85692705  1
  In  In30  1  0.34628172  0.32474306  0.68797327  1
  In  In31  1  0.39179345  0.16743126  0.83432428  1
  In  In32  1  0.18374093  0.84071980  0.66472301  1
  In  In33  1  0.49435433  0.32838542  0.49558033  1
  In  In34  1  0.34299579  0.68531270  0.66778747  1
  In  In35  1  0.66131191  0.34467096  0.01446892  1
  In  In36  1  0.00312389  0.13525946  0.83095190  1
  In  In37  1  0.83851497  0.50066480  0.65992728  1
  In  In38  1  0.82841975  0.00886414  0.50348590  1
  In  In39  1  0.48558756  0.00462225  0.16643431  1
  In  In40  1  0.66852529  0.16922985  0.50840944  1
  In  In41  1  0.35161058  0.85354553  0.52554308  1
  In  In42  1  0.31704555  0.12173249  0.53606211  1
  In  In43  1  0.16834838  0.17524708  0.32318415  1
  In  In44  1  -0.01066141  0.65836303  0.33196912  1
  In  In45  1  0.82557625  0.19114081  0.33657815  1
  In  In46  1  -0.00294593  0.83757944  0.52417993  1
  In  In47  1  0.66164631  0.31167123  0.66017867  1
  In  In48  1  0.64456090  0.85401692  0.47297454  1
  In  In49  1  0.34394427  0.84328183  0.18832115  1
  In  In50  1  0.33633780  0.50034795  0.49463672  1
  In  In51  1  0.00320127  0.65928500  0.64709905  1
  In  In52  1  0.16909426  0.81168051  -0.01241251  1
  In  In53  1  -0.03009278  0.85523226  0.79684351  1
  In  In54  1  0.51513700  0.66367460  0.17287860  1
  In  In55  1  0.17441225  0.33038991  0.80486538  1
  In  In56  1  0.18138416  0.18490770  0.00657215  1
  In  In57  1  0.16023027  0.34037790  0.47560004  1
  In  In58  1  0.35338001  -0.01349009  -0.00642973  1
  In  In59  1  0.16042804  0.50334672  0.32136279  1
  In  In60  1  0.66760538  0.17289432  0.17085791  1
  In  In61  1  0.65688349  0.65788941  0.01791477  1
  In  In62  1  0.66414244  0.69424189  0.67028644  1
  In  In63  1  -0.01998524  0.64355744  0.01259748  1
  In  In64  1  0.63501759  -0.01511216  0.66797671  1
  In  In65  1  0.66082097  0.00338874  -0.02716104  1
  In  In66  1  0.49246620  0.66930877  0.82983501  1
  In  In67  1  -0.00856332  0.33299281  0.65055557  1
  In  In68  1  0.17935923  -0.01807033  0.81594312  1
  In  In69  1  0.50865190  0.65499075  0.50300967  1
  In  In70  1  0.67105916  0.48811656  0.48031166  1
  In  In71  1  0.81160348  0.16520605  0.64613090  1
  Te  Te72  1  0.07174520  0.12632590  0.09962451  1
  Te  Te73  1  0.09721634  0.07864092  0.41837085  1
  Te  Te74  1  0.10327951  0.08254750  0.73307444  1
  Te  Te75  1  0.07861057  0.42022679  0.10271283  1
  Te  Te76  1  0.06379871  0.41042267  0.38880753  1
  Te  Te77  1  0.06322099  0.42177196  0.75485925  1
  Te  Te78  1  0.09643615  0.71812592  0.08445912  1
  Te  Te79  1  0.07416033  0.74737496  0.42538651  1
  Te  Te80  1  0.08491339  0.75245759  0.75050225  1
  Te  Te81  1  0.40638251  0.09354176  0.08057324  1
  Te  Te82  1  0.43144982  0.07215148  0.43839600  1
  Te  Te83  1  0.41718963  0.06808127  0.72955276  1
  Te  Te84  1  0.39933396  0.37610581  0.04918262  1
  Te  Te85  1  0.43641922  0.43403733  0.40078370  1
  Te  Te86  1  0.44091107  0.42021288  0.74973804  1
  Te  Te87  1  0.41812193  0.75440641  0.08484384  1
  Te  Te88  1  0.41083454  0.74797626  0.42891434  1
  Te  Te89  1  0.44353713  0.77383364  0.73449102  1
  Te  Te90  1  0.75235375  0.07706490  0.07894749  1
  Te  Te91  1  0.73980583  0.08172004  0.40393197  1
  Te  Te92  1  0.74190223  0.07484317  0.74518452  1
  Te  Te93  1  0.77181104  0.41965281  0.07767192  1
  Te  Te94  1  0.78607688  0.44953147  0.38143710  1
  Te  Te95  1  0.74576809  0.41213500  0.74893164  1
  Te  Te96  1  0.75835044  0.75280036  0.08949785  1
  Te  Te97  1  0.72886024  0.74813468  0.41013699  1
  Te  Te98  1  0.75209959  0.78039404  0.75462517  1
  Te  Te99  1  0.07123989  0.27418236  0.27205816  1
  Te  Te100  1  0.10469969  0.25133452  0.58774321  1
  Te  Te101  1  0.07776522  0.24934931  0.90539671  1
  Te  Te102  1  0.07236739  0.58547195  0.23419548  1
  Te  Te103  1  0.07760782  0.57077708  0.55566428  1
  Te  Te104  1  0.08124061  0.57415549  0.91737369  1
  Te  Te105  1  0.08104818  0.91527488  0.25615868  1
  Te  Te106  1  0.10034429  0.93226803  0.57822719  1
  Te  Te107  1  0.07682046  0.90976065  0.91327877  1
  Te  Te108  1  0.42428469  0.24123760  0.24880294  1
  Te  Te109  1  0.41382296  0.23460317  0.58403611  1
  Te  Te110  1  0.39956880  0.28491639  0.92098882  1
  Te  Te111  1  0.41943992  0.56473772  0.23024758  1
  Te  Te112  1  0.42128707  0.57246002  0.59942082  1
  Te  Te113  1  0.42836415  0.57556244  0.93214223  1
  Te  Te114  1  0.45430601  0.89646317  0.28182866  1
  Te  Te115  1  0.40890542  0.95159980  0.62355431  1
  Te  Te116  1  0.45151257  0.93908275  0.88707799  1
  Te  Te117  1  0.74590144  0.28097411  0.24089524  1
  Te  Te118  1  0.76899131  0.27858282  0.55533609  1
  Te  Te119  1  0.73606707  0.23504596  0.91194813  1
  Te  Te120  1  0.73647556  0.58710920  0.27862365  1
  Te  Te121  1  0.73925342  0.59064055  0.58126643  1
  Te  Te122  1  0.76256003  0.58040772  0.93708480  1
  Te  Te123  1  0.74151875  0.91583266  0.27826535  1
  Te  Te124  1  0.73922251  0.91296267  0.57983837  1
  Te  Te125  1  0.73886350  0.91009474  0.88687965  1
  Te  Te126  1  0.27945365  0.25480743  0.09484162  1
  Te  Te127  1  0.27196529  0.23468457  0.42905731  1
  Te  Te128  1  0.26326251  0.21761548  0.75857526  1
  Te  Te129  1  0.26915966  0.57723376  0.09698888  1
  Te  Te130  1  0.24257824  0.59044535  0.41735550  1
  Te  Te131  1  0.24838315  0.58713309  0.75494183  1
  Te  Te132  1  0.24167193  0.91109794  0.08674774  1
  Te  Te133  1  0.25692194  0.92510817  0.42712295  1
  Te  Te134  1  0.29217207  0.92217672  0.73404495  1
  Te  Te135  1  0.57225020  0.23380003  0.07223700  1
  Te  Te136  1  0.60473025  0.26832613  0.40846890  1
  Te  Te137  1  0.55379395  0.25791193  0.74728946  1
  Te  Te138  1  0.57508724  0.55195767  0.08508226  1
  Te  Te139  1  0.58559034  0.58005283  0.39980732  1
  Te  Te140  1  0.58879648  0.58409380  0.74654873  1
  Te  Te141  1  0.58606418  0.91290836  0.08194569  1
  Te  Te142  1  0.53725238  0.93953329  0.42031372  1
  Te  Te143  1  0.54566213  0.91225603  0.76280119  1
  Te  Te144  1  0.90095149  0.27309259  0.09976058  1
  Te  Te145  1  0.93176594  0.26340902  0.41254536  1
  Te  Te146  1  0.91069567  0.23786825  0.74939255  1
  Te  Te147  1  0.91611687  0.54831474  0.10694517  1
  Te  Te148  1  0.90206524  0.56654530  0.41300562  1
  Te  Te149  1  0.92435399  0.58351426  0.75572465  1
  Te  Te150  1  0.93235059  0.92543512  0.08243230  1
  Te  Te151  1  0.90422921  0.90381253  0.42043587  1
  Te  Te152  1  0.91873751  0.96691413  0.72123319  1
  Te  Te153  1  0.26266029  0.08818617  0.23907703  1
  Te  Te154  1  0.20819409  0.05064834  0.60689321  1
  Te  Te155  1  0.24435717  0.07189974  0.92392289  1
  Te  Te156  1  0.26722936  0.42881844  0.24050816  1
  Te  Te157  1  0.25300339  0.40772472  0.58743992  1
  Te  Te158  1  0.24511384  0.40208141  0.91963204  1
  Te  Te159  1  0.24639727  0.73851803  0.24169916  1
  Te  Te160  1  0.24556251  0.74182335  0.56705006  1
  Te  Te161  1  0.28485332  0.77947014  0.89249994  1
  Te  Te162  1  0.59262225  0.07083521  0.25425864  1
  Te  Te163  1  0.57330481  0.09942606  0.59628359  1
  Te  Te164  1  0.55047268  0.09114347  0.92441199  1
  Te  Te165  1  0.59342241  0.39509687  0.25737496  1
  Te  Te166  1  0.58160226  0.41908166  0.58318259  1
  Te  Te167  1  0.57110055  0.39888580  0.91002927  1
  Te  Te168  1  0.58660714  0.73395959  0.28298803  1
  Te  Te169  1  0.56853767  0.77172593  0.58135798  1
  Te  Te170  1  0.60380711  0.74543144  0.90567675  1
  Te  Te171  1  0.91525784  0.09980695  0.24326185  1
  Te  Te172  1  0.93228324  0.06762532  0.60036023  1
  Te  Te173  1  0.89651175  0.05981480  0.90949956  1
  Te  Te174  1  0.86408411  0.37903882  0.27623275  1
  Te  Te175  1  0.92385097  0.42968125  0.56282784  1
  Te  Te176  1  0.91953921  0.43459112  0.91459273  1
  Te  Te177  1  0.90206901  0.76283249  0.25895556  1
  Te  Te178  1  0.89470540  0.75790479  0.60517939  1
  Te  Te179  1  0.92615267  0.75418590  0.91796051  1
