# generated using pymatgen
data_In2Te3
_symmetry_space_group_name_H-M   'P 1'
_cell_length_a   18.77300222
_cell_length_b   18.77354008
_cell_length_c   18.77809319
_cell_angle_alpha   89.94467844
_cell_angle_beta   89.99001830
_cell_angle_gamma   89.99005265
_symmetry_Int_Tables_number   1
_chemical_formula_structural   In2Te3
_chemical_formula_sum   'In72 Te108'
_cell_volume   6618.06731295
_cell_formula_units_Z   36
loop_
 _symmetry_equiv_pos_site_id
 _symmetry_equiv_pos_as_xyz
  1  'x, y, z'
loop_
 _atom_site_type_symbol
 _atom_site_label
 _atom_site_symmetry_multiplicity
 _atom_site_fract_x
 _atom_site_fract_y
 _atom_site_fract_z
 _atom_site_occupancy
  In  In0  1  0.84632926  0.84606554  0.66028256  1
  In  In1  1  0.66430754  -0.00912474  0.02293440  1
  In  In2  1  0.00489104  0.50847971  0.83086729  1
  In  In3  1  0.66727084  0.46897716  0.84457791  1
  In  In4  1  0.16875489  0.00861952  0.17475524  1
  In  In5  1  0.81435858  0.83296751  0.01234950  1
  In  In6  1  0.48529634  0.67817324  0.49743820  1
  In  In7  1  0.02875443  0.84029257  0.83621494  1
  In  In8  1  0.00464152  0.00208326  -0.00990812  1
  In  In9  1  0.00467824  0.85240776  0.49967088  1
  In  In10  1  0.15322633  0.66760219  0.15219947  1
  In  In11  1  0.66623660  0.33051580  0.31967081  1
  In  In12  1  0.66794627  0.32958202  0.67414368  1
  In  In13  1  0.84005981  0.50101112  -0.00252420  1
  In  In14  1  0.16161148  0.31197366  0.15875298  1
  In  In15  1  0.50000433  0.82230999  0.34613612  1
  In  In16  1  0.31861022  0.01908074  0.32937451  1
  In  In17  1  0.70894355  0.65315074  0.30562583  1
  In  In18  1  0.67329754  0.83362337  0.84924130  1
  In  In19  1  0.33486987  0.17266127  0.48751184  1
  In  In20  1  0.15374671  0.48300187  0.02020496  1
  In  In21  1  0.47604092  0.00327488  0.83540989  1
  In  In22  1  0.82299235  0.00051513  0.16204941  1
  In  In23  1  0.66021524  0.00772090  0.64661833  1
  In  In24  1  0.82645152  0.67821354  0.48622742  1
  In  In25  1  -0.03144574  0.67950165  0.29863022  1
  In  In26  1  0.82145173  0.17947141  0.65215471  1
  In  In27  1  0.18696120  0.69495845  0.51117627  1
  In  In28  1  0.36190915  0.49458791  0.83747255  1
  In  In29  1  0.31652660  0.87277460  0.82920485  1
  In  In30  1  -0.00242541  0.16842964  0.18215459  1
  In  In31  1  0.17627351  0.32593085  0.48436168  1
  In  In32  1  0.48630609  0.82626558  0.66445463  1
  In  In33  1  0.66631750  0.67538577  0.02827828  1
  In  In34  1  0.31188829  0.13707425  0.84194276  1
  In  In35  1  0.16867079  0.85044900  0.33837706  1
  In  In36  1  0.16577226  0.69735396  0.81974996  1
  In  In37  1  0.84862251  0.33137710  0.48740310  1
  In  In38  1  0.84908159  0.33886242  0.83530765  1
  In  In39  1  0.01332877  0.17261328  0.47270364  1
  In  In40  1  0.36393498  0.67020499  0.34437448  1
  In  In41  1  0.66720598  0.49470879  0.49110406  1
  In  In42  1  0.00457034  0.49364356  0.50058133  1
  In  In43  1  0.32469756  0.66555589  -0.00597561  1
  In  In44  1  0.48788632  0.16974943  0.01699174  1
  In  In45  1  0.64388731  0.30096929  0.02584626  1
  In  In46  1  0.35275286  0.34290067  0.03954846  1
  In  In47  1  0.17255338  0.48917441  0.65574322  1
  In  In48  1  0.84259881  0.15311768  0.02704739  1
  In  In49  1  0.00681788  0.00304801  0.33794067  1
  In  In50  1  0.17767495  0.17036937  0.64781342  1
  In  In51  1  0.35335856  0.49185666  0.48573047  1
  In  In52  1  0.51889745  0.66698034  0.84730299  1
  In  In53  1  0.83109196  0.00184877  0.47505154  1
  In  In54  1  0.50104583  0.00405583  0.15636501  1
  In  In55  1  0.85210488  0.65605166  0.82590221  1
  In  In56  1  0.30901251  0.84051538  0.16156260  1
  In  In57  1  0.82882083  0.34325535  0.17975639  1
  In  In58  1  0.32559469  0.66822695  0.65251904  1
  In  In59  1  0.51004934  0.48270066  0.33796771  1
  In  In60  1  0.66596109  0.01041813  0.31693616  1
  In  In61  1  0.00950771  0.00883008  0.67835710  1
  In  In62  1  0.01473728  0.17640409  0.84392333  1
  In  In63  1  0.50451991  0.32710250  0.82452339  1
  In  In64  1  0.65440483  0.65299078  0.65892047  1
  In  In65  1  0.16811459  0.31872937  0.83853579  1
  In  In66  1  0.50002083  0.64873327  0.17401467  1
  In  In67  1  0.17731287  0.47672724  0.31603558  1
  In  In68  1  0.50847142  0.31635268  0.49771053  1
  In  In69  1  0.67100175  0.16503034  0.82517930  1
  In  In70  1  -0.00217699  0.66678906  0.03190935  1
  In  In71  1  0.49192792  0.00678475  0.50393359  1
  Te  Te72  1  0.08433007  0.09608331  0.07932232  1
  Te  Te73  1  0.10717422  0.06980967  0.42336894  1
  Te  Te74  1  0.10884932  0.08954895  0.76076370  1
  Te  Te75  1  0.06487393  0.41995660  0.11812124  1
  Te  Te76  1  0.07280359  0.40129916  0.39884217  1
  Te  Te77  1  0.08236796  0.40567646  0.74620953  1
  Te  Te78  1  0.08766606  0.77554807  0.07642299  1
  Te  Te79  1  0.07950115  0.74361443  0.40856544  1
  Te  Te80  1  0.06066555  0.74474615  0.72848798  1
  Te  Te81  1  0.39318878  0.08183487  0.08970582  1
  Te  Te82  1  0.43293973  0.09707504  0.39399101  1
  Te  Te83  1  0.39839026  0.07833254  0.73604414  1
  Te  Te84  1  0.45152614  0.41674511  0.11823408  1
  Te  Te85  1  0.40197424  0.38170579  0.38930911  1
  Te  Te86  1  0.42180634  0.41043790  0.73370565  1
  Te  Te87  1  0.40851718  0.74625763  0.09415835  1
  Te  Te88  1  0.38695997  0.78137524  0.44594853  1
  Te  Te89  1  0.40855304  0.73771448  0.76819029  1
  Te  Te90  1  0.72247150  0.10584559  0.10606778  1
  Te  Te91  1  0.74350318  0.09905296  0.40889352  1
  Te  Te92  1  0.76061203  0.07290495  0.74356654  1
  Te  Te93  1  0.74093736  0.41140452  0.07210647  1
  Te  Te94  1  0.76177259  0.42410724  0.39771091  1
  Te  Te95  1  0.76873782  0.42595295  0.73856149  1
  Te  Te96  1  0.76853378  0.73808321  0.12047030  1
  Te  Te97  1  0.73723244  0.75993439  0.40301433  1
  Te  Te98  1  0.74724984  0.75002608  0.74360942  1
  Te  Te99  1  0.08238806  0.25057589  0.27130205  1
  Te  Te100  1  0.07493575  0.26193652  0.58033624  1
  Te  Te101  1  0.09720384  0.24549559  0.94516091  1
  Te  Te102  1  0.08076838  0.58035528  0.25356530  1
  Te  Te103  1  0.09306578  0.59368442  0.58022260  1
  Te  Te104  1  0.09153717  0.59459685  0.92393013  1
  Te  Te105  1  0.07130113  0.90646047  0.23641601  1
  Te  Te106  1  0.09702342  0.92639597  0.58947327  1
  Te  Te107  1  0.11537394  0.94308604  0.90463222  1
  Te  Te108  1  0.35951668  0.27916611  0.27839089  1
  Te  Te109  1  0.40899304  0.25409498  0.58727148  1
  Te  Te110  1  0.40504555  0.25016245  0.91415341  1
  Te  Te111  1  0.40431756  0.55760041  0.25202845  1
  Te  Te112  1  0.42851874  0.57222425  0.59152189  1
  Te  Te113  1  0.43804531  0.57624270  0.94137676  1
  Te  Te114  1  0.40865291  0.90978048  0.25838112  1
  Te  Te115  1  0.40710113  0.93473496  0.60436356  1
  Te  Te116  1  0.41921959  0.90566429  0.92918148  1
  Te  Te117  1  0.75288447  0.23462605  0.24527445  1
  Te  Te118  1  0.73185676  0.25501499  0.55664527  1
  Te  Te119  1  0.75362895  0.25247094  0.91979986  1
  Te  Te120  1  0.78229123  0.54605626  0.23356064  1
  Te  Te121  1  0.76037825  0.57576520  0.58142973  1
  Te  Te122  1  0.73968630  0.59432576  0.91148827  1
  Te  Te123  1  0.74989724  0.90530681  0.24930455  1
  Te  Te124  1  0.74665292  0.91002231  0.56616427  1
  Te  Te125  1  0.76021642  0.93957845  0.91566747  1
  Te  Te126  1  0.25557983  0.23582040  0.06937697  1
  Te  Te127  1  0.24665690  0.23992009  0.38066956  1
  Te  Te128  1  0.26497452  0.25200426  0.74412251  1
  Te  Te129  1  0.25633837  0.57092289  0.09341129  1
  Te  Te130  1  0.24646228  0.57868009  0.41963658  1
  Te  Te131  1  0.24777287  0.57737900  0.75931572  1
  Te  Te132  1  0.25779192  0.94615795  0.06890602  1
  Te  Te133  1  0.24886837  0.93277743  0.43033848  1
  Te  Te134  1  0.22510715  0.90535462  0.72008592  1
  Te  Te135  1  0.55065801  0.24612309  0.12959985  1
  Te  Te136  1  0.57705098  0.23698509  0.39373730  1
  Te  Te137  1  0.56906063  0.22485897  0.72997171  1
  Te  Te138  1  0.59416807  0.56568157  0.09444712  1
  Te  Te139  1  0.58448987  0.59688163  0.40962595  1
  Te  Te140  1  0.57968126  0.56129642  0.75543095  1
  Te  Te141  1  0.58827211  0.89575932  0.10472489  1
  Te  Te142  1  0.58699819  0.92101441  0.42028990  1
  Te  Te143  1  0.58552913  0.91393387  0.75248273  1
  Te  Te144  1  0.92500518  0.26373722  0.08510507  1
  Te  Te145  1  0.92025327  0.24805090  0.38674718  1
  Te  Te146  1  0.92621089  0.24897937  0.73944627  1
  Te  Te147  1  0.90448104  0.57792393  0.10957425  1
  Te  Te148  1  0.91823015  0.58423078  0.40834115  1
  Te  Te149  1  0.92649018  0.57857313  0.72663166  1
  Te  Te150  1  0.92346110  0.91446914  0.08432538  1
  Te  Te151  1  0.90755564  0.89844201  0.39282798  1
  Te  Te152  1  0.91764120  0.92437528  0.76801725  1
  Te  Te153  1  0.25573586  0.11457235  0.23368431  1
  Te  Te154  1  0.25658517  0.07405593  0.56831655  1
  Te  Te155  1  0.24383543  0.03567566  0.92597851  1
  Te  Te156  1  0.27118511  0.39716249  0.22855448  1
  Te  Te157  1  0.27025819  0.40176054  0.57862321  1
  Te  Te158  1  0.25854120  0.41811649  0.92381106  1
  Te  Te159  1  0.25050561  0.73581904  0.26260738  1
  Te  Te160  1  0.24418246  0.78951812  0.61575827  1
  Te  Te161  1  0.24046303  0.77254852  0.92732589  1
  Te  Te162  1  0.56270661  0.09916813  0.25255257  1
  Te  Te163  1  0.57822557  0.10581068  0.57557736  1
  Te  Te164  1  0.58361767  0.08581338  0.92282716  1
  Te  Te165  1  0.57050807  0.40757639  0.22127590  1
  Te  Te166  1  0.57742471  0.42060082  0.58847816  1
  Te  Te167  1  0.56816611  0.40455997  0.93974670  1
  Te  Te168  1  0.59040839  0.74210971  0.25371285  1
  Te  Te169  1  0.59075143  0.76110389  0.57244504  1
  Te  Te170  1  0.57564877  0.76851633  0.94677986  1
  Te  Te171  1  0.90098849  0.08501337  0.26451082  1
  Te  Te172  1  0.91784264  0.08272315  0.57583741  1
  Te  Te173  1  0.90745943  0.08645803  0.90684058  1
  Te  Te174  1  0.90137077  0.45131765  0.25057774  1
  Te  Te175  1  0.92030366  0.41095628  0.58967776  1
  Te  Te176  1  0.94420326  0.40961862  0.93124105  1
  Te  Te177  1  0.87772809  0.77224017  0.22981847  1
  Te  Te178  1  0.92759011  0.74611789  0.58029500  1
  Te  Te179  1  0.91753589  0.75486187  0.92183880  1
