# generated using pymatgen
data_In2Te3
_symmetry_space_group_name_H-M   'P 1'
_cell_length_a   18.76375763
_cell_length_b   18.75953028
_cell_length_c   18.75574973
_cell_angle_alpha   89.93839623
_cell_angle_beta   89.97545395
_cell_angle_gamma   90.02386695
_symmetry_Int_Tables_number   1
_chemical_formula_structural   In2Te3
_chemical_formula_sum   'In72 Te108'
_cell_volume   6602.00539536
_cell_formula_units_Z   36
loop_
 _symmetry_equiv_pos_site_id
 _symmetry_equiv_pos_as_xyz
  1  'x, y, z'
loop_
 _atom_site_type_symbol
 _atom_site_label
 _atom_site_symmetry_multiplicity
 _atom_site_fract_x
 _atom_site_fract_y
 _atom_site_fract_z
 _atom_site_occupancy
  In  In0  1  0.87321615  0.80416606  0.66336402  1
  In  In1  1  0.15961611  0.15644757  0.34725846  1
  In  In2  1  -0.01073272  0.52016632  0.48628609  1
  In  In3  1  0.33100481  0.67936016  0.33903179  1
  In  In4  1  0.67667239  0.68356634  0.64028982  1
  In  In5  1  0.49008958  0.84788517  0.35784595  1
  In  In6  1  0.33500708  0.82348336  0.50974136  1
  In  In7  1  0.82064849  0.36078659  0.46622914  1
  In  In8  1  0.67623365  -0.02914288  0.68671827  1
  In  In9  1  0.84774019  -0.01602302  0.13625850  1
  In  In10  1  0.18071185  0.34963474  0.85278752  1
  In  In11  1  0.15085596  0.65823624  0.81468477  1
  In  In12  1  0.50419407  0.15678652  0.69503083  1
  In  In13  1  0.67340492  0.19521035  0.15378856  1
  In  In14  1  0.16588817  -0.00608078  0.20014689  1
  In  In15  1  0.68496463  -0.02823166  -0.04555174  1
  In  In16  1  0.14232065  0.83288343  0.01267404  1
  In  In17  1  0.17759367  0.18259706  0.02348745  1
  In  In18  1  0.15791351  -0.01735991  0.84256779  1
  In  In19  1  0.50783147  0.81411787  0.00172257  1
  In  In20  1  0.14689711  0.49516711  -0.01675178  1
  In  In21  1  0.00650493  0.15722042  0.81785387  1
  In  In22  1  0.51291506  0.65922225  0.14553662  1
  In  In23  1  0.36801656  0.16508794  0.82891370  1
  In  In24  1  0.50894415  0.49498220  0.66314980  1
  In  In25  1  0.31528166  0.16322638  0.49815620  1
  In  In26  1  0.14182151  0.82193927  0.34078835  1
  In  In27  1  0.63472223  -0.01810546  0.35394374  1
  In  In28  1  0.52221965  0.49845411  0.33705212  1
  In  In29  1  0.01632042  -0.01234267  0.34749364  1
  In  In30  1  0.00484222  0.31736468  0.65723143  1
  In  In31  1  0.49935645  -0.02443895  0.49655162  1
  In  In32  1  0.68025294  0.81152968  0.16955461  1
  In  In33  1  -0.01308129  -0.03506520  -0.02028444  1
  In  In34  1  0.34060194  0.33387592  0.66391045  1
  In  In35  1  0.66816780  0.16795696  0.50093566  1
  In  In36  1  0.16457381  0.14910607  0.65807876  1
  In  In37  1  0.83248152  0.52596777  0.67318417  1
  In  In38  1  0.84408085  0.65011025  0.15120480  1
  In  In39  1  0.83592361  0.19115353  0.32366114  1
  In  In40  1  0.12716224  0.83876109  0.64090102  1
  In  In41  1  0.33576809  0.82080136  0.82079526  1
  In  In42  1  0.65042986  0.17648096  0.83179195  1
  In  In43  1  0.14304166  0.66360874  0.18839603  1
  In  In44  1  0.18651696  0.51217154  0.66172252  1
  In  In45  1  0.31492202  0.00658567  0.34079846  1
  In  In46  1  0.66808530  0.34307478  0.02054551  1
  In  In47  1  0.51304356  0.35598413  0.50324059  1
  In  In48  1  0.50551252  0.33244352  0.83385092  1
  In  In49  1  0.82430772  0.81576381  0.33055412  1
  In  In50  1  0.83543134  0.17468060  0.66223268  1
  In  In51  1  0.01694980  0.15423315  0.16479867  1
  In  In52  1  0.66995205  0.65125511  0.34972146  1
  In  In53  1  0.34412776  0.48743313  0.14843987  1
  In  In54  1  0.33981761  0.66097326  0.00136763  1
  In  In55  1  0.84774063  0.37183538  0.16503062  1
  In  In56  1  0.83805039  0.00622708  0.51971157  1
  In  In57  1  0.13868427  0.50487820  0.32026270  1
  In  In58  1  0.34741583  0.49759533  0.50650431  1
  In  In59  1  0.14769798  0.66861544  0.51185020  1
  In  In60  1  0.33027174  0.01078287  0.00721769  1
  In  In61  1  0.51712869  0.00317413  0.82796034  1
  In  In62  1  0.49299892  0.66696863  0.84667225  1
  In  In63  1  0.00130831  0.37242615  -0.00879678  1
  In  In64  1  0.17186799  0.34645710  0.14290675  1
  In  In65  1  -0.02474421  0.50647160  0.82146922  1
  In  In66  1  -0.02373112  0.34415869  0.33628844  1
  In  In67  1  0.48035916  0.19806947  0.30819758  1
  In  In68  1  0.66532315  0.64251935  -0.01541854  1
  In  In69  1  0.83510049  0.17046089  -0.00693727  1
  In  In70  1  0.49862827  0.00722068  0.17206852  1
  In  In71  1  0.69328311  0.50509330  0.83268324  1
  Te  Te72  1  0.08578009  0.05997927  0.06690859  1
  Te  Te73  1  0.09613568  0.06371042  0.45039470  1
  Te  Te74  1  0.07239811  0.04965478  0.73342182  1
  Te  Te75  1  0.06129989  0.44690059  0.10794077  1
  Te  Te76  1  0.08102363  0.41250500  0.42676104  1
  Te  Te77  1  0.08574424  0.41738869  0.75404852  1
  Te  Te78  1  0.05929574  0.72351546  0.07647816  1
  Te  Te79  1  0.04724192  0.74881330  0.43324950  1
  Te  Te80  1  0.05897329  0.74835499  0.73998358  1
  Te  Te81  1  0.42426537  0.09647061  0.08112473  1
  Te  Te82  1  0.43291675  0.08183384  0.40641922  1
  Te  Te83  1  0.40157080  0.05068861  0.73612573  1
  Te  Te84  1  0.46371210  0.40649806  0.11506173  1
  Te  Te85  1  0.41192160  0.40888903  0.40156318  1
  Te  Te86  1  0.40835648  0.42750044  0.76090080  1
  Te  Te87  1  0.40486255  0.75919945  0.09974366  1
  Te  Te88  1  0.43396466  0.72810687  0.43936867  1
  Te  Te89  1  0.42503622  0.73979331  0.73640933  1
  Te  Te90  1  0.74073508  0.07876384  0.07362356  1
  Te  Te91  1  0.75312626  0.08056981  0.40772587  1
  Te  Te92  1  0.74836774  0.08752629  0.75534162  1
  Te  Te93  1  0.75448673  0.44992691  0.08006100  1
  Te  Te94  1  0.72713784  0.43400625  0.37650163  1
  Te  Te95  1  0.76230783  0.41329323  0.73949601  1
  Te  Te96  1  0.75404006  0.74703872  0.05738704  1
  Te  Te97  1  0.76566118  0.72975608  0.43979733  1
  Te  Te98  1  0.76898584  0.73257191  0.74800194  1
  Te  Te99  1  0.08362192  0.26128197  0.25094255  1
  Te  Te100  1  0.09841302  0.24675299  0.56852512  1
  Te  Te101  1  0.07275416  0.24820355  0.92656036  1
  Te  Te102  1  0.03814173  0.60642081  0.27852424  1
  Te  Te103  1  0.06365239  0.58232390  0.60712882  1
  Te  Te104  1  0.05378116  0.60176238  0.92090964  1
  Te  Te105  1  0.05551511  0.89566209  0.23190105  1
  Te  Te106  1  0.07841646  0.93148939  0.53596758  1
  Te  Te107  1  0.06263890  0.86970770  0.88502694  1
  Te  Te108  1  0.41826545  0.29663488  0.21761446  1
  Te  Te109  1  0.43035880  0.24012904  0.58159477  1
  Te  Te110  1  0.41323785  0.26286325  0.92754856  1
  Te  Te111  1  0.41534650  0.58746918  0.24989178  1
  Te  Te112  1  0.41003157  0.58860673  0.60247166  1
  Te  Te113  1  0.43779180  0.56861890  0.94251581  1
  Te  Te114  1  0.40370190  0.91674338  0.25145355  1
  Te  Te115  1  0.42575668  0.89983214  0.59980208  1
  Te  Te116  1  0.41578163  0.91450787  0.92157985  1
  Te  Te117  1  0.74235521  0.28931265  0.25268908  1
  Te  Te118  1  0.75375670  0.26928336  0.57369096  1
  Te  Te119  1  0.74715899  0.26386068  0.91257887  1
  Te  Te120  1  0.75091305  0.58016985  0.24664707  1
  Te  Te121  1  0.74946536  0.57816062  0.55941734  1
  Te  Te122  1  0.78726217  0.58163996  0.92163133  1
  Te  Te123  1  0.74441132  0.92802771  0.24786428  1
  Te  Te124  1  0.76452289  0.89412626  0.59098896  1
  Te  Te125  1  0.78741474  0.89749015  0.86307883  1
  Te  Te126  1  0.28305206  0.26131635  0.09161439  1
  Te  Te127  1  0.25703519  0.25460938  0.39962796  1
  Te  Te128  1  0.24770040  0.24849453  0.75450014  1
  Te  Te129  1  0.23578292  0.58452485  0.08937206  1
  Te  Te130  1  0.23965906  0.58362568  0.41863112  1
  Te  Te131  1  0.26331576  0.57440387  0.77070221  1
  Te  Te132  1  0.24486757  0.91619700  0.09170042  1
  Te  Te133  1  0.23685438  0.90709553  0.42657626  1
  Te  Te134  1  0.23567815  0.90194189  0.73957983  1
  Te  Te135  1  0.55765444  0.26316097  0.08641842  1
  Te  Te136  1  0.58209487  0.25433118  0.41010429  1
  Te  Te137  1  0.59692101  0.27389979  0.72606402  1
  Te  Te138  1  0.60641145  0.55799647  0.09396693  1
  Te  Te139  1  0.57387320  0.58727608  0.44407095  1
  Te  Te140  1  0.59533041  0.59213806  0.74878557  1
  Te  Te141  1  0.59092754  0.91282920  0.08451497  1
  Te  Te142  1  0.61396036  0.86666140  0.45697935  1
  Te  Te143  1  0.57682260  0.88762021  0.75806877  1
  Te  Te144  1  0.91898337  0.24976064  0.09351915  1
  Te  Te145  1  0.92275475  0.24102126  0.43630905  1
  Te  Te146  1  0.91036424  0.26350379  0.76499242  1
  Te  Te147  1  0.95246725  0.60217795  0.06089628  1
  Te  Te148  1  0.87908851  0.61669438  0.45012739  1
  Te  Te149  1  0.90357174  0.62535841  0.76114770  1
  Te  Te150  1  0.91291816  0.86625642  0.06927411  1
  Te  Te151  1  0.90829837  0.91031239  0.42089508  1
  Te  Te152  1  0.89892430  0.91311934  0.75996039  1
  Te  Te153  1  0.25999133  0.10630746  0.23826098  1
  Te  Te154  1  0.26342660  0.06150863  0.58954034  1
  Te  Te155  1  0.24091602  0.09524966  0.90590014  1
  Te  Te156  1  0.24855640  0.42400948  0.25198069  1
  Te  Te157  1  0.24239245  0.40340739  0.57012712  1
  Te  Te158  1  0.26992234  0.42021977  0.94591490  1
  Te  Te159  1  0.24563260  0.76355282  0.24455241  1
  Te  Te160  1  0.24511563  0.74070835  0.60227223  1
  Te  Te161  1  0.24159981  0.74902402  0.92119138  1
  Te  Te162  1  0.59608056  0.09908172  0.25343559  1
  Te  Te163  1  0.58992480  0.07147644  0.59074708  1
  Te  Te164  1  0.57953289  0.08989808  0.93490231  1
  Te  Te165  1  0.61873105  0.41148453  0.26676901  1
  Te  Te166  1  0.61379644  0.43392186  0.57689455  1
  Te  Te167  1  0.58905106  0.42736420  0.91764691  1
  Te  Te168  1  0.57365219  0.75225161  0.26225862  1
  Te  Te169  1  0.57551869  0.76620598  0.57144613  1
  Te  Te170  1  0.60537468  0.75878959  0.90102519  1
  Te  Te171  1  0.91758493  0.07553740  0.25042360  1
  Te  Te172  1  0.93451654  0.08742902  0.59584532  1
  Te  Te173  1  0.90900932  0.07270734  0.90254015  1
  Te  Te174  1  0.90619183  0.45794299  0.27187912  1
  Te  Te175  1  0.91565244  0.41889380  0.58093283  1
  Te  Te176  1  0.88755601  0.43267414  0.91864168  1
  Te  Te177  1  0.91939232  0.74126651  0.24489567  1
  Te  Te178  1  0.93448488  0.72860412  0.54870510  1
  Te  Te179  1  0.88879913  0.80504539  0.92579897  1
