# generated using pymatgen
data_In2Te3
_symmetry_space_group_name_H-M   'P 1'
_cell_length_a   18.92453410
_cell_length_b   18.91188014
_cell_length_c   18.92970977
_cell_angle_alpha   89.82503861
_cell_angle_beta   90.07250283
_cell_angle_gamma   90.10866950
_symmetry_Int_Tables_number   1
_chemical_formula_structural   In2Te3
_chemical_formula_sum   'In72 Te108'
_cell_volume   6774.86597352
_cell_formula_units_Z   36
loop_
 _symmetry_equiv_pos_site_id
 _symmetry_equiv_pos_as_xyz
  1  'x, y, z'
loop_
 _atom_site_type_symbol
 _atom_site_label
 _atom_site_symmetry_multiplicity
 _atom_site_fract_x
 _atom_site_fract_y
 _atom_site_fract_z
 _atom_site_occupancy
  In  In0  1  0.83652468  0.83610048  0.65246630  1
  In  In1  1  0.67851100  0.83625280  0.84997517  1
  In  In2  1  0.31566407  0.33302346  0.31786957  1
  In  In3  1  0.69703046  0.50375991  0.47635482  1
  In  In4  1  0.67067162  0.17089798  0.83792047  1
  In  In5  1  0.33433014  0.31843579  0.68161120  1
  In  In6  1  0.71368305  0.82470546  0.18926309  1
  In  In7  1  0.32800843  0.50967929  0.49724682  1
  In  In8  1  0.47941874  0.71765758  0.45671136  1
  In  In9  1  0.01812827  0.16440958  0.15228264  1
  In  In10  1  0.33041242  -0.01573723  0.01021901  1
  In  In11  1  0.82171196  0.66646638  0.49709839  1
  In  In12  1  0.68690009  0.49364864  0.19702526  1
  In  In13  1  0.15512986  -0.00438254  0.83774831  1
  In  In14  1  0.31831301  0.33160379  -0.01012576  1
  In  In15  1  0.52797481  0.50601847  0.30449561  1
  In  In16  1  -0.01859784  0.30869676  0.35575180  1
  In  In17  1  0.16236274  0.03889538  0.51393777  1
  In  In18  1  0.81850214  0.01853153  0.83868046  1
  In  In19  1  0.64390664  0.65705340  0.64903978  1
  In  In20  1  0.12667382  0.47151135  0.67522576  1
  In  In21  1  0.66911961  0.00220818  0.00313982  1
  In  In22  1  -0.04765817  0.81911847  0.19456865  1
  In  In23  1  0.87114022  0.46945413  0.67776961  1
  In  In24  1  0.32635332  0.16475489  0.15943968  1
  In  In25  1  0.49141083  0.68966175  0.86836974  1
  In  In26  1  0.51165862  0.48161814  0.65886565  1
  In  In27  1  0.49539056  0.50154302  0.01584010  1
  In  In28  1  0.82593127  0.00582885  0.48314464  1
  In  In29  1  0.33696111  0.01722829  0.64088388  1
  In  In30  1  0.33858645  0.51742080  0.15814307  1
  In  In31  1  -0.01378705  0.82635506  0.49598030  1
  In  In32  1  0.82535822  0.00357693  0.16732801  1
  In  In33  1  0.17045572  0.15335453  0.32827434  1
  In  In34  1  0.83874610  0.32465568  0.18431062  1
  In  In35  1  0.52424364  0.16084302  0.04743895  1
  In  In36  1  0.18029220  0.51335819  0.32936813  1
  In  In37  1  0.50103097  0.34738009  0.49292360  1
  In  In38  1  0.32818887  0.00121251  0.32557135  1
  In  In39  1  0.02424366  0.83366809  0.84788599  1
  In  In40  1  0.67488439  0.67737013  0.34046032  1
  In  In41  1  0.17917239  0.82244496  0.65133456  1
  In  In42  1  0.00521976  0.50334724  0.15893321  1
  In  In43  1  0.73115982  0.30568209  0.63714036  1
  In  In44  1  -0.00135863  0.01116513  0.68176026  1
  In  In45  1  0.18207713  0.68835377  0.17392841  1
  In  In46  1  0.66182852  0.49323790  0.85129647  1
  In  In47  1  0.50756695  0.85756609  0.66961272  1
  In  In48  1  0.00016868  0.50297007  0.50797562  1
  In  In49  1  0.50613858  0.15781633  0.65790415  1
  In  In50  1  0.50528221  0.31751861  0.84652847  1
  In  In51  1  0.16372829  0.47931669  -0.01106654  1
  In  In52  1  0.85832616  0.15506152  -0.00384979  1
  In  In53  1  0.33744907  0.83005928  0.84542943  1
  In  In54  1  0.00772790  0.66790518  0.00010490  1
  In  In55  1  0.31037830  0.66018733  0.65432674  1
  In  In56  1  0.51926893  0.13235253  0.31658908  1
  In  In57  1  0.14973984  0.31457042  0.51232058  1
  In  In58  1  0.35791864  0.68927626  -0.00783736  1
  In  In59  1  0.18142567  0.66275440  0.83114845  1
  In  In60  1  0.32458281  0.17333408  0.81430426  1
  In  In61  1  0.50811508  -0.03255804  0.45152240  1
  In  In62  1  0.85003174  0.49319371  -0.00539362  1
  In  In63  1  0.85734728  0.30812264  0.82874376  1
  In  In64  1  0.50413279  0.84038391  0.02982038  1
  In  In65  1  0.49063108  0.67011766  0.16017825  1
  In  In66  1  -0.00044675  0.00725416  0.34356421  1
  In  In67  1  0.14113374  0.83968268  0.33240746  1
  In  In68  1  0.67256358  0.02384346  0.66986596  1
  In  In69  1  0.13897415  0.19230314  -0.02804720  1
  In  In70  1  0.84072466  0.64757028  0.81789406  1
  In  In71  1  0.67626498  0.33358028  0.34787162  1
  Te  Te72  1  0.08612476  0.08003243  0.05313629  1
  Te  Te73  1  0.06172300  0.11498948  0.43047900  1
  Te  Te74  1  0.06905017  0.10102720  0.77696042  1
  Te  Te75  1  0.07670001  0.40378077  0.07949706  1
  Te  Te76  1  0.09440709  0.41086456  0.40621172  1
  Te  Te77  1  0.05533421  0.37152651  0.76166365  1
  Te  Te78  1  0.06578570  0.75892527  0.10568967  1
  Te  Te79  1  0.06279319  0.74014354  0.40701708  1
  Te  Te80  1  0.08744072  0.74373527  0.74260083  1
  Te  Te81  1  0.42414143  0.06211628  0.10501126  1
  Te  Te82  1  0.41171365  0.08695429  0.41799761  1
  Te  Te83  1  0.42311793  0.07317191  0.75302947  1
  Te  Te84  1  0.40978101  0.40114778  0.09136595  1
  Te  Te85  1  0.41457831  0.42780208  0.39660829  1
  Te  Te86  1  0.42266297  0.41340031  0.76109859  1
  Te  Te87  1  0.38779284  0.78377734  0.11481732  1
  Te  Te88  1  0.39659915  0.79853245  0.36524325  1
  Te  Te89  1  0.41909308  0.74775525  0.74210263  1
  Te  Te90  1  0.74534926  0.10554942  0.08375476  1
  Te  Te91  1  0.75551334  0.11448908  0.40419035  1
  Te  Te92  1  0.77081555  0.11914468  0.73505471  1
  Te  Te93  1  0.75927969  0.41474557  0.08834944  1
  Te  Te94  1  0.78602583  0.40820143  0.41279970  1
  Te  Te95  1  0.75256266  0.40802295  0.76519530  1
  Te  Te96  1  0.71446833  0.74340613  0.06871152  1
  Te  Te97  1  0.73119515  0.77149061  0.44111979  1
  Te  Te98  1  0.73601720  0.74702209  0.74047949  1
  Te  Te99  1  0.08416448  0.25560838  0.25655261  1
  Te  Te100  1  0.03430286  0.25806858  0.58418869  1
  Te  Te101  1  0.06595063  0.30390340  0.90429605  1
  Te  Te102  1  0.08319788  0.59857107  0.24891415  1
  Te  Te103  1  0.09942898  0.58066230  0.58250504  1
  Te  Te104  1  0.07962442  0.57582440  0.90459285  1
  Te  Te105  1  0.06212466  0.92356422  0.23382207  1
  Te  Te106  1  0.07925088  0.91826210  0.58274062  1
  Te  Te107  1  0.07829269  0.92957787  0.94523572  1
  Te  Te108  1  0.41492908  0.23583987  0.25893521  1
  Te  Te109  1  0.41715677  0.24952963  0.57489834  1
  Te  Te110  1  0.41764135  0.22871897  0.93263845  1
  Te  Te111  1  0.40964554  0.59585110  0.26614158  1
  Te  Te112  1  0.42896876  0.58497460  0.58507636  1
  Te  Te113  1  0.40769314  0.56899610  0.91081347  1
  Te  Te114  1  0.45908175  0.92533367  0.30441630  1
  Te  Te115  1  0.40980172  0.90989024  0.56622007  1
  Te  Te116  1  0.43701000  0.91668563  0.91689827  1
  Te  Te117  1  0.74896500  0.23496625  0.26208240  1
  Te  Te118  1  0.75653556  0.20898843  0.52961917  1
  Te  Te119  1  0.75705343  0.25311204  0.92949517  1
  Te  Te120  1  0.77292045  0.59222705  0.26613407  1
  Te  Te121  1  0.75711158  0.56578959  0.60760673  1
  Te  Te122  1  0.75064769  0.58955909  0.92607524  1
  Te  Te123  1  0.72206549  0.95573672  0.28115087  1
  Te  Te124  1  0.73748638  0.92122711  0.57880850  1
  Te  Te125  1  0.77425288  0.91245204  0.93980751  1
  Te  Te126  1  0.22843577  0.25150032  0.08265991  1
  Te  Te127  1  0.25251784  0.24264786  0.42087868  1
  Te  Te128  1  0.22065205  0.25694092  0.75253679  1
  Te  Te129  1  0.24746106  0.59639730  0.06486494  1
  Te  Te130  1  0.25047443  0.60620730  0.41910203  1
  Te  Te131  1  0.24407199  0.55820166  0.74296328  1
  Te  Te132  1  0.26382467  0.87058934  0.07317847  1
  Te  Te133  1  0.22375991  0.93989012  0.41866240  1
  Te  Te134  1  0.25602589  0.91814119  0.74481622  1
  Te  Te135  1  0.58190030  0.27096433  0.11868822  1
  Te  Te136  1  0.57388196  0.24185596  0.41446352  1
  Te  Te137  1  0.59154742  0.25810676  0.73572207  1
  Te  Te138  1  0.59437069  0.57611744  0.10186915  1
  Te  Te139  1  0.57774494  0.58338452  0.42688099  1
  Te  Te140  1  0.57298403  0.58422149  0.76391708  1
  Te  Te141  1  0.59493084  0.92788037  0.11205837  1
  Te  Te142  1  0.62933348  0.90148934  0.39431169  1
  Te  Te143  1  0.59545193  0.93407709  0.76836199  1
  Te  Te144  1  0.92868327  0.26188264  0.07708347  1
  Te  Te145  1  0.86508644  0.22766472  0.40464003  1
  Te  Te146  1  0.93975760  0.27403918  0.70675920  1
  Te  Te147  1  0.90714766  0.59709432  0.08979621  1
  Te  Te148  1  0.91294083  0.58301602  0.41898656  1
  Te  Te149  1  0.94485565  0.57638925  0.74461403  1
  Te  Te150  1  0.89909408  0.90585617  0.08616544  1
  Te  Te151  1  0.90122718  0.90432829  0.39757129  1
  Te  Te152  1  0.90964278  0.90728280  0.76449202  1
  Te  Te153  1  0.23279840  0.06256789  0.22330220  1
  Te  Te154  1  0.23755580  0.12063996  0.60970208  1
  Te  Te155  1  0.25628049  0.08582202  0.92401267  1
  Te  Te156  1  0.23832038  0.42151224  0.22260686  1
  Te  Te157  1  0.25102700  0.41159824  0.58504673  1
  Te  Te158  1  0.24876645  0.41235772  0.89007531  1
  Te  Te159  1  0.25844413  0.76397974  0.27696700  1
  Te  Te160  1  0.26488967  0.75584443  0.55306535  1
  Te  Te161  1  0.23216779  0.76545562  0.93251833  1
  Te  Te162  1  0.60362313  0.04439527  0.23296253  1
  Te  Te163  1  0.57579166  0.06643902  0.56208746  1
  Te  Te164  1  0.57511132  0.08818510  0.91991201  1
  Te  Te165  1  0.57696075  0.38245503  0.22861853  1
  Te  Te166  1  0.61465023  0.40711721  0.57614002  1
  Te  Te167  1  0.58638174  0.40040748  0.94417286  1
  Te  Te168  1  0.58494025  0.75135944  0.24534962  1
  Te  Te169  1  0.57507393  0.76484586  0.56940635  1
  Te  Te170  1  0.60490871  0.74305581  0.95877783  1
  Te  Te171  1  0.92069234  0.09313579  0.24505568  1
  Te  Te172  1  0.91050022  0.07413777  0.58323392  1
  Te  Te173  1  0.93667260  0.09585959  0.88574744  1
  Te  Te174  1  0.92845800  0.41864168  0.26299619  1
  Te  Te175  1  0.92102422  0.38713872  0.56373305  1
  Te  Te176  1  0.93610241  0.41203159  0.90400434  1
  Te  Te177  1  0.83314439  0.74770740  0.24968547  1
  Te  Te178  1  0.92343485  0.72894516  0.59554831  1
  Te  Te179  1  0.91402016  0.74626971  0.90922827  1
