# generated using pymatgen
data_In2Te3
_symmetry_space_group_name_H-M   'P 1'
_cell_length_a   18.75703856
_cell_length_b   18.76592532
_cell_length_c   18.76531062
_cell_angle_alpha   90.00898056
_cell_angle_beta   90.02077698
_cell_angle_gamma   90.02552956
_symmetry_Int_Tables_number   1
_chemical_formula_structural   In2Te3
_chemical_formula_sum   'In72 Te108'
_cell_volume   6605.26027890
_cell_formula_units_Z   36
loop_
 _symmetry_equiv_pos_site_id
 _symmetry_equiv_pos_as_xyz
  1  'x, y, z'
loop_
 _atom_site_type_symbol
 _atom_site_label
 _atom_site_symmetry_multiplicity
 _atom_site_fract_x
 _atom_site_fract_y
 _atom_site_fract_z
 _atom_site_occupancy
  In  In0  1  0.83362003  0.66556759  0.51587639  1
  In  In1  1  0.19863240  0.82469879  -0.01138212  1
  In  In2  1  0.17563051  0.65616164  0.81587855  1
  In  In3  1  0.83019513  0.83109876  0.32456311  1
  In  In4  1  0.31730906  0.00002003  0.01693485  1
  In  In5  1  0.50248277  0.66294682  0.52039753  1
  In  In6  1  0.67454853  0.83593492  0.16748451  1
  In  In7  1  0.67388008  0.16727807  0.80560546  1
  In  In8  1  0.49876189  -0.01216247  0.83650692  1
  In  In9  1  0.01165676  0.66604126  0.00254957  1
  In  In10  1  0.00332949  0.50978569  0.51814237  1
  In  In11  1  0.65834850  0.31205549  0.33922857  1
  In  In12  1  0.48448002  0.63409730  0.84757444  1
  In  In13  1  0.48708325  0.48220183  0.68594721  1
  In  In14  1  0.31386091  0.19871145  0.81739271  1
  In  In15  1  0.32133213  0.63059884  0.36288456  1
  In  In16  1  0.01851051  0.80874322  0.49113781  1
  In  In17  1  -0.02472826  0.85627045  0.79667674  1
  In  In18  1  0.01442158  0.19402405  0.50874711  1
  In  In19  1  0.50151053  0.83371123  0.64773216  1
  In  In20  1  0.00062098  0.84844795  0.19219431  1
  In  In21  1  0.16722177  0.48943940  0.00255249  1
  In  In22  1  0.49199211  0.19263118  0.64329822  1
  In  In23  1  0.16115334  -0.01756908  0.17736683  1
  In  In24  1  0.83211591  0.34681399  0.84651596  1
  In  In25  1  0.19298098  0.48524345  0.34035587  1
  In  In26  1  0.84750454  0.50003973  0.35295927  1
  In  In27  1  0.66153799  0.50656527  0.51647463  1
  In  In28  1  0.32501085  0.48911220  0.17301113  1
  In  In29  1  0.17193225  0.66703763  0.19250348  1
  In  In30  1  0.64544545  0.17428796  0.49939047  1
  In  In31  1  0.01407420  0.33862285  0.32880240  1
  In  In32  1  0.83217738  -0.00374566  0.18070667  1
  In  In33  1  0.32294342  0.18566900  0.17903805  1
  In  In34  1  0.65850826  0.34018471  0.66962798  1
  In  In35  1  0.50751584  0.83976889  0.34622708  1
  In  In36  1  0.32609509  0.82587345  0.83147101  1
  In  In37  1  0.66442120  -0.01666586  0.00969886  1
  In  In38  1  0.17139090  0.82276237  0.65616224  1
  In  In39  1  0.85822037  0.64073033  0.79512603  1
  In  In40  1  0.83826203  0.49993255  -0.00519648  1
  In  In41  1  0.46478777  0.47260167  0.34707873  1
  In  In42  1  0.13745670  0.01000834  0.81752660  1
  In  In43  1  0.47781607  0.67967258  0.12859348  1
  In  In44  1  0.16525497  0.18120606  0.33047540  1
  In  In45  1  0.87463834  0.19744535  0.01617000  1
  In  In46  1  0.16265857  0.35520399  0.82098907  1
  In  In47  1  0.00309613  0.01341330  -0.00958103  1
  In  In48  1  0.34010265  0.18361978  0.50125118  1
  In  In49  1  0.65212611  0.35423694  -0.01289890  1
  In  In50  1  0.84303684  0.16565524  0.34500755  1
  In  In51  1  0.51202140  -0.00403851  0.19046383  1
  In  In52  1  0.65942120  0.50105923  0.81837837  1
  In  In53  1  0.01702908  0.15396362  0.83134985  1
  In  In54  1  0.83375264  0.16436110  0.65414209  1
  In  In55  1  0.49878410  0.00536181  0.50237667  1
  In  In56  1  0.67042670  0.80852332  0.81986084  1
  In  In57  1  0.47635854  0.18589644  -0.01936007  1
  In  In58  1  0.47610337  0.33776579  0.16531623  1
  In  In59  1  0.31052945  0.66120429  0.65047162  1
  In  In60  1  0.18538276  -0.02636504  0.49311819  1
  In  In61  1  0.67878399  0.50014524  0.15465001  1
  In  In62  1  -0.00184602  0.34811758  0.65563857  1
  In  In63  1  0.35080111  0.01654984  0.64736665  1
  In  In64  1  0.67887527  0.67290705  0.34881904  1
  In  In65  1  0.18067880  0.19010890  0.00718673  1
  In  In66  1  0.65921441  0.15084204  0.18235276  1
  In  In67  1  0.80786844  -0.01254320  0.51821311  1
  In  In68  1  0.02114823  0.49857815  0.16894857  1
  In  In69  1  0.81711825  0.81852441  -0.00997974  1
  In  In70  1  0.66449996  0.68127796  0.00678951  1
  In  In71  1  -0.00239002  0.00310319  0.31841740  1
  Te  Te72  1  0.09658687  0.08594455  0.08554008  1
  Te  Te73  1  0.08300069  0.08388802  0.41798271  1
  Te  Te74  1  0.07395046  0.08908954  0.71109860  1
  Te  Te75  1  0.07823836  0.39346618  0.07754651  1
  Te  Te76  1  0.09177342  0.41350309  0.43516442  1
  Te  Te77  1  0.08647563  0.45205672  0.72794562  1
  Te  Te78  1  0.09076281  0.76220369  0.09174075  1
  Te  Te79  1  0.11093344  0.75944697  0.38786330  1
  Te  Te80  1  0.07273376  0.74786528  0.74515598  1
  Te  Te81  1  0.42215153  0.08795141  0.08678865  1
  Te  Te82  1  0.40537077  0.08114402  0.41678944  1
  Te  Te83  1  0.42062408  0.09602480  0.76004663  1
  Te  Te84  1  0.41984314  0.43637945  0.06712158  1
  Te  Te85  1  0.35810083  0.39848062  0.42389847  1
  Te  Te86  1  0.42046080  0.39356382  0.78335590  1
  Te  Te87  1  0.37295196  0.76254786  0.07205866  1
  Te  Te88  1  0.41777699  0.73975265  0.42167458  1
  Te  Te89  1  0.41802979  0.74157721  0.74242079  1
  Te  Te90  1  0.75808905  0.08487640  0.07710003  1
  Te  Te91  1  0.73863717  0.08237574  0.41855294  1
  Te  Te92  1  0.75937662  0.06587778  0.73986292  1
  Te  Te93  1  0.76519282  0.39647389  0.08187104  1
  Te  Te94  1  0.74017577  0.41535299  0.42057603  1
  Te  Te95  1  0.76537633  0.42853080  0.73621887  1
  Te  Te96  1  0.76912933  0.73303651  0.10663375  1
  Te  Te97  1  0.74805446  0.77178669  0.43930439  1
  Te  Te98  1  0.77404945  0.74723987  0.72964177  1
  Te  Te99  1  0.08046863  0.24927281  0.22718892  1
  Te  Te100  1  0.11100509  0.27555238  0.58751376  1
  Te  Te101  1  0.08236051  0.26249012  0.91513300  1
  Te  Te102  1  0.08451611  0.57965437  0.28073297  1
  Te  Te103  1  0.07949238  0.58155633  0.62641590  1
  Te  Te104  1  0.08023551  0.57345983  0.90562151  1
  Te  Te105  1  0.11444980  0.88822016  0.30140576  1
  Te  Te106  1  0.07688081  0.91948572  0.58534899  1
  Te  Te107  1  0.08083463  0.89825089  0.91603141  1
  Te  Te108  1  0.42650490  0.24423450  0.26777026  1
  Te  Te109  1  0.38068896  0.28838685  0.60798082  1
  Te  Te110  1  0.39644287  0.28880660  0.90610038  1
  Te  Te111  1  0.42275199  0.58487521  0.24593406  1
  Te  Te112  1  0.40759192  0.56023602  0.57982567  1
  Te  Te113  1  0.41779969  0.53558192  0.93424703  1
  Te  Te114  1  0.41101287  0.91809412  0.26500065  1
  Te  Te115  1  0.39385832  0.89919648  0.56297807  1
  Te  Te116  1  0.40964857  0.90944655  0.93043715  1
  Te  Te117  1  0.76061445  0.24836263  0.24387260  1
  Te  Te118  1  0.74768731  0.26081894  0.57320989  1
  Te  Te119  1  0.74333921  0.24382964  0.91969174  1
  Te  Te120  1  0.75970180  0.58257736  0.25565770  1
  Te  Te121  1  0.75160564  0.58069069  0.60636318  1
  Te  Te122  1  0.74908692  0.59771099  0.90589748  1
  Te  Te123  1  0.72690474  0.93496598  0.27041857  1
  Te  Te124  1  0.78429897  0.88853795  0.62812818  1
  Te  Te125  1  0.74897406  0.91886435  0.89974967  1
  Te  Te126  1  0.27395110  0.28111453  0.07666938  1
  Te  Te127  1  0.25014691  0.27079894  0.41515003  1
  Te  Te128  1  0.21627699  0.25570988  0.72136280  1
  Te  Te129  1  0.24836233  0.58950698  0.08574911  1
  Te  Te130  1  0.23445586  0.56151715  0.46378936  1
  Te  Te131  1  0.26423107  0.55831801  0.74661574  1
  Te  Te132  1  0.26844445  0.89005332  0.11405536  1
  Te  Te133  1  0.24817911  0.89886077  0.38295761  1
  Te  Te134  1  0.25438211  0.92852828  0.74388214  1
  Te  Te135  1  0.58270510  0.24867524  0.08278420  1
  Te  Te136  1  0.54902583  0.25870107  0.42409193  1
  Te  Te137  1  0.56460903  0.26206362  0.76188431  1
  Te  Te138  1  0.57631226  0.57423684  0.06922557  1
  Te  Te139  1  0.57508051  0.57450168  0.40525793  1
  Te  Te140  1  0.58069514  0.59927661  0.73370019  1
  Te  Te141  1  0.56368690  0.89618194  0.08207687  1
  Te  Te142  1  0.59490729  0.90884110  0.44353923  1
  Te  Te143  1  0.59136384  0.91649382  0.74099791  1
  Te  Te144  1  0.97089887  0.27173319  0.09626272  1
  Te  Te145  1  0.91318523  0.27323479  0.42659604  1
  Te  Te146  1  0.91472565  0.25266220  0.75429236  1
  Te  Te147  1  0.91871829  0.58626136  0.09299093  1
  Te  Te148  1  0.93471700  0.60669572  0.41714477  1
  Te  Te149  1  0.95343499  0.55562795  0.71661384  1
  Te  Te150  1  0.91196802  0.91348564  0.07476708  1
  Te  Te151  1  0.91577927  0.92128301  0.41796938  1
  Te  Te152  1  0.88989632  0.95025923  0.72331850  1
  Te  Te153  1  0.25181263  0.07636911  0.25892456  1
  Te  Te154  1  0.23920573  0.08974217  0.57703264  1
  Te  Te155  1  0.24715042  0.08292221  0.90700821  1
  Te  Te156  1  0.24414674  0.38638511  0.24137615  1
  Te  Te157  1  0.29677875  0.41347363  0.56242080  1
  Te  Te158  1  0.26076079  0.44053054  0.89636662  1
  Te  Te159  1  0.26882743  0.74200651  0.27664364  1
  Te  Te160  1  0.23747387  0.74272555  0.55062384  1
  Te  Te161  1  0.27691242  0.71169909  0.92151867  1
  Te  Te162  1  0.57009489  0.09439322  0.28474608  1
  Te  Te163  1  0.58736604  0.07994610  0.60469925  1
  Te  Te164  1  0.58609730  0.08518062  0.92088890  1
  Te  Te165  1  0.58556287  0.42083626  0.24734440  1
  Te  Te166  1  0.56090116  0.40587620  0.57195679  1
  Te  Te167  1  0.55607473  0.42639401  0.89819762  1
  Te  Te168  1  0.58402901  0.73634590  0.24257996  1
  Te  Te169  1  0.60395901  0.75009994  0.58121635  1
  Te  Te170  1  0.56507016  0.75106668  0.91533759  1
  Te  Te171  1  0.92721443  0.10493805  0.23017877  1
  Te  Te172  1  0.92352684  0.08301010  0.56177519  1
  Te  Te173  1  0.90086989  0.08924186  0.90892371  1
  Te  Te174  1  0.91265970  0.41636880  0.24352155  1
  Te  Te175  1  0.89823899  0.42031274  0.57351555  1
  Te  Te176  1  0.93646223  0.42626079  0.91341970  1
  Te  Te177  1  0.92127397  0.74044906  0.25266416  1
  Te  Te178  1  0.92397487  0.75802600  0.59204962  1
  Te  Te179  1  0.91861953  0.74247389  0.90475079  1
