# generated using pymatgen
data_In2Te3
_symmetry_space_group_name_H-M   'P 1'
_cell_length_a   19.03210593
_cell_length_b   19.06125497
_cell_length_c   18.98805017
_cell_angle_alpha   89.97716148
_cell_angle_beta   90.04586998
_cell_angle_gamma   90.00269851
_symmetry_Int_Tables_number   1
_chemical_formula_structural   In2Te3
_chemical_formula_sum   'In72 Te108'
_cell_volume   6888.40277973
_cell_formula_units_Z   36
loop_
 _symmetry_equiv_pos_site_id
 _symmetry_equiv_pos_as_xyz
  1  'x, y, z'
loop_
 _atom_site_type_symbol
 _atom_site_label
 _atom_site_symmetry_multiplicity
 _atom_site_fract_x
 _atom_site_fract_y
 _atom_site_fract_z
 _atom_site_occupancy
  In  In0  1  -0.01872966  0.19249320  0.48642286  1
  In  In1  1  0.49997042  0.16359865  0.67333888  1
  In  In2  1  0.17384513  -0.02174815  0.84762065  1
  In  In3  1  0.17751979  0.65572319  0.82723241  1
  In  In4  1  0.82385450  0.31107215  0.86207737  1
  In  In5  1  0.50893250  0.82428431  -0.01160732  1
  In  In6  1  0.68853116  0.82642151  0.83210945  1
  In  In7  1  0.34124070  0.83025030  0.47825619  1
  In  In8  1  0.33877852  0.43792711  0.08650403  1
  In  In9  1  -0.01316653  0.47850483  0.83982564  1
  In  In10  1  -0.10601457  0.22433654  0.23379160  1
  In  In11  1  0.67641297  0.47745833  0.47476087  1
  In  In12  1  0.69091620  0.34340442  0.65514226  1
  In  In13  1  0.34283651  0.33562511  0.33098112  1
  In  In14  1  0.00808420  0.36015047  0.64242351  1
  In  In15  1  0.81967994  0.18164792  0.65418133  1
  In  In16  1  0.68007322  0.18536230  0.17952507  1
  In  In17  1  0.14869983  0.83761767  0.00894415  1
  In  In18  1  0.64983196  0.02475668  0.02933239  1
  In  In19  1  0.81325893  0.49213587  0.00388607  1
  In  In20  1  0.50357837  0.67625264  0.83339823  1
  In  In21  1  0.18546832  0.82462586  0.63318747  1
  In  In22  1  0.52669306  0.85025832  0.64708949  1
  In  In23  1  -0.00758502  0.17705899  0.83514293  1
  In  In24  1  0.49003542  0.50520782  0.31317408  1
  In  In25  1  -0.00506835  0.66609935  0.33230495  1
  In  In26  1  0.16493237  0.50363025  0.64528982  1
  In  In27  1  0.15442785  0.82568000  0.34179196  1
  In  In28  1  0.51810958  0.19134120  0.35400185  1
  In  In29  1  0.68995353  0.81666308  0.17771086  1
  In  In30  1  0.15979815  0.51208373  0.00825054  1
  In  In31  1  0.33253055  0.81248069  0.84877585  1
  In  In32  1  0.14802389  0.02114166  0.49480380  1
  In  In33  1  0.50119405  0.15650992  0.01516926  1
  In  In34  1  0.84539292  0.01518802  0.85970633  1
  In  In35  1  0.32731837  0.15796185  0.51259128  1
  In  In36  1  0.65359283  0.01267503  0.34326866  1
  In  In37  1  0.47157096  -0.02725545  0.19461623  1
  In  In38  1  0.82716690  0.00047140  0.50060954  1
  In  In39  1  0.51125847  0.31531615  0.83758478  1
  In  In40  1  0.13966028  0.34709547  0.48537997  1
  In  In41  1  0.67411496  0.35154429  0.01849761  1
  In  In42  1  0.66265569  0.82491118  0.46052449  1
  In  In43  1  0.83510425  0.82361500  0.00790898  1
  In  In44  1  0.02646921  0.83209615  0.16026324  1
  In  In45  1  0.83865532  0.83869839  0.34155262  1
  In  In46  1  0.19448740  0.33119866  0.85878255  1
  In  In47  1  0.32729831  0.66884800  0.65339004  1
  In  In48  1  0.13965090  0.17727982  0.32583780  1
  In  In49  1  0.82730785  0.63356836  0.18611960  1
  In  In50  1  0.01285951  0.00538695  0.00399350  1
  In  In51  1  0.68645118  0.00481925  0.68051906  1
  In  In52  1  0.82455116  0.65416771  0.75313362  1
  In  In53  1  0.84152242  0.49801036  0.63405615  1
  In  In54  1  0.01427702  0.00123236  0.68527371  1
  In  In55  1  0.17773834  0.16687869  0.00021165  1
  In  In56  1  0.34099508  0.16405373  0.81978655  1
  In  In57  1  0.66630384  0.50065755  0.83793706  1
  In  In58  1  0.46610460  0.66234169  0.46741572  1
  In  In59  1  0.50242624  0.00763181  0.50812763  1
  In  In60  1  0.37041082  0.64225733  0.02104062  1
  In  In61  1  0.33104070  0.33739763  0.64379202  1
  In  In62  1  0.17155243  0.33479080  0.17843776  1
  In  In63  1  0.19115240  -0.02810454  0.18518407  1
  In  In64  1  0.50200937  0.49345941  0.67338488  1
  In  In65  1  -0.01177718  0.50719930  0.46110549  1
  In  In66  1  0.64446555  0.49584520  0.17408889  1
  In  In67  1  0.32623773  0.15739908  0.16548136  1
  In  In68  1  -0.00204363  0.49947286  0.18898242  1
  In  In69  1  0.53052393  0.66962005  0.17522573  1
  In  In70  1  -0.00711754  0.70411175  0.01085667  1
  In  In71  1  -0.04139083  0.78832045  0.74770485  1
  Te  Te72  1  0.11033328  0.07277322  0.09581038  1
  Te  Te73  1  0.04641657  0.08541091  0.40092233  1
  Te  Te74  1  0.09826967  0.09026492  0.77198963  1
  Te  Te75  1  0.07816241  0.41576650  0.08836614  1
  Te  Te76  1  0.05802045  0.40541272  0.37663292  1
  Te  Te77  1  0.10084629  0.41077729  0.76071530  1
  Te  Te78  1  0.11306409  0.71732250  0.10860460  1
  Te  Te79  1  0.04366557  0.77248195  0.42320629  1
  Te  Te80  1  0.10140941  0.73674861  0.72576739  1
  Te  Te81  1  0.40788707  0.05740568  0.08785261  1
  Te  Te82  1  0.41989291  0.09102784  0.41260866  1
  Te  Te83  1  0.41960427  0.06706519  0.74526112  1
  Te  Te84  1  0.46552150  0.43539415  0.16126516  1
  Te  Te85  1  0.43076759  0.41290305  0.42102105  1
  Te  Te86  1  0.41567313  0.39966281  0.75432578  1
  Te  Te87  1  0.42814173  0.75684315  0.09643448  1
  Te  Te88  1  0.40378047  0.75618603  0.36164027  1
  Te  Te89  1  0.42639476  0.75682229  0.72718809  1
  Te  Te90  1  0.76687648  0.08178128  0.11046493  1
  Te  Te91  1  0.75168463  0.09518812  0.41734612  1
  Te  Te92  1  0.75959679  0.10307239  0.76977430  1
  Te  Te93  1  0.77870441  0.40492351  0.12665407  1
  Te  Te94  1  0.77571072  0.45183858  0.36552426  1
  Te  Te95  1  0.76975226  0.41912900  0.76155360  1
  Te  Te96  1  0.75317645  0.72031429  0.07950200  1
  Te  Te97  1  0.77334540  0.73401686  0.42287734  1
  Te  Te98  1  0.72996618  0.75939587  0.70898059  1
  Te  Te99  1  0.06059805  0.24546816  0.22139772  1
  Te  Te100  1  0.08669160  0.24535139  0.58399608  1
  Te  Te101  1  0.08103176  0.25922267  0.92933808  1
  Te  Te102  1  0.09277459  0.58796095  0.25708696  1
  Te  Te103  1  0.07583450  0.57714830  0.55770346  1
  Te  Te104  1  0.06636974  0.59131139  0.91064351  1
  Te  Te105  1  0.06839583  0.93124226  0.26314566  1
  Te  Te106  1  0.07525712  0.91397522  0.57986149  1
  Te  Te107  1  0.05938141  0.89937586  0.90487724  1
  Te  Te108  1  0.42229357  0.24277121  0.24379472  1
  Te  Te109  1  0.43147850  0.25125475  0.57046391  1
  Te  Te110  1  0.41231290  0.24436500  0.92626592  1
  Te  Te111  1  0.40298862  0.62016111  0.25093149  1
  Te  Te112  1  0.41265521  0.57050111  0.57758980  1
  Te  Te113  1  0.42187005  0.57762836  0.90230203  1
  Te  Te114  1  0.39010829  0.88625857  0.27601880  1
  Te  Te115  1  0.40676435  0.91780963  0.58334536  1
  Te  Te116  1  0.42580633  0.90864887  0.90431396  1
  Te  Te117  1  0.74899181  0.24880600  0.29502029  1
  Te  Te118  1  0.74819692  0.25667804  0.54840388  1
  Te  Te119  1  0.73175040  0.23795871  0.94622391  1
  Te  Te120  1  0.72590482  0.57257182  0.27443223  1
  Te  Te121  1  0.72871885  0.56897528  0.57715671  1
  Te  Te122  1  0.78207534  0.58377724  0.88785411  1
  Te  Te123  1  0.75024465  0.92921114  0.25908153  1
  Te  Te124  1  0.73049046  0.91035342  0.57077320  1
  Te  Te125  1  0.74537619  0.93012467  0.93822176  1
  Te  Te126  1  0.26398956  0.26474657  0.07846683  1
  Te  Te127  1  0.24150056  0.24822228  0.41671090  1
  Te  Te128  1  0.24789037  0.25320857  0.73989686  1
  Te  Te129  1  0.26503010  0.56942095  0.10318853  1
  Te  Te130  1  0.34713857  0.53904307  0.36478221  1
  Te  Te131  1  0.26410466  0.56516548  0.74401398  1
  Te  Te132  1  0.25942910  0.90751682  0.07168548  1
  Te  Te133  1  0.24114555  0.92578151  0.41919653  1
  Te  Te134  1  0.25368631  0.89741703  0.74850715  1
  Te  Te135  1  0.57850406  0.25965917  0.09435977  1
  Te  Te136  1  0.63926958  0.23072746  0.42523507  1
  Te  Te137  1  0.60560744  0.25068850  0.74154841  1
  Te  Te138  1  0.58482885  0.58070994  0.07219052  1
  Te  Te139  1  0.57897048  0.58177519  0.41425519  1
  Te  Te140  1  0.59301619  0.59197399  0.74256018  1
  Te  Te141  1  0.58615269  0.90631407  0.09908829  1
  Te  Te142  1  0.55534055  0.91426933  0.40192134  1
  Te  Te143  1  0.59121101  0.92204368  0.76404551  1
  Te  Te144  1  0.86325349  0.28578914  0.10224355  1
  Te  Te145  1  0.89163240  0.24874796  0.38595901  1
  Te  Te146  1  0.92079515  0.27047861  0.73853152  1
  Te  Te147  1  0.92405377  0.58072633  0.07433949  1
  Te  Te148  1  0.89153859  0.61447204  0.42615996  1
  Te  Te149  1  0.94631224  0.56446669  0.72229844  1
  Te  Te150  1  0.92124170  0.91789076  0.08788392  1
  Te  Te151  1  0.92431901  0.91300629  0.43527145  1
  Te  Te152  1  0.89736143  0.92882535  0.74631201  1
  Te  Te153  1  0.24751699  0.08517621  0.27057341  1
  Te  Te154  1  0.23822903  0.07784190  0.59441065  1
  Te  Te155  1  0.26423328  0.07518232  0.91912629  1
  Te  Te156  1  0.24284280  0.42612753  0.26987856  1
  Te  Te157  1  0.25181900  0.42625970  0.54874921  1
  Te  Te158  1  0.26880785  0.43176474  0.94100188  1
  Te  Te159  1  0.21243242  0.79073580  0.21022258  1
  Te  Te160  1  0.24815031  0.72483835  0.53715466  1
  Te  Te161  1  0.24748076  0.72822217  0.94027615  1
  Te  Te162  1  0.56985999  0.08965465  0.24226231  1
  Te  Te163  1  0.60120296  0.08852073  0.58703696  1
  Te  Te164  1  0.58218252  0.08633369  0.91620180  1
  Te  Te165  1  0.58057511  0.39359936  0.26070872  1
  Te  Te166  1  0.58048847  0.40857894  0.57711090  1
  Te  Te167  1  0.57349235  0.42148647  0.92647590  1
  Te  Te168  1  0.60381225  0.75009853  0.27358901  1
  Te  Te169  1  0.56804520  0.74512338  0.54956689  1
  Te  Te170  1  0.61074808  0.73392680  0.92315552  1
  Te  Te171  1  0.88842455  0.08171447  0.19921066  1
  Te  Te172  1  0.92416723  0.09025215  0.59300036  1
  Te  Te173  1  0.91847196  0.11209748  0.95027157  1
  Te  Te174  1  0.91520908  0.44215363  0.29814505  1
  Te  Te175  1  0.90604798  0.39978580  0.54205764  1
  Te  Te176  1  0.91715553  0.39551412  0.94541851  1
  Te  Te177  1  0.90984511  0.75377019  0.22774016  1
  Te  Te178  1  0.88477853  0.73041136  0.63435411  1
  Te  Te179  1  0.90898570  0.75535202  0.89523577  1
