# generated using pymatgen
data_In2Te3
_symmetry_space_group_name_H-M   'P 1'
_cell_length_a   18.80249064
_cell_length_b   18.79119552
_cell_length_c   18.81080686
_cell_angle_alpha   89.91824827
_cell_angle_beta   89.99753378
_cell_angle_gamma   89.99184639
_symmetry_Int_Tables_number   1
_chemical_formula_structural   In2Te3
_chemical_formula_sum   'In72 Te108'
_cell_volume   6646.25147884
_cell_formula_units_Z   36
loop_
 _symmetry_equiv_pos_site_id
 _symmetry_equiv_pos_as_xyz
  1  'x, y, z'
loop_
 _atom_site_type_symbol
 _atom_site_label
 _atom_site_symmetry_multiplicity
 _atom_site_fract_x
 _atom_site_fract_y
 _atom_site_fract_z
 _atom_site_occupancy
  In  In0  1  0.00343020  0.15947801  0.46768380  1
  In  In1  1  0.65362919  0.51360784  0.50434503  1
  In  In2  1  -0.00525189  0.15706434  0.15334714  1
  In  In3  1  0.66824454  -0.00453159  0.31467383  1
  In  In4  1  0.01650860  0.17262209  0.85137002  1
  In  In5  1  0.33265970  -0.00243866  -0.01446327  1
  In  In6  1  -0.00041760  0.31046795  -0.01335334  1
  In  In7  1  0.85685492  0.18534922  0.33662188  1
  In  In8  1  0.02980361  -0.00576630  0.31543124  1
  In  In9  1  0.83988568  -0.00717378  0.81957612  1
  In  In10  1  0.48850939  0.81531928  0.00312322  1
  In  In11  1  0.03501284  0.50687045  0.83171968  1
  In  In12  1  0.17582547  0.82648666  0.36108840  1
  In  In13  1  0.00767785  0.82385895  0.50862359  1
  In  In14  1  0.82302554  0.00369116  0.50219536  1
  In  In15  1  0.67718802  0.20849622  0.50530415  1
  In  In16  1  0.49822238  -0.00372223  0.52050395  1
  In  In17  1  0.66141694  0.34805131  0.64187596  1
  In  In18  1  0.16483090  -0.02578780  0.17206318  1
  In  In19  1  0.83467996  0.83637808  -0.01268484  1
  In  In20  1  0.65118362  0.83342589  0.83009530  1
  In  In21  1  0.65481004  0.16576842  0.82855837  1
  In  In22  1  0.00503436  0.50883298  0.15891849  1
  In  In23  1  0.68253500  0.81600953  0.49707099  1
  In  In24  1  0.33520875  0.51488915  0.16702770  1
  In  In25  1  0.83913873  0.81495336  0.34026510  1
  In  In26  1  0.16529694  0.15800957  0.32417675  1
  In  In27  1  0.83235366  -0.01182750  0.13042318  1
  In  In28  1  0.83248190  0.50123521  0.03251844  1
  In  In29  1  0.34463963  0.17062431  0.50236776  1
  In  In30  1  0.20059167  0.50995998  -0.01112400  1
  In  In31  1  0.63633832  0.80735616  0.15593748  1
  In  In32  1  0.82033719  0.49592478  0.64683526  1
  In  In33  1  0.18702270  0.31857837  0.15037959  1
  In  In34  1  0.35110886  0.80615466  0.15994449  1
  In  In35  1  0.33131446  0.66308915  0.67119006  1
  In  In36  1  0.17366888  0.34525529  0.51608690  1
  In  In37  1  0.16640665  0.16199045  0.68839139  1
  In  In38  1  0.30395957  0.17792757  0.16026817  1
  In  In39  1  0.82794923  0.33065356  0.83417562  1
  In  In40  1  0.17378862  0.81689671  0.68775685  1
  In  In41  1  0.48759800  0.19522509  0.67225513  1
  In  In42  1  0.83231591  0.65907906  0.84453851  1
  In  In43  1  -0.00964812  0.35416410  0.66135874  1
  In  In44  1  0.34983071  0.00013275  0.67555409  1
  In  In45  1  0.49497573  0.67091423  0.50568754  1
  In  In46  1  0.65911907  0.16572421  0.18256174  1
  In  In47  1  0.82220229  0.66153620  0.17264327  1
  In  In48  1  0.19130040  0.18019501  0.01485005  1
  In  In49  1  0.18794044  0.50374075  0.67742791  1
  In  In50  1  0.33693655  0.19043399  0.83528565  1
  In  In51  1  0.49309510  0.16494026  -0.01961448  1
  In  In52  1  0.47414962  0.64480850  0.84986234  1
  In  In53  1  0.49403395  0.82031940  0.31788397  1
  In  In54  1  -0.00240249  0.68301886  0.66341488  1
  In  In55  1  0.17537680  0.65831276  0.50201819  1
  In  In56  1  -0.01506530  0.35958459  0.33649639  1
  In  In57  1  -0.00663593  -0.01548316  0.66717515  1
  In  In58  1  0.47697836  0.33918170  0.15973711  1
  In  In59  1  0.62745910  0.49802607  0.85998178  1
  In  In60  1  0.32214945  0.80905230  0.84830785  1
  In  In61  1  0.81435876  0.16735287  -0.02356219  1
  In  In62  1  0.83395410  0.38034114  0.17239106  1
  In  In63  1  0.02425594  -0.05528995  -0.01748093  1
  In  In64  1  0.66616177  -0.00198407  0.67917363  1
  In  In65  1  0.37345163  0.36998061  0.37160608  1
  In  In66  1  0.34465027  0.65835380  0.33531639  1
  In  In67  1  0.63743595  0.52782665  0.14010586  1
  In  In68  1  0.64754122  0.65579709  0.69746231  1
  In  In69  1  0.65786740  0.36173541  0.34538211  1
  In  In70  1  0.16707873  0.51549668  0.30864474  1
  In  In71  1  0.51553499  0.16102506  0.33510465  1
  Te  Te72  1  0.09123726  0.07201248  0.07215872  1
  Te  Te73  1  0.11407816  0.05382401  0.43244450  1
  Te  Te74  1  0.08175452  0.06241933  0.76741464  1
  Te  Te75  1  0.08547157  0.40800388  0.07553476  1
  Te  Te76  1  0.09332323  0.43116161  0.41442606  1
  Te  Te77  1  0.10277261  0.39571977  0.75301750  1
  Te  Te78  1  0.12639382  0.78629259  0.02578661  1
  Te  Te79  1  0.07071990  0.72343323  0.41313524  1
  Te  Te80  1  0.08652097  0.73177288  0.77167859  1
  Te  Te81  1  0.40418203  0.09036396  0.08201370  1
  Te  Te82  1  0.41872762  0.07098611  0.41302317  1
  Te  Te83  1  0.43258016  0.09008009  0.76687112  1
  Te  Te84  1  0.42766256  0.44953671  0.06406779  1
  Te  Te85  1  0.46220157  0.46779280  0.44258137  1
  Te  Te86  1  0.37615761  0.37087415  0.77668957  1
  Te  Te87  1  0.42968376  0.70107457  0.08468753  1
  Te  Te88  1  0.40252391  0.76617878  0.42673380  1
  Te  Te89  1  0.42634602  0.75153191  0.75130413  1
  Te  Te90  1  0.72887535  0.08306446  0.07236473  1
  Te  Te91  1  0.73767514  0.09457621  0.41020215  1
  Te  Te92  1  0.76267311  0.09934270  0.74177723  1
  Te  Te93  1  0.71811119  0.40949952  0.07740867  1
  Te  Te94  1  0.75936060  0.42811785  0.43503073  1
  Te  Te95  1  0.73852699  0.43326075  0.76045467  1
  Te  Te96  1  0.74492233  0.74359270  0.06933240  1
  Te  Te97  1  0.74514285  0.72123345  0.40356089  1
  Te  Te98  1  0.75429746  0.75198761  0.75140696  1
  Te  Te99  1  0.06944736  0.25802130  0.24638389  1
  Te  Te100  1  0.07969536  0.24045397  0.58276199  1
  Te  Te101  1  0.12150434  0.26847806  0.90700193  1
  Te  Te102  1  0.08313245  0.61128518  0.23356971  1
  Te  Te103  1  0.08330940  0.57747284  0.59161586  1
  Te  Te104  1  0.08361917  0.58965747  0.94195942  1
  Te  Te105  1  0.07804645  0.87218844  0.24223980  1
  Te  Te106  1  0.10172640  0.91138478  0.58919700  1
  Te  Te107  1  0.11802485  0.86815572  0.89893219  1
  Te  Te108  1  0.40813515  0.24382910  0.26057993  1
  Te  Te109  1  0.40782557  0.27953739  0.58049488  1
  Te  Te110  1  0.44122738  0.28349581  0.89895651  1
  Te  Te111  1  0.43704005  0.57413449  0.25671791  1
  Te  Te112  1  0.40677101  0.57339309  0.57862835  1
  Te  Te113  1  0.39114801  0.54684819  0.92657361  1
  Te  Te114  1  0.41099275  0.91381385  0.24107910  1
  Te  Te115  1  0.40878122  0.89924252  0.58472920  1
  Te  Te116  1  0.42474837  0.91120131  0.90220015  1
  Te  Te117  1  0.74961034  0.26478853  0.25805246  1
  Te  Te118  1  0.77501733  0.26392714  0.59976687  1
  Te  Te119  1  0.71833375  0.27206917  0.92308829  1
  Te  Te120  1  0.73203903  0.57003375  0.24674355  1
  Te  Te121  1  0.74177717  0.60941698  0.58449274  1
  Te  Te122  1  0.74092004  0.57307566  0.93059660  1
  Te  Te123  1  0.75540936  0.90116635  0.23284243  1
  Te  Te124  1  0.75888865  0.90626470  0.59820976  1
  Te  Te125  1  0.73807323  0.92904896  0.91360412  1
  Te  Te126  1  0.29446645  0.28836944  0.04723675  1
  Te  Te127  1  0.24729166  0.25369106  0.40994200  1
  Te  Te128  1  0.27001650  0.26817210  0.72308594  1
  Te  Te129  1  0.23154901  0.59924070  0.10307056  1
  Te  Te130  1  0.26081274  0.56315893  0.42060554  1
  Te  Te131  1  0.25087290  0.59531653  0.77761724  1
  Te  Te132  1  0.25592811  0.89929240  0.07339667  1
  Te  Te133  1  0.23310025  0.95015035  0.41095780  1
  Te  Te134  1  0.25398760  0.92133264  0.76526392  1
  Te  Te135  1  0.57326277  0.24721907  0.08621701  1
  Te  Te136  1  0.56329696  0.27248821  0.42706062  1
  Te  Te137  1  0.58314887  0.28030038  0.75458390  1
  Te  Te138  1  0.56296794  0.62256697  0.05349624  1
  Te  Te139  1  0.56946416  0.58833575  0.40351633  1
  Te  Te140  1  0.54503843  0.55253685  0.74317144  1
  Te  Te141  1  0.57078990  0.91246896  0.07822101  1
  Te  Te142  1  0.59049410  0.91485895  0.41865515  1
  Te  Te143  1  0.56385599  0.91276591  0.74061927  1
  Te  Te144  1  0.89120154  0.25396201  0.08665290  1
  Te  Te145  1  0.90836371  0.27876124  0.44272536  1
  Te  Te146  1  0.92601219  0.24695903  0.75257050  1
  Te  Te147  1  0.93127632  0.60940091  0.06923902  1
  Te  Te148  1  0.88546616  0.52315691  0.42534425  1
  Te  Te149  1  0.91650805  0.56733905  0.75022959  1
  Te  Te150  1  0.93959844  0.88664114  0.09317713  1
  Te  Te151  1  0.92511264  0.92826466  0.41676966  1
  Te  Te152  1  0.92522252  0.88956856  0.75824400  1
  Te  Te153  1  0.26012762  0.06202635  0.25312759  1
  Te  Te154  1  0.25388437  0.08407619  0.59056802  1
  Te  Te155  1  0.24202190  0.08736280  0.90384818  1
  Te  Te156  1  0.26045905  0.40277957  0.25498057  1
  Te  Te157  1  0.27564307  0.42888724  0.58283669  1
  Te  Te158  1  0.27849893  0.45128444  0.87121243  1
  Te  Te159  1  0.24784474  0.74341082  0.25344763  1
  Te  Te160  1  0.25969516  0.76016664  0.57514865  1
  Te  Te161  1  0.24912214  0.73383587  0.95294906  1
  Te  Te162  1  0.55924706  0.05906824  0.22941529  1
  Te  Te163  1  0.58864530  0.10327976  0.58498554  1
  Te  Te164  1  0.58276483  0.06937442  0.91289389  1
  Te  Te165  1  0.56925515  0.42884271  0.24248099  1
  Te  Te166  1  0.55229483  0.42401761  0.57259912  1
  Te  Te167  1  0.52726121  0.42819476  0.94342029  1
  Te  Te168  1  0.59008393  0.72142162  0.26610187  1
  Te  Te169  1  0.58363942  0.75496504  0.59668990  1
  Te  Te170  1  0.58858324  0.72488660  0.91922643  1
  Te  Te171  1  0.90379173  0.06690672  0.24822503  1
  Te  Te172  1  0.92191544  0.08924839  0.58019090  1
  Te  Te173  1  0.92656208  0.07382908  0.93067457  1
  Te  Te174  1  0.89943911  0.47676734  0.27673662  1
  Te  Te175  1  0.93519761  0.44972582  0.55883033  1
  Te  Te176  1  0.91680388  0.42262074  0.91970152  1
  Te  Te177  1  0.92438755  0.72397611  0.26157765  1
  Te  Te178  1  0.90226282  0.73811484  0.56528869  1
  Te  Te179  1  0.92672341  0.75692195  0.90316876  1
