# generated using pymatgen
data_In2Te3
_symmetry_space_group_name_H-M   'P 1'
_cell_length_a   19.02167344
_cell_length_b   19.01679467
_cell_length_c   18.98223849
_cell_angle_alpha   90.07525536
_cell_angle_beta   89.97791254
_cell_angle_gamma   90.14286119
_symmetry_Int_Tables_number   1
_chemical_formula_structural   In2Te3
_chemical_formula_sum   'In72 Te108'
_cell_volume   6866.44124002
_cell_formula_units_Z   36
loop_
 _symmetry_equiv_pos_site_id
 _symmetry_equiv_pos_as_xyz
  1  'x, y, z'
loop_
 _atom_site_type_symbol
 _atom_site_label
 _atom_site_symmetry_multiplicity
 _atom_site_fract_x
 _atom_site_fract_y
 _atom_site_fract_z
 _atom_site_occupancy
  In  In0  1  0.85071444  0.48882250  0.30483476  1
  In  In1  1  0.32502062  0.68290662  0.34040437  1
  In  In2  1  -0.00129559  0.82597600  0.86023547  1
  In  In3  1  0.65707922  0.83684204  0.50080328  1
  In  In4  1  0.83143274  0.16662421  0.65821313  1
  In  In5  1  0.49287756  0.32446854  0.16722145  1
  In  In6  1  0.02413823  0.66236893  0.31107943  1
  In  In7  1  0.30291501  0.48620915  0.85071501  1
  In  In8  1  0.32197211  0.17707127  0.49591559  1
  In  In9  1  0.84021841  0.48971651  0.68446835  1
  In  In10  1  0.01787840  0.17705475  0.82358345  1
  In  In11  1  0.84399281  0.81732946  0.31820836  1
  In  In12  1  0.16501122  0.82453664  0.64768831  1
  In  In13  1  0.84620308  0.17292443  0.01575647  1
  In  In14  1  0.65600062  0.02608154  0.01006641  1
  In  In15  1  0.47658519  0.34835319  0.51477102  1
  In  In16  1  0.81824202  0.81793983  0.04560565  1
  In  In17  1  0.30965810  0.64463894  0.00522960  1
  In  In18  1  0.82687711  0.63354116  0.84185356  1
  In  In19  1  0.66931943  0.33260257  0.33266213  1
  In  In20  1  -0.01114396  0.66348074  0.67970681  1
  In  In21  1  0.02370011  -0.00805960  0.34057238  1
  In  In22  1  0.49907772  0.50920870  0.67997147  1
  In  In23  1  0.00628895  0.17950867  0.16757498  1
  In  In24  1  0.81865107  0.18556680  0.31500629  1
  In  In25  1  -0.00642130  0.33474165  0.32149238  1
  In  In26  1  0.84034899  0.51307744  0.01623540  1
  In  In27  1  0.35183390  0.83322628  0.83497207  1
  In  In28  1  0.17702534  0.17597093  0.65179261  1
  In  In29  1  0.64503628  0.47492141  0.51516286  1
  In  In30  1  0.32041916  0.34005146  0.68592929  1
  In  In31  1  0.64214803  -0.00498935  0.65840775  1
  In  In32  1  0.51255120  0.01594346  0.48899422  1
  In  In33  1  0.50492395  0.03712926  0.18387811  1
  In  In34  1  0.82451717  0.63949796  0.50675506  1
  In  In35  1  0.14291912  0.35663911  0.85162511  1
  In  In36  1  0.66737200  0.17137733  0.49461226  1
  In  In37  1  0.34007030  0.83440211  0.49595726  1
  In  In38  1  0.18220225  0.18660888  0.01586943  1
  In  In39  1  0.84120095  -0.00762311  0.16758607  1
  In  In40  1  0.47414222  0.66705605  0.51654932  1
  In  In41  1  0.82082262  -0.01275364  0.80744690  1
  In  In42  1  0.17587255  0.83433782  0.32384267  1
  In  In43  1  0.51748615  0.85057245  -0.00014690  1
  In  In44  1  0.82902375  0.33311533  0.85793494  1
  In  In45  1  0.82408174  0.04481499  0.47967292  1
  In  In46  1  0.34664419  0.00882914  0.32176342  1
  In  In47  1  0.36432784  0.18393085  0.84476742  1
  In  In48  1  0.20559664  0.01988365  0.82542636  1
  In  In49  1  0.15277471  0.48389948  0.67574625  1
  In  In50  1  0.32896038  0.49138088  0.17006821  1
  In  In51  1  0.01788638  0.82855717  0.46601912  1
  In  In52  1  0.03495741  0.63753422  -0.03763119  1
  In  In53  1  0.51003754  0.68193005  0.83762596  1
  In  In54  1  0.64237616  0.32996194  -0.00506329  1
  In  In55  1  0.34259822  0.17546645  0.16888279  1
  In  In56  1  0.69313886  0.81682957  0.84278061  1
  In  In57  1  -0.01163307  0.49366390  0.52534951  1
  In  In58  1  0.50794391  0.67177332  0.15356532  1
  In  In59  1  0.16441105  0.31728384  0.48968292  1
  In  In60  1  0.17899495  0.82800804  0.01650384  1
  In  In61  1  0.49472110  0.82861461  0.66166490  1
  In  In62  1  0.33100967  0.83857327  0.17228073  1
  In  In63  1  0.00969714  0.02176296  -0.01728849  1
  In  In64  1  0.66931680  0.63531817  0.32018366  1
  In  In65  1  0.18366204  0.50298844  0.32192034  1
  In  In66  1  0.48097206  0.00848620  0.82144413  1
  In  In67  1  0.51169703  0.47046641  -0.02897545  1
  In  In68  1  0.68470080  0.51338029  0.16720269  1
  In  In69  1  0.84024311  0.83249401  0.66752539  1
  In  In70  1  0.47084941  0.47977380  0.34779718  1
  In  In71  1  -0.00380131  0.16788975  0.48062909  1
  Te  Te72  1  0.09356455  0.08429003  0.08964233  1
  Te  Te73  1  0.10178928  0.07984582  0.42807266  1
  Te  Te74  1  0.09424964  0.07781878  0.74105743  1
  Te  Te75  1  0.05354848  0.49085469  -0.00622170  1
  Te  Te76  1  0.07594868  0.42417600  0.42114032  1
  Te  Te77  1  0.05615367  0.39665427  0.74146106  1
  Te  Te78  1  0.06834589  0.74317048  0.06246723  1
  Te  Te79  1  0.11484207  0.72731989  0.41456560  1
  Te  Te80  1  0.08191401  0.75062697  0.75932536  1
  Te  Te81  1  0.44258140  0.11520058  0.07427429  1
  Te  Te82  1  0.42443227  0.10592391  0.40677520  1
  Te  Te83  1  0.38579117  0.08151494  0.73842480  1
  Te  Te84  1  0.41282997  0.41033915  0.07077571  1
  Te  Te85  1  0.38497150  0.37245240  0.39992272  1
  Te  Te86  1  0.41343007  0.41901558  0.77241164  1
  Te  Te87  1  0.41234431  0.75281496  0.06666079  1
  Te  Te88  1  0.43749465  0.76134447  0.40462942  1
  Te  Te89  1  0.40711177  0.73149128  0.73656376  1
  Te  Te90  1  0.75083277  0.09685851  0.10563513  1
  Te  Te91  1  0.71566302  0.07971835  0.37406385  1
  Te  Te92  1  0.73009819  0.08762981  0.74190165  1
  Te  Te93  1  0.74383348  0.40648322  0.07980955  1
  Te  Te94  1  0.74784668  0.43907007  0.40565426  1
  Te  Te95  1  0.74377872  0.41385867  0.76786110  1
  Te  Te96  1  0.73048992  0.74497061  0.13379984  1
  Te  Te97  1  0.74534693  0.73508606  0.41846434  1
  Te  Te98  1  0.75886248  0.72932866  0.73849890  1
  Te  Te99  1  0.09026792  0.23208143  0.27774381  1
  Te  Te100  1  0.06563133  0.25448013  0.58511489  1
  Te  Te101  1  0.06727163  0.25358266  0.94204482  1
  Te  Te102  1  0.08927201  0.56248579  0.22600826  1
  Te  Te103  1  0.08350099  0.59308020  0.58674564  1
  Te  Te104  1  0.13767159  0.55644453  0.88399368  1
  Te  Te105  1  0.07981428  0.90508519  0.23655829  1
  Te  Te106  1  0.08501562  0.91324458  0.56339457  1
  Te  Te107  1  0.10552411  0.92985926  0.90768662  1
  Te  Te108  1  0.40993789  0.26179852  0.27122586  1
  Te  Te109  1  0.40661694  0.24842183  0.60355214  1
  Te  Te110  1  0.42518481  0.27307410  0.95116754  1
  Te  Te111  1  0.42103222  0.59152932  0.25034276  1
  Te  Te112  1  0.40480049  0.55472838  0.57707024  1
  Te  Te113  1  0.41879448  0.58582471  0.91602851  1
  Te  Te114  1  0.43614858  0.91087205  0.24921799  1
  Te  Te115  1  0.42326218  0.93015284  0.58080089  1
  Te  Te116  1  0.41034011  0.93277116  0.93326487  1
  Te  Te117  1  0.74664788  0.27357722  0.22406597  1
  Te  Te118  1  0.75505298  0.25817275  0.57286725  1
  Te  Te119  1  0.74042898  0.23154194  0.92566735  1
  Te  Te120  1  0.78955068  0.60714498  0.22940244  1
  Te  Te121  1  0.73377862  0.56596873  0.59851357  1
  Te  Te122  1  0.73484432  0.58174851  0.94151466  1
  Te  Te123  1  0.75266782  0.90482832  0.24557313  1
  Te  Te124  1  0.75490482  0.92879079  0.58200096  1
  Te  Te125  1  0.74792403  0.93132370  0.92936097  1
  Te  Te126  1  0.24008488  0.27288439  0.12097556  1
  Te  Te127  1  0.21954656  0.21745122  0.39531029  1
  Te  Te128  1  0.23267704  0.25253484  0.77331063  1
  Te  Te129  1  0.22618825  0.57368590  0.10185358  1
  Te  Te130  1  0.26945969  0.57302881  0.41760482  1
  Te  Te131  1  0.23725629  0.57818705  0.75483591  1
  Te  Te132  1  0.25210469  0.93247894  0.09133730  1
  Te  Te133  1  0.25534974  0.92677819  0.41199459  1
  Te  Te134  1  0.26003893  0.90721271  0.74132058  1
  Te  Te135  1  0.56196057  0.23065070  0.07380622  1
  Te  Te136  1  0.57296947  0.26622017  0.42536028  1
  Te  Te137  1  0.51021107  0.22940633  0.84046718  1
  Te  Te138  1  0.57831020  0.56627897  0.07301223  1
  Te  Te139  1  0.57023082  0.57680274  0.42266948  1
  Te  Te140  1  0.59147288  0.59479471  0.75462111  1
  Te  Te141  1  0.58993683  0.92869178  0.10367406  1
  Te  Te142  1  0.58397953  0.91864584  0.40683614  1
  Te  Te143  1  0.58700404  0.89713845  0.76826108  1
  Te  Te144  1  0.92338362  0.27237708  0.09057098  1
  Te  Te145  1  0.89777091  0.26413343  0.41626205  1
  Te  Te146  1  0.91077215  0.25494441  0.75286690  1
  Te  Te147  1  0.93087392  0.61723854  0.07048574  1
  Te  Te148  1  0.92530128  0.58497047  0.40816094  1
  Te  Te149  1  0.94087439  0.55907371  0.77612419  1
  Te  Te150  1  0.92920645  0.92310339  0.06598659  1
  Te  Te151  1  0.90046978  0.92689571  0.41889468  1
  Te  Te152  1  0.93868072  0.91300721  0.74864153  1
  Te  Te153  1  0.26017674  0.05923155  0.21410815  1
  Te  Te154  1  0.26308407  0.07801021  0.58694034  1
  Te  Te155  1  0.27227896  0.09667533  0.93626995  1
  Te  Te156  1  0.24879992  0.39319395  0.24633506  1
  Te  Te157  1  0.24407030  0.41218532  0.57804516  1
  Te  Te158  1  0.24480799  0.39600028  0.94961616  1
  Te  Te159  1  0.23788290  0.73421246  0.22808831  1
  Te  Te160  1  0.26532105  0.74237643  0.58022738  1
  Te  Te161  1  0.25124483  0.74764638  0.91073114  1
  Te  Te162  1  0.59437505  0.09836928  0.27863136  1
  Te  Te163  1  0.57056017  0.11028616  0.59594609  1
  Te  Te164  1  0.58142930  0.08846244  0.89696494  1
  Te  Te165  1  0.57773966  0.43283354  0.24904100  1
  Te  Te166  1  0.57930021  0.38838253  0.61897621  1
  Te  Te167  1  0.61032697  0.41424926  0.87637508  1
  Te  Te168  1  0.60673292  0.74388861  0.23896841  1
  Te  Te169  1  0.58964223  0.73593008  0.59030834  1
  Te  Te170  1  0.60576351  0.74309833  0.94143513  1
  Te  Te171  1  0.92159802  0.08563032  0.26250122  1
  Te  Te172  1  0.92628956  0.07472143  0.58534634  1
  Te  Te173  1  0.90593122  0.08671582  0.89335087  1
  Te  Te174  1  0.93635402  0.41535602  0.21189656  1
  Te  Te175  1  0.88715917  0.40262930  0.57566390  1
  Te  Te176  1  0.92485893  0.42279644  0.92985316  1
  Te  Te177  1  0.96267851  0.77786066  0.24115616  1
  Te  Te178  1  0.91837106  0.75064031  0.56618023  1
  Te  Te179  1  0.87538442  0.76035161  0.91664489  1
