# generated using pymatgen
data_In2Te3
_symmetry_space_group_name_H-M   'P 1'
_cell_length_a   18.79227260
_cell_length_b   18.80893130
_cell_length_c   18.81030207
_cell_angle_alpha   89.99956660
_cell_angle_beta   89.98835330
_cell_angle_gamma   89.97604182
_symmetry_Int_Tables_number   1
_chemical_formula_structural   In2Te3
_chemical_formula_sum   'In72 Te108'
_cell_volume   6648.73688689
_cell_formula_units_Z   36
loop_
 _symmetry_equiv_pos_site_id
 _symmetry_equiv_pos_as_xyz
  1  'x, y, z'
loop_
 _atom_site_type_symbol
 _atom_site_label
 _atom_site_symmetry_multiplicity
 _atom_site_fract_x
 _atom_site_fract_y
 _atom_site_fract_z
 _atom_site_occupancy
  In  In0  1  0.83871244  0.18033103  0.02963270  1
  In  In1  1  0.64869178  0.84474648  0.17529326  1
  In  In2  1  -0.01353527  -0.00416133  0.31404387  1
  In  In3  1  0.49223924  0.18030572  0.32674565  1
  In  In4  1  -0.00171996  0.19316271  0.83301244  1
  In  In5  1  0.66322502  0.00588700  0.33763830  1
  In  In6  1  0.85344180  0.49656986  0.00960169  1
  In  In7  1  0.01448734  0.83585794  0.14911074  1
  In  In8  1  0.30673032  0.66037563  0.32696193  1
  In  In9  1  0.17221286  -0.03402153  0.81764460  1
  In  In10  1  0.32347359  0.00097892  0.66820594  1
  In  In11  1  0.00501836  0.66470993  0.33584544  1
  In  In12  1  0.68070035  0.32260754  0.02986872  1
  In  In13  1  -0.01887500  0.16432272  0.47873233  1
  In  In14  1  0.17009800  -0.01055084  0.51859063  1
  In  In15  1  0.67668236  0.33181805  0.67548950  1
  In  In16  1  0.01783854  0.82983514  0.85265250  1
  In  In17  1  0.51220469  0.84610434  -0.00113339  1
  In  In18  1  0.14727590  0.66674155  0.17415829  1
  In  In19  1  -0.00584500  -0.00863061  0.65597872  1
  In  In20  1  0.17805538  0.17408402  0.32106988  1
  In  In21  1  0.48450001  0.83837861  0.30862888  1
  In  In22  1  0.17906425  0.82662980  0.65746620  1
  In  In23  1  0.47613402  0.49165746  0.00795504  1
  In  In24  1  0.16779179  0.34786752  0.83877877  1
  In  In25  1  0.66546337  0.83533738  0.82530807  1
  In  In26  1  0.66836910  0.50937631  0.82899524  1
  In  In27  1  0.65682071  0.68580250  -0.02196027  1
  In  In28  1  0.83822587  0.65520548  0.15885300  1
  In  In29  1  0.15615344  0.50016208  -0.00138206  1
  In  In30  1  0.51103738  0.65875529  0.51569596  1
  In  In31  1  0.16331268  0.50487368  0.67416599  1
  In  In32  1  0.79977996  0.00435406  0.83453920  1
  In  In33  1  0.47201712  0.33310408  0.17138533  1
  In  In34  1  0.82487426  0.35397633  0.83537128  1
  In  In35  1  0.32165508  0.49619324  0.47557278  1
  In  In36  1  0.66323861  0.16380094  0.17707873  1
  In  In37  1  0.01359736  0.49316369  0.47969773  1
  In  In38  1  0.84198635  0.82475163  0.65631936  1
  In  In39  1  0.00191795  0.33195600  0.68501241  1
  In  In40  1  0.82580788  0.33785806  0.51683124  1
  In  In41  1  0.49419960  0.50944611  0.35508542  1
  In  In42  1  0.15866344  0.17159902  0.01850728  1
  In  In43  1  0.82731653  -0.00233216  0.48560738  1
  In  In44  1  0.17546613  0.15339544  0.65654577  1
  In  In45  1  0.34625916  0.33161369  0.66434929  1
  In  In46  1  0.35919600  0.67863631  0.68373459  1
  In  In47  1  0.35169306  0.15288365  0.85636500  1
  In  In48  1  0.67762944  0.51183862  0.17444570  1
  In  In49  1  0.49299898  0.32291841  0.86496146  1
  In  In50  1  0.52866410  0.02968609  0.52303104  1
  In  In51  1  0.66778252  0.81358577  0.50327821  1
  In  In52  1  0.49654068  -0.01504449  0.83678415  1
  In  In53  1  0.17063024  0.66403115  0.84865592  1
  In  In54  1  0.63686795  0.16225649  0.82856324  1
  In  In55  1  0.50296188  0.66992479  0.18901659  1
  In  In56  1  0.84153421  0.83408587  -0.02436172  1
  In  In57  1  0.17340620  0.34049673  0.17902173  1
  In  In58  1  0.67110101  0.34433800  0.35393564  1
  In  In59  1  0.15420128  0.33173473  0.46205922  1
  In  In60  1  -0.03668968  0.64594702  0.66975247  1
  In  In61  1  0.33726002  0.83442162  0.50809338  1
  In  In62  1  0.33249644  0.01055837  0.30742085  1
  In  In63  1  0.33715282  0.65815761  -0.00960648  1
  In  In64  1  0.32401748  0.00923772  0.02992491  1
  In  In65  1  0.00965628  0.01200816  -0.00407016  1
  In  In66  1  0.51029387  0.47591282  0.68030938  1
  In  In67  1  0.49962613  0.33895244  0.50936457  1
  In  In68  1  0.69700228  0.65893925  0.65420734  1
  In  In69  1  0.81160236  0.83277661  0.34264481  1
  In  In70  1  0.15215702  0.81969530  0.31756136  1
  In  In71  1  0.85955565  0.18947857  0.31953010  1
  Te  Te72  1  0.06711213  0.09344091  0.10523450  1
  Te  Te73  1  0.08657642  0.07236539  0.41682622  1
  Te  Te74  1  0.07880026  0.07941832  0.75321587  1
  Te  Te75  1  0.07115273  0.42209633  0.09952449  1
  Te  Te76  1  0.10213956  0.43730564  0.37024183  1
  Te  Te77  1  0.06521333  0.44051472  0.77141129  1
  Te  Te78  1  0.07969204  0.73625159  0.06256316  1
  Te  Te79  1  0.09659753  0.73953523  0.42659159  1
  Te  Te80  1  0.07888171  0.74517261  0.73966560  1
  Te  Te81  1  0.44486260  0.09037334  0.04388530  1
  Te  Te82  1  0.42724886  0.06979239  0.41179869  1
  Te  Te83  1  0.42486876  0.08776429  0.74136294  1
  Te  Te84  1  0.37593176  0.42931164  0.10299075  1
  Te  Te85  1  0.40538796  0.39308972  0.40046596  1
  Te  Te86  1  0.40714335  0.41622861  0.77551887  1
  Te  Te87  1  0.42979157  0.74565458  0.08174720  1
  Te  Te88  1  0.41792666  0.73709121  0.41263035  1
  Te  Te89  1  0.41588883  0.79137300  0.75719098  1
  Te  Te90  1  0.74200228  0.08323025  0.08105543  1
  Te  Te91  1  0.75750501  0.10455656  0.40347368  1
  Te  Te92  1  0.72560329  0.08525468  0.73345710  1
  Te  Te93  1  0.77365137  0.41126483  0.10985153  1
  Te  Te94  1  0.76589492  0.43678398  0.42100834  1
  Te  Te95  1  0.76989683  0.45119160  0.72453939  1
  Te  Te96  1  0.74232362  0.75571319  0.08442598  1
  Te  Te97  1  0.77312983  0.72757869  0.44114201  1
  Te  Te98  1  0.76857079  0.74229703  0.76174446  1
  Te  Te99  1  0.06934575  0.25430378  0.25460099  1
  Te  Te100  1  0.07942137  0.24322249  0.57920543  1
  Te  Te101  1  0.07566644  0.27149414  0.93647020  1
  Te  Te102  1  0.07985098  0.56138175  0.25544787  1
  Te  Te103  1  0.07728770  0.58841680  0.58252270  1
  Te  Te104  1  0.06569065  0.58332436  0.91409048  1
  Te  Te105  1  0.09949735  0.93426278  0.23157647  1
  Te  Te106  1  0.06796686  0.88860638  0.57164291  1
  Te  Te107  1  0.11046275  0.90807017  0.94593304  1
  Te  Te108  1  0.38631331  0.22594006  0.23183474  1
  Te  Te109  1  0.42521444  0.23611122  0.58544077  1
  Te  Te110  1  0.38783764  0.26167164  0.94985337  1
  Te  Te111  1  0.40302816  0.56873849  0.24690543  1
  Te  Te112  1  0.41175857  0.55880929  0.58311673  1
  Te  Te113  1  0.42958877  0.58211883  0.90194134  1
  Te  Te114  1  0.40182540  0.91615762  0.20920424  1
  Te  Te115  1  0.42981388  0.92567554  0.58545039  1
  Te  Te116  1  0.39534464  0.91580362  0.92901909  1
  Te  Te117  1  0.75031331  0.26856196  0.24720603  1
  Te  Te118  1  0.73412961  0.23451055  0.57619794  1
  Te  Te119  1  0.74058059  0.24315947  0.91159789  1
  Te  Te120  1  0.77201568  0.57742894  0.26681669  1
  Te  Te121  1  0.72107018  0.57024907  0.53984864  1
  Te  Te122  1  0.75912190  0.58767987  0.92410807  1
  Te  Te123  1  0.75692319  0.93285556  0.24164478  1
  Te  Te124  1  0.74417867  0.91828169  0.58580911  1
  Te  Te125  1  0.72282978  0.92380312  0.93739371  1
  Te  Te126  1  0.26001115  0.25046553  0.09197645  1
  Te  Te127  1  0.26476691  0.24727406  0.41556374  1
  Te  Te128  1  0.24832663  0.24144950  0.75680144  1
  Te  Te129  1  0.24702136  0.58549918  0.08956932  1
  Te  Te130  1  0.21759793  0.58229370  0.41577216  1
  Te  Te131  1  0.26454979  0.58273716  0.75733296  1
  Te  Te132  1  0.27065947  0.90786730  0.12258531  1
  Te  Te133  1  0.25281089  0.91391287  0.40672337  1
  Te  Te134  1  0.28626582  0.87552092  0.76084511  1
  Te  Te135  1  0.56508611  0.24362553  0.08784821  1
  Te  Te136  1  0.58830455  0.24120509  0.42769462  1
  Te  Te137  1  0.55815735  0.26053213  0.74139973  1
  Te  Te138  1  0.58430530  0.58732578  0.07779720  1
  Te  Te139  1  0.60391664  0.58633601  0.42251225  1
  Te  Te140  1  0.57988180  0.59550441  0.74115180  1
  Te  Te141  1  0.57531420  0.94191006  0.09239033  1
  Te  Te142  1  0.57667219  0.90805656  0.41802670  1
  Te  Te143  1  0.58920920  0.92610568  0.73781238  1
  Te  Te144  1  0.93825654  0.26319150  0.09811277  1
  Te  Te145  1  0.92935309  0.28942236  0.41130793  1
  Te  Te146  1  0.88898348  0.24608144  0.74101141  1
  Te  Te147  1  0.94487176  0.57646274  0.09598874  1
  Te  Te148  1  0.91232131  0.56604288  0.39807097  1
  Te  Te149  1  0.87746097  0.56253505  0.75268235  1
  Te  Te150  1  0.91188139  0.92384185  0.07579126  1
  Te  Te151  1  0.92653351  0.90283727  0.41849170  1
  Te  Te152  1  0.91592042  0.91819266  0.76578616  1
  Te  Te153  1  0.26081561  0.10435385  0.21620460  1
  Te  Te154  1  0.27365059  0.09483653  0.55683740  1
  Te  Te155  1  0.22966526  0.07804238  0.91019365  1
  Te  Te156  1  0.28160564  0.42952358  0.22848796  1
  Te  Te157  1  0.23668286  0.40468889  0.58230988  1
  Te  Te158  1  0.26003135  0.42462840  0.92310918  1
  Te  Te159  1  0.26224291  0.76477977  0.22522322  1
  Te  Te160  1  0.25793140  0.72393266  0.57680663  1
  Te  Te161  1  0.24815181  0.76031832  0.92906824  1
  Te  Te162  1  0.56136845  0.07055786  0.24495382  1
  Te  Te163  1  0.63097362  0.10553945  0.59415183  1
  Te  Te164  1  0.55537606  0.08859016  0.93265066  1
  Te  Te165  1  0.57601872  0.41918163  0.24840235  1
  Te  Te166  1  0.60580404  0.42790993  0.57286676  1
  Te  Te167  1  0.60178424  0.41802406  0.93443456  1
  Te  Te168  1  0.60366065  0.74042996  0.27776659  1
  Te  Te169  1  0.57727826  0.75531102  0.61089679  1
  Te  Te170  1  0.55433124  0.74767740  0.88626508  1
  Te  Te171  1  0.91584766  0.08954703  0.22537160  1
  Te  Te172  1  0.90283607  0.09031903  0.58762627  1
  Te  Te173  1  0.90838814  0.08911721  0.90611965  1
  Te  Te174  1  0.96442057  0.36523754  0.20436538  1
  Te  Te175  1  0.92867458  0.42496667  0.58957978  1
  Te  Te176  1  0.93010704  0.40019332  0.92581014  1
  Te  Te177  1  0.91699488  0.76637892  0.24521226  1
  Te  Te178  1  0.90161413  0.72751107  0.56098307  1
  Te  Te179  1  0.93032989  0.73142647  0.91997193  1
