# generated using pymatgen
data_In2Te3
_symmetry_space_group_name_H-M   'P 1'
_cell_length_a   18.98185424
_cell_length_b   18.98535424
_cell_length_c   18.99296277
_cell_angle_alpha   90.22447002
_cell_angle_beta   90.12327535
_cell_angle_gamma   90.05411477
_symmetry_Int_Tables_number   1
_chemical_formula_structural   In2Te3
_chemical_formula_sum   'In72 Te108'
_cell_volume   6844.55977414
_cell_formula_units_Z   36
loop_
 _symmetry_equiv_pos_site_id
 _symmetry_equiv_pos_as_xyz
  1  'x, y, z'
loop_
 _atom_site_type_symbol
 _atom_site_label
 _atom_site_symmetry_multiplicity
 _atom_site_fract_x
 _atom_site_fract_y
 _atom_site_fract_z
 _atom_site_occupancy
  In  In0  1  0.00475273  0.17819069  0.50669990  1
  In  In1  1  0.64792240  0.16132888  0.16155732  1
  In  In2  1  0.69486535  0.01378924  0.31040322  1
  In  In3  1  0.18930357  0.34141168  0.83357993  1
  In  In4  1  0.50579409  0.01174489  0.50835074  1
  In  In5  1  0.64594190  0.66250864  0.32296748  1
  In  In6  1  0.36048885  0.14344967  0.13408337  1
  In  In7  1  0.16180327  0.51255016  0.32898228  1
  In  In8  1  0.50727885  0.66777859  0.50070347  1
  In  In9  1  0.86229466  0.50715957  0.32875335  1
  In  In10  1  0.80568844  0.16159131  -0.00006039  1
  In  In11  1  0.64208698  0.00373906  0.67653450  1
  In  In12  1  0.32622668  0.50422686  0.84322001  1
  In  In13  1  0.67001576  0.15853675  0.82009390  1
  In  In14  1  0.28489116  0.92573564  0.88157072  1
  In  In15  1  0.49418987  0.82085058  0.29477206  1
  In  In16  1  0.03536186  0.15428954  0.83989301  1
  In  In17  1  0.30227983  0.69159079  0.31276426  1
  In  In18  1  0.67390943  0.65950509  0.00259498  1
  In  In19  1  0.02041266  0.80894900  0.47508045  1
  In  In20  1  0.48650664  0.65088588  0.82264206  1
  In  In21  1  0.66673340  0.50553939  0.16133198  1
  In  In22  1  0.31473862  0.33904191  0.66320799  1
  In  In23  1  -0.00246720  0.49588280  0.50511153  1
  In  In24  1  0.15005995  0.33184663  0.51936239  1
  In  In25  1  0.31846294  -0.00360063  0.34433403  1
  In  In26  1  0.32687668  0.34800554  0.00187776  1
  In  In27  1  0.32641989  0.13226439  0.86280227  1
  In  In28  1  0.88054856  0.69911401  0.85136177  1
  In  In29  1  0.32035697  0.87358066  0.10730804  1
  In  In30  1  0.86052883  0.01591585  0.41317576  1
  In  In31  1  0.84028773  0.34245072  0.50820774  1
  In  In32  1  0.64191793  0.00397168  -0.00740197  1
  In  In33  1  0.50374335  0.83008937  0.65754508  1
  In  In34  1  0.31248554  0.67892316  0.01164750  1
  In  In35  1  0.34589722  0.51654884  0.46700184  1
  In  In36  1  0.81572730  0.84949478  0.67788438  1
  In  In37  1  0.49857168  0.31333117  0.16105087  1
  In  In38  1  0.17276000  0.00060864  0.51334755  1
  In  In39  1  0.84796915  0.50838440  0.67908155  1
  In  In40  1  0.01874497  0.02711652  0.66088393  1
  In  In41  1  -0.00632673  0.68960107  0.67815128  1
  In  In42  1  0.13475262  0.70036189  0.86332035  1
  In  In43  1  0.84431660  0.31435147  0.82837904  1
  In  In44  1  0.00087277  0.50350680  0.16982091  1
  In  In45  1  0.85036502  -0.01534670  0.84724134  1
  In  In46  1  0.81774923  0.48776076  0.00715047  1
  In  In47  1  0.32890987  0.67766551  0.64418346  1
  In  In48  1  0.48374824  0.49886263  0.33096521  1
  In  In49  1  0.68659653  0.34090147  0.35096415  1
  In  In50  1  0.52191903  0.17472883  0.32846493  1
  In  In51  1  0.53918683  0.46067685  0.65090928  1
  In  In52  1  0.15031814  0.50285542  0.68599457  1
  In  In53  1  0.46908117  0.16607494  0.69525058  1
  In  In54  1  0.00947468  0.06186645  0.20807120  1
  In  In55  1  0.32875785  0.51823153  0.17318059  1
  In  In56  1  0.17790934  0.16867587  0.32948712  1
  In  In57  1  0.30568089  0.16815560  0.51371187  1
  In  In58  1  0.66184481  0.48887356  0.83557377  1
  In  In59  1  0.83845071  0.17048243  0.63903207  1
  In  In60  1  0.67306899  0.81873462  0.83438502  1
  In  In61  1  0.65984932  0.82264338  0.47308445  1
  In  In62  1  0.00305620  0.31647701  0.00814186  1
  In  In63  1  0.82560027  0.34180109  0.17272769  1
  In  In64  1  0.84328029  0.69280617  0.14659859  1
  In  In65  1  0.50606035  0.34067936  0.84677283  1
  In  In66  1  0.16420615  0.31837878  0.18795144  1
  In  In67  1  0.85117805  0.83063905  0.31136920  1
  In  In68  1  0.31083060  0.83464403  0.49822994  1
  In  In69  1  0.84747421  0.64188575  0.50316135  1
  In  In70  1  0.01658054  0.83031358  0.13987872  1
  In  In71  1  0.02462536  -0.02078905  0.00620644  1
  Te  Te72  1  0.08842318  0.08890424  0.08612593  1
  Te  Te73  1  0.08991210  0.08651742  0.42076267  1
  Te  Te74  1  0.11874194  0.05011892  0.77147603  1
  Te  Te75  1  0.09037679  0.40886087  0.09126254  1
  Te  Te76  1  0.08094831  0.41184347  0.41053877  1
  Te  Te77  1  0.07745536  0.41052383  0.77043627  1
  Te  Te78  1  0.07901213  0.74660840  0.02697158  1
  Te  Te79  1  0.12125950  0.72508317  0.41406774  1
  Te  Te80  1  0.08050180  0.78278294  0.75442093  1
  Te  Te81  1  0.43068119  0.03943403  0.05147425  1
  Te  Te82  1  0.40917111  0.09384893  0.42068891  1
  Te  Te83  1  0.41902007  0.05473312  0.77644512  1
  Te  Te84  1  0.41947608  0.42420078  0.09412836  1
  Te  Te85  1  0.42208585  0.40220114  0.42089140  1
  Te  Te86  1  0.41261784  0.42288814  0.74792187  1
  Te  Te87  1  0.40838177  0.75638383  0.09325296  1
  Te  Te88  1  0.41237144  0.74788684  0.41505066  1
  Te  Te89  1  0.40734100  0.75708062  0.74851648  1
  Te  Te90  1  0.74218991  0.06353874  0.09311999  1
  Te  Te91  1  0.72886399  0.07903139  0.43493267  1
  Te  Te92  1  0.76860731  0.07056363  0.74317231  1
  Te  Te93  1  0.72200142  0.39292859  0.07570547  1
  Te  Te94  1  0.76495357  0.44713449  0.42578292  1
  Te  Te95  1  0.75599403  0.40815305  0.74867062  1
  Te  Te96  1  0.75854527  0.76821545  0.05625201  1
  Te  Te97  1  0.76203389  0.73372475  0.40336711  1
  Te  Te98  1  0.76581025  0.72998421  0.75453419  1
  Te  Te99  1  0.06768989  0.21528386  0.23915649  1
  Te  Te100  1  0.09383245  0.23284028  0.60946336  1
  Te  Te101  1  0.11238288  0.24735354  0.92931286  1
  Te  Te102  1  0.10746857  0.59532787  0.21894502  1
  Te  Te103  1  0.07494065  0.59406162  0.59211999  1
  Te  Te104  1  0.06226209  0.61437785  0.95485129  1
  Te  Te105  1  0.13632466  0.89387251  0.20490099  1
  Te  Te106  1  0.07291614  0.91025999  0.58020688  1
  Te  Te107  1  0.06023200  0.88515367  0.89637189  1
  Te  Te108  1  0.40700315  0.23534612  0.25113651  1
  Te  Te109  1  0.41019206  0.25384895  0.58353627  1
  Te  Te110  1  0.40878358  0.25134307  0.91925028  1
  Te  Te111  1  0.41860089  0.61093364  0.25350143  1
  Te  Te112  1  0.42821323  0.57352583  0.58973031  1
  Te  Te113  1  0.41213349  0.58483217  0.93579163  1
  Te  Te114  1  0.39434875  0.91832991  0.23947439  1
  Te  Te115  1  0.41027064  0.91994885  0.58090403  1
  Te  Te116  1  0.41190701  0.91019849  0.96625999  1
  Te  Te117  1  0.74386139  0.24222545  0.25201578  1
  Te  Te118  1  0.73965412  0.27062082  0.59301486  1
  Te  Te119  1  0.73193924  0.26094613  0.91442877  1
  Te  Te120  1  0.76949355  0.58702488  0.23916552  1
  Te  Te121  1  0.75280362  0.57389539  0.58947643  1
  Te  Te122  1  0.76421870  0.58444177  0.90213141  1
  Te  Te123  1  0.73484581  0.88944272  0.24413210  1
  Te  Te124  1  0.72059019  0.91579913  0.58108541  1
  Te  Te125  1  0.75016521  0.90963420  0.92859658  1
  Te  Te126  1  0.25705832  0.24661680  0.08890440  1
  Te  Te127  1  0.24691906  0.26987448  0.41917729  1
  Te  Te128  1  0.26530127  0.23469343  0.75959174  1
  Te  Te129  1  0.22652156  0.59355675  0.09859575  1
  Te  Te130  1  0.23215316  0.61494371  0.42968473  1
  Te  Te131  1  0.24938715  0.59657653  0.75270666  1
  Te  Te132  1  0.18795271  0.94930730  0.07015855  1
  Te  Te133  1  0.21551017  0.90311453  0.40161689  1
  Te  Te134  1  0.24406946  0.96041770  0.74299866  1
  Te  Te135  1  0.56048333  0.22445790  0.06359573  1
  Te  Te136  1  0.58415198  0.26538746  0.42713319  1
  Te  Te137  1  0.58032363  0.25763848  0.74641094  1
  Te  Te138  1  0.57611382  0.59123542  0.08772316  1
  Te  Te139  1  0.58829501  0.56652222  0.42299875  1
  Te  Te140  1  0.58799911  0.57680955  0.73637617  1
  Te  Te141  1  0.54004640  0.92893595  0.06947474  1
  Te  Te142  1  0.55452552  0.90837056  0.40748116  1
  Te  Te143  1  0.57059143  0.90965673  0.76989819  1
  Te  Te144  1  0.90165826  0.23950973  0.08963188  1
  Te  Te145  1  0.91412014  0.25183574  0.42073039  1
  Te  Te146  1  0.93273121  0.22277677  0.74693331  1
  Te  Te147  1  0.91760123  0.58337302  0.07044051  1
  Te  Te148  1  0.95384658  0.60105899  0.40316733  1
  Te  Te149  1  0.94265180  0.58419907  0.77379934  1
  Te  Te150  1  0.93069200  0.95262208  0.12157421  1
  Te  Te151  1  0.96554368  0.90706173  0.37439670  1
  Te  Te152  1  0.93207715  0.92264886  0.73866713  1
  Te  Te153  1  0.26056542  0.08422822  0.23552534  1
  Te  Te154  1  0.26351004  0.06594915  0.61174909  1
  Te  Te155  1  0.24057628  0.05095364  0.95400720  1
  Te  Te156  1  0.25707226  0.41712940  0.26037498  1
  Te  Te157  1  0.24631065  0.44304304  0.57519297  1
  Te  Te158  1  0.22798819  0.44472264  0.93977747  1
  Te  Te159  1  0.24500101  0.77886153  0.20650178  1
  Te  Te160  1  0.22564537  0.76834312  0.59645933  1
  Te  Te161  1  0.25709604  0.77464823  0.90923700  1
  Te  Te162  1  0.56732049  0.06009657  0.24263582  1
  Te  Te163  1  0.57699739  0.11165377  0.59538892  1
  Te  Te164  1  0.56826640  0.08564461  0.89554416  1
  Te  Te165  1  0.58570919  0.41101951  0.25216095  1
  Te  Te166  1  0.61484665  0.37475445  0.56404450  1
  Te  Te167  1  0.57060587  0.43633937  0.93602911  1
  Te  Te168  1  0.60469038  0.75765969  0.22080020  1
  Te  Te169  1  0.60548862  0.74043638  0.59023406  1
  Te  Te170  1  0.57346424  0.73797847  0.91290030  1
  Te  Te171  1  0.88583892  0.08487827  0.28477959  1
  Te  Te172  1  0.90292393  0.05662742  0.56121545  1
  Te  Te173  1  0.92198015  0.09295348  0.92647984  1
  Te  Te174  1  0.93740532  0.39696977  0.25849442  1
  Te  Te175  1  0.93582479  0.40577920  0.60843677  1
  Te  Te176  1  0.91749478  0.40856971  0.92311582  1
  Te  Te177  1  0.95049328  0.73865392  0.24246229  1
  Te  Te178  1  0.89987732  0.76667452  0.57404291  1
  Te  Te179  1  0.94636769  0.79669757  0.94361034  1
