# generated using pymatgen
data_In2Te3
_symmetry_space_group_name_H-M   'P 1'
_cell_length_a   18.84757554
_cell_length_b   18.84383350
_cell_length_c   18.85270604
_cell_angle_alpha   89.97424674
_cell_angle_beta   89.93074907
_cell_angle_gamma   89.98402707
_symmetry_Int_Tables_number   1
_chemical_formula_structural   In2Te3
_chemical_formula_sum   'In72 Te108'
_cell_volume   6695.73210067
_cell_formula_units_Z   36
loop_
 _symmetry_equiv_pos_site_id
 _symmetry_equiv_pos_as_xyz
  1  'x, y, z'
loop_
 _atom_site_type_symbol
 _atom_site_label
 _atom_site_symmetry_multiplicity
 _atom_site_fract_x
 _atom_site_fract_y
 _atom_site_fract_z
 _atom_site_occupancy
  In  In0  1  0.16718077  0.51312616  -0.00295850  1
  In  In1  1  0.00389507  0.33020822  0.33072787  1
  In  In2  1  0.29710800  0.81650240  0.85075426  1
  In  In3  1  0.66838531  0.83706770  0.85963615  1
  In  In4  1  0.00644166  0.66614741  0.67509108  1
  In  In5  1  0.02041303  0.51945367  0.82412941  1
  In  In6  1  0.19489188  0.81353181  0.65083352  1
  In  In7  1  0.30823331  0.53768048  0.83296413  1
  In  In8  1  0.67072273  0.00089322  0.66105848  1
  In  In9  1  -0.02113181  0.83351941  0.50269408  1
  In  In10  1  0.01896606  0.78943741  0.14736965  1
  In  In11  1  0.85262738  0.14928073  0.01632489  1
  In  In12  1  0.49338430  0.51331203  0.64605661  1
  In  In13  1  0.31555662  -0.01225598  -0.00436742  1
  In  In14  1  0.47693343  0.66867549  0.17006450  1
  In  In15  1  0.18376076  -0.00188695  0.16562870  1
  In  In16  1  0.67734663  0.50685955  0.81397649  1
  In  In17  1  0.81470321  -0.00752821  0.17153309  1
  In  In18  1  0.48538010  -0.00853076  0.15330031  1
  In  In19  1  0.66347012  0.31389354  0.01052580  1
  In  In20  1  0.49045432  0.16087984  0.33496002  1
  In  In21  1  -0.00170015  -0.00711227  0.36457543  1
  In  In22  1  0.85090515  0.69026173  0.83825684  1
  In  In23  1  0.83968980  0.31915155  0.18404122  1
  In  In24  1  0.32784844  0.33301867  0.34461242  1
  In  In25  1  -0.00236594  0.15667162  0.50202989  1
  In  In26  1  0.66061675  0.66177117  0.32563400  1
  In  In27  1  0.83626658  0.83888068  0.00036492  1
  In  In28  1  0.20106477  0.31280565  0.12718278  1
  In  In29  1  0.48116546  0.50362254  -0.02851774  1
  In  In30  1  0.15182618  0.34313564  0.84435204  1
  In  In31  1  0.32391166  0.35159835  0.67552858  1
  In  In32  1  0.67932539  0.50278757  0.18051313  1
  In  In33  1  0.49885707  0.83766286  0.00955642  1
  In  In34  1  0.85864270  0.85902678  0.69843549  1
  In  In35  1  0.33098799  0.51416594  0.49784232  1
  In  In36  1  0.16578525  0.50744029  0.35085832  1
  In  In37  1  0.51731593  -0.02985514  0.52081244  1
  In  In38  1  0.15521069  -0.02154257  0.81867305  1
  In  In39  1  0.86460959  0.51937219  0.00957402  1
  In  In40  1  0.32553816  -0.01129963  0.32053678  1
  In  In41  1  0.02722883  -0.00864172  -0.00285821  1
  In  In42  1  0.65602924  0.16442063  0.84126867  1
  In  In43  1  0.16841052  0.82454054  0.31543654  1
  In  In44  1  0.83673406  0.51463290  0.34813789  1
  In  In45  1  0.66735172  0.48569339  0.48682967  1
  In  In46  1  0.67979083  0.15761875  0.50553309  1
  In  In47  1  0.66554114  0.64347774  0.66186919  1
  In  In48  1  0.01094704  0.17112505  0.84258802  1
  In  In49  1  0.67450493  0.82273009  0.49148789  1
  In  In50  1  0.86053895  0.46923331  0.62533098  1
  In  In51  1  0.46733448  0.82104903  0.68103527  1
  In  In52  1  0.14704300  0.00370573  0.50540440  1
  In  In53  1  0.66835268  -0.00716503  0.34284659  1
  In  In54  1  0.50609373  0.33850764  0.16606078  1
  In  In55  1  0.49288849  0.32062605  0.50188730  1
  In  In56  1  0.81043621  0.16510033  0.32980213  1
  In  In57  1  0.48893278  0.30538553  0.83302612  1
  In  In58  1  0.46128433  0.69705575  0.48191509  1
  In  In59  1  0.14940405  0.16321721  0.66977260  1
  In  In60  1  0.51335590  0.51362313  0.29621651  1
  In  In61  1  0.32134686  0.17335338  0.48848270  1
  In  In62  1  0.34660985  0.14546028  0.84320028  1
  In  In63  1  0.00334569  0.66081990  0.33036907  1
  In  In64  1  0.01881878  0.53589096  0.15666413  1
  In  In65  1  0.84828205  0.35328021  0.82862505  1
  In  In66  1  0.33772497  0.51583089  0.16741558  1
  In  In67  1  0.66131880  0.67799252  0.02042954  1
  In  In68  1  0.50621987  0.02130890  0.83752987  1
  In  In69  1  0.00178470  0.17483277  0.16394744  1
  In  In70  1  0.84218713  0.14966478  0.65410575  1
  In  In71  1  0.17845885  0.51302869  0.65390369  1
  Te  Te72  1  0.10093693  0.09543224  0.07863812  1
  Te  Te73  1  0.09766659  0.10164457  0.39868103  1
  Te  Te74  1  0.05357312  0.05890623  0.73322175  1
  Te  Te75  1  0.09092292  0.42041260  0.09092412  1
  Te  Te76  1  0.05562366  0.43447010  0.42674131  1
  Te  Te77  1  0.08305138  0.41592196  0.73286523  1
  Te  Te78  1  0.15176598  0.75602321  0.08876276  1
  Te  Te79  1  0.08306070  0.75776649  0.42100855  1
  Te  Te80  1  0.09050263  0.76489807  0.74510614  1
  Te  Te81  1  0.38005181  0.08207949  0.09336308  1
  Te  Te82  1  0.41747336  0.06661221  0.43049175  1
  Te  Te83  1  0.41851710  0.07943372  0.73463344  1
  Te  Te84  1  0.41018155  0.41767593  0.07760067  1
  Te  Te85  1  0.42748790  0.42729884  0.41056467  1
  Te  Te86  1  0.41775444  0.43149904  0.76087565  1
  Te  Te87  1  0.39805464  0.75340953  0.07712112  1
  Te  Te88  1  0.39779791  0.77505252  0.37251337  1
  Te  Te89  1  0.39104926  0.73317222  0.77267555  1
  Te  Te90  1  0.74124398  0.09728825  0.09667320  1
  Te  Te91  1  0.77087915  0.05988600  0.43338243  1
  Te  Te92  1  0.75425909  0.07748744  0.76038519  1
  Te  Te93  1  0.76010352  0.42591981  0.07625134  1
  Te  Te94  1  0.75697731  0.40400456  0.40331892  1
  Te  Te95  1  0.75256695  0.41045133  0.72373784  1
  Te  Te96  1  0.75178808  0.76382351  0.09576808  1
  Te  Te97  1  0.75542808  0.72207807  0.42145221  1
  Te  Te98  1  0.74005464  0.75147813  0.74668271  1
  Te  Te99  1  0.10301708  0.25932625  0.23870049  1
  Te  Te100  1  0.07435385  0.25745517  0.58213262  1
  Te  Te101  1  0.08759699  0.25083682  0.93878383  1
  Te  Te102  1  0.11975298  0.60741835  0.24519010  1
  Te  Te103  1  0.07647521  0.58470929  0.57409244  1
  Te  Te104  1  0.08354132  0.61177050  0.92085148  1
  Te  Te105  1  0.07579206  0.92684996  0.24896627  1
  Te  Te106  1  0.07933608  0.90073173  0.59439902  1
  Te  Te107  1  0.10012119  0.88374390  0.92268496  1
  Te  Te108  1  0.40630023  0.25025341  0.24541774  1
  Te  Te109  1  0.40473635  0.24672315  0.59792333  1
  Te  Te110  1  0.40842964  0.24224224  0.93932477  1
  Te  Te111  1  0.39029334  0.59865566  0.28359696  1
  Te  Te112  1  0.38515802  0.61604332  0.60130403  1
  Te  Te113  1  0.38850634  0.61169042  0.93272056  1
  Te  Te114  1  0.41013282  0.89239578  0.24036152  1
  Te  Te115  1  0.40124918  0.89645217  0.57338326  1
  Te  Te116  1  0.41284754  0.91461186  0.90147469  1
  Te  Te117  1  0.72880202  0.23218356  0.22527548  1
  Te  Te118  1  0.75755241  0.25034085  0.58789949  1
  Te  Te119  1  0.77098677  0.25066885  0.91578485  1
  Te  Te120  1  0.77666652  0.60135669  0.23625539  1
  Te  Te121  1  0.76185456  0.57393891  0.56685838  1
  Te  Te122  1  0.75413708  0.59392029  0.91679341  1
  Te  Te123  1  0.74126363  0.89736999  0.25634745  1
  Te  Te124  1  0.76119294  0.90566467  0.58627063  1
  Te  Te125  1  0.75188983  0.93564193  0.92615598  1
  Te  Te126  1  0.29234892  0.21769060  0.06419928  1
  Te  Te127  1  0.22623530  0.26940429  0.42936371  1
  Te  Te128  1  0.24467338  0.24874782  0.75866353  1
  Te  Te129  1  0.24933857  0.60065090  0.08672408  1
  Te  Te130  1  0.22661196  0.60952773  0.44569873  1
  Te  Te131  1  0.21092707  0.61647214  0.75538551  1
  Te  Te132  1  0.24821794  0.88794487  0.08594616  1
  Te  Te133  1  0.23745568  0.91487378  0.42274782  1
  Te  Te134  1  0.27039893  0.92012153  0.74118425  1
  Te  Te135  1  0.56347520  0.23210400  0.08068346  1
  Te  Te136  1  0.59045459  0.24377593  0.41420903  1
  Te  Te137  1  0.58784102  0.25036584  0.74273137  1
  Te  Te138  1  0.57357587  0.56448186  0.08481993  1
  Te  Te139  1  0.56172800  0.58658438  0.42646224  1
  Te  Te140  1  0.56041457  0.58963564  0.76017934  1
  Te  Te141  1  0.59367177  0.92597536  0.07675249  1
  Te  Te142  1  0.57028051  0.88990977  0.40333624  1
  Te  Te143  1  0.58169379  0.90906867  0.74782772  1
  Te  Te144  1  0.92750871  0.27100471  0.07074964  1
  Te  Te145  1  0.90661403  0.24779329  0.41360166  1
  Te  Te146  1  0.92374292  0.24903587  0.74698281  1
  Te  Te147  1  0.93563608  0.62993712  0.07732991  1
  Te  Te148  1  0.93042536  0.58635539  0.43559419  1
  Te  Te149  1  0.89623843  0.57173571  0.74884857  1
  Te  Te150  1  0.93047670  0.92276557  0.09621510  1
  Te  Te151  1  0.89656390  0.88711378  0.39008492  1
  Te  Te152  1  0.94128652  0.95266366  0.77355884  1
  Te  Te153  1  0.24671940  0.09512109  0.25798508  1
  Te  Te154  1  0.24907650  0.08185340  0.58859359  1
  Te  Te155  1  0.22816527  0.07780619  0.90946876  1
  Te  Te156  1  0.24440689  0.41673910  0.24523794  1
  Te  Te157  1  0.24441846  0.40504074  0.55884277  1
  Te  Te158  1  0.26059692  0.41944341  0.91729594  1
  Te  Te159  1  0.29513667  0.76587582  0.26176657  1
  Te  Te160  1  0.26717776  0.72150600  0.55944842  1
  Te  Te161  1  0.19371090  0.74783590  0.93330744  1
  Te  Te162  1  0.57647387  0.07101616  0.24906988  1
  Te  Te163  1  0.57186391  0.09395397  0.59224891  1
  Te  Te164  1  0.57631178  0.09351369  0.94451102  1
  Te  Te165  1  0.60496204  0.39942841  0.26730123  1
  Te  Te166  1  0.58387161  0.40555522  0.59053493  1
  Te  Te167  1  0.59521552  0.41134374  0.91066155  1
  Te  Te168  1  0.57887690  0.74841161  0.23957413  1
  Te  Te169  1  0.57437923  0.74275271  0.58737769  1
  Te  Te170  1  0.56982425  0.73617069  0.91430967  1
  Te  Te171  1  0.91913726  0.08670548  0.25678713  1
  Te  Te172  1  0.91603677  0.05347653  0.56868679  1
  Te  Te173  1  0.92223374  0.06326335  0.91094785  1
  Te  Te174  1  0.92723027  0.43307307  0.23837195  1
  Te  Te175  1  0.96145536  0.38950923  0.55510297  1
  Te  Te176  1  0.94576123  0.42494866  0.92084093  1
  Te  Te177  1  0.92916925  0.77180732  0.26309968  1
  Te  Te178  1  0.90073446  0.74815682  0.60164952  1
  Te  Te179  1  0.93926792  0.78026625  0.91127871  1
