# generated using pymatgen
data_In2Te3
_symmetry_space_group_name_H-M   'P 1'
_cell_length_a   18.85192774
_cell_length_b   18.87849145
_cell_length_c   18.86253916
_cell_angle_alpha   89.96980282
_cell_angle_beta   90.02480159
_cell_angle_gamma   89.97623849
_symmetry_Int_Tables_number   1
_chemical_formula_structural   In2Te3
_chemical_formula_sum   'In72 Te108'
_cell_volume   6713.09928151
_cell_formula_units_Z   36
loop_
 _symmetry_equiv_pos_site_id
 _symmetry_equiv_pos_as_xyz
  1  'x, y, z'
loop_
 _atom_site_type_symbol
 _atom_site_label
 _atom_site_symmetry_multiplicity
 _atom_site_fract_x
 _atom_site_fract_y
 _atom_site_fract_z
 _atom_site_occupancy
  In  In0  1  0.50928821  0.17189630  -0.00308442  1
  In  In1  1  -0.01538450  0.02120076  0.67355245  1
  In  In2  1  0.64448377  0.19117723  0.82501547  1
  In  In3  1  0.03519512  0.17414039  0.82784402  1
  In  In4  1  0.64354949  0.84873478  0.17962916  1
  In  In5  1  0.84787757  0.81325655  0.00017955  1
  In  In6  1  0.66350983  0.00330834  0.65444538  1
  In  In7  1  -0.01988260  0.66188634  0.68006657  1
  In  In8  1  0.02602492  0.35096593  0.68136655  1
  In  In9  1  0.17627850  0.01760648  0.50639724  1
  In  In10  1  0.44525807  0.83896872  0.33293902  1
  In  In11  1  0.01456518  -0.01668508  0.31959949  1
  In  In12  1  0.18555485  -0.01041206  0.85739806  1
  In  In13  1  0.17286557  0.18085026  -0.01697949  1
  In  In14  1  0.50480374  0.51215828  0.67023742  1
  In  In15  1  0.52509887  0.00280350  0.50774607  1
  In  In16  1  0.01458111  0.49100813  0.48825379  1
  In  In17  1  0.82613745  0.16014300  0.33563356  1
  In  In18  1  0.32266553  0.66449616  0.65455313  1
  In  In19  1  0.18694607  0.19098596  0.65221091  1
  In  In20  1  0.65926137  0.17085510  0.49502554  1
  In  In21  1  0.49609077  0.34911868  0.50339494  1
  In  In22  1  0.82922433  0.64493015  0.16783300  1
  In  In23  1  0.51004364  0.01666643  0.19819386  1
  In  In24  1  0.83078918  0.17276792  0.02099494  1
  In  In25  1  0.49290995  0.04035786  0.80952647  1
  In  In26  1  0.50134322  0.64585725  0.85136565  1
  In  In27  1  0.83288451  0.17122789  0.66297195  1
  In  In28  1  0.34109818  0.00601867  0.32956724  1
  In  In29  1  0.67314949  0.66026327  0.31904671  1
  In  In30  1  0.49169945  0.82967001  0.01269078  1
  In  In31  1  0.31351731  0.50860911  0.12734714  1
  In  In32  1  0.33991515  0.52504152  0.84612800  1
  In  In33  1  0.18625356  -0.00348756  0.17227112  1
  In  In34  1  0.67296078  0.64998532  -0.00508170  1
  In  In35  1  0.84362553  0.36893566  0.86677063  1
  In  In36  1  0.03104454  0.37463398  0.34018342  1
  In  In37  1  0.50129496  0.83326047  0.68036143  1
  In  In38  1  -0.00621628  -0.01553652  0.01809873  1
  In  In39  1  0.33343933  0.18493811  0.49430514  1
  In  In40  1  0.84745995  0.51166460  0.32183380  1
  In  In41  1  0.83115421  0.30900655  0.50192466  1
  In  In42  1  0.81852099  0.37135708  0.12649743  1
  In  In43  1  0.36582472  0.32533471  0.00560449  1
  In  In44  1  0.31314586  0.81686896  0.86834235  1
  In  In45  1  0.13258602  0.83728438  0.68326090  1
  In  In46  1  0.48060173  0.68049516  0.49817369  1
  In  In47  1  0.68356670  0.52202911  0.50609076  1
  In  In48  1  -0.00907832  0.17841889  0.16635517  1
  In  In49  1  0.34489333  -0.00048570  0.01687877  1
  In  In50  1  0.01376129  0.63938090  0.33707421  1
  In  In51  1  0.83312102  -0.00385111  0.86018431  1
  In  In52  1  0.02182067  0.54343898  0.14139964  1
  In  In53  1  0.48590866  0.66801082  0.14762654  1
  In  In54  1  0.70794225  0.80422898  0.81358748  1
  In  In55  1  0.48225518  0.48468611  0.32278679  1
  In  In56  1  0.66592952  0.15534763  0.15421013  1
  In  In57  1  0.66257304  0.33921522  0.31329620  1
  In  In58  1  0.01033895  0.16492950  0.51493281  1
  In  In59  1  0.15898892  0.66988701  0.49528637  1
  In  In60  1  0.15522310  0.34276938  0.15645655  1
  In  In61  1  0.33784437  0.83507668  0.47351273  1
  In  In62  1  0.83455727  0.50101192  0.68762730  1
  In  In63  1  0.16112532  0.37558576  0.84311488  1
  In  In64  1  0.65967668  0.82793821  0.50171034  1
  In  In65  1  -0.00033888  0.80478124  0.48892110  1
  In  In66  1  -0.02256087  0.80342725  0.83265432  1
  In  In67  1  0.31812107  0.36866987  0.67182010  1
  In  In68  1  0.65608923  0.47806087  0.86006309  1
  In  In69  1  0.15259484  0.77849192  0.01250685  1
  In  In70  1  0.34037724  0.30491802  0.31182573  1
  In  In71  1  0.82298677  0.82895093  0.32410111  1
  Te  Te72  1  0.08963460  0.09056256  0.07841507  1
  Te  Te73  1  0.08685496  0.08900874  0.40639963  1
  Te  Te74  1  0.11281072  0.07535862  0.74096569  1
  Te  Te75  1  0.10129451  0.44298486  0.05865612  1
  Te  Te76  1  0.13953603  0.44000531  0.42175736  1
  Te  Te77  1  0.06823191  0.46631596  0.76594832  1
  Te  Te78  1  0.08630174  0.68346763  0.10716003  1
  Te  Te79  1  0.10106711  0.75888686  0.38654146  1
  Te  Te80  1  0.09252772  0.72208116  0.77054960  1
  Te  Te81  1  0.41685201  0.10889586  0.10298462  1
  Te  Te82  1  0.42833417  0.08703156  0.42400610  1
  Te  Te83  1  0.38142225  0.07541632  0.72568354  1
  Te  Te84  1  0.42409128  0.40493778  0.11694340  1
  Te  Te85  1  0.38867847  0.41119913  0.41731232  1
  Te  Te86  1  0.42957042  0.42279854  0.76709584  1
  Te  Te87  1  0.38663503  0.74131947  0.06462006  1
  Te  Te88  1  0.35901331  0.68931182  0.40227469  1
  Te  Te89  1  0.40979269  0.73981642  0.76146857  1
  Te  Te90  1  0.75878937  0.06394248  0.08553312  1
  Te  Te91  1  0.74317969  0.07509461  0.42223946  1
  Te  Te92  1  0.75347518  0.08269799  0.75923193  1
  Te  Te93  1  0.73042062  0.42546953  0.01833928  1
  Te  Te94  1  0.75847049  0.41446448  0.41499146  1
  Te  Te95  1  0.74435915  0.39979181  0.75725604  1
  Te  Te96  1  0.73153736  0.74775420  0.10362685  1
  Te  Te97  1  0.75305748  0.73417251  0.42321068  1
  Te  Te98  1  0.78548738  0.73868640  0.70932379  1
  Te  Te99  1  0.08584384  0.25245491  0.25776727  1
  Te  Te100  1  0.10022561  0.28313732  0.56249132  1
  Te  Te101  1  0.07276787  0.28082547  0.92741130  1
  Te  Te102  1  0.11507700  0.57317888  0.25471438  1
  Te  Te103  1  0.07882207  0.58489846  0.59076252  1
  Te  Te104  1  0.08158466  0.51543752  0.92039839  1
  Te  Te105  1  0.08706673  0.89989554  0.22194949  1
  Te  Te106  1  0.07029756  0.92824978  0.57492653  1
  Te  Te107  1  0.06698867  0.90946752  0.90674927  1
  Te  Te108  1  0.40551583  0.19520775  0.23573313  1
  Te  Te109  1  0.40912789  0.26779751  0.59728511  1
  Te  Te110  1  0.42541878  0.24280091  0.89224039  1
  Te  Te111  1  0.39955330  0.57810437  0.23548804  1
  Te  Te112  1  0.40540032  0.56680298  0.57074528  1
  Te  Te113  1  0.43621398  0.56447671  0.95589276  1
  Te  Te114  1  0.39419411  0.91424409  0.20817260  1
  Te  Te115  1  0.42408905  0.91211726  0.57771398  1
  Te  Te116  1  0.42121316  0.92457889  0.90542428  1
  Te  Te117  1  0.77218780  0.26529848  0.23634620  1
  Te  Te118  1  0.72627575  0.25987959  0.60089322  1
  Te  Te119  1  0.76227393  0.24664349  0.90800536  1
  Te  Te120  1  0.72685080  0.54803753  0.23274161  1
  Te  Te121  1  0.75580491  0.60206006  0.60824425  1
  Te  Te122  1  0.74986760  0.59279611  0.88262013  1
  Te  Te123  1  0.74174608  0.92831192  0.25318552  1
  Te  Te124  1  0.75037493  0.91371311  0.57854095  1
  Te  Te125  1  0.74261815  0.89821110  0.93087667  1
  Te  Te126  1  0.25566732  0.25144750  0.08636630  1
  Te  Te127  1  0.23783267  0.24069249  0.39867456  1
  Te  Te128  1  0.24551295  0.26791098  0.76582622  1
  Te  Te129  1  0.23478578  0.63030566  0.08159488  1
  Te  Te130  1  0.25370585  0.58174670  0.42594219  1
  Te  Te131  1  0.25004416  0.56482925  0.73499146  1
  Te  Te132  1  0.23302614  0.90237174  0.05878938  1
  Te  Te133  1  0.23433373  0.92352904  0.40221556  1
  Te  Te134  1  0.25399742  0.90028563  0.75478438  1
  Te  Te135  1  0.60400819  0.26282128  0.07003662  1
  Te  Te136  1  0.57171514  0.25938860  0.40647004  1
  Te  Te137  1  0.53388124  0.27756233  0.78451528  1
  Te  Te138  1  0.56758746  0.57270530  0.06555948  1
  Te  Te139  1  0.57275923  0.57957767  0.41430061  1
  Te  Te140  1  0.60268361  0.58749192  0.75643590  1
  Te  Te141  1  0.57335096  0.93888895  0.07968898  1
  Te  Te142  1  0.56744844  0.90006761  0.40341568  1
  Te  Te143  1  0.59628763  0.91812792  0.76194625  1
  Te  Te144  1  0.92809622  0.27918139  0.07058163  1
  Te  Te145  1  0.93631836  0.25512529  0.40631945  1
  Te  Te146  1  0.92800583  0.25413382  0.74921700  1
  Te  Te147  1  0.89237523  0.55933077  0.06246351  1
  Te  Te148  1  0.90851119  0.58925425  0.43706609  1
  Te  Te149  1  0.90420281  0.58825900  0.78634542  1
  Te  Te150  1  0.92332967  0.88799227  0.10251407  1
  Te  Te151  1  0.91898194  0.90927717  0.41282261  1
  Te  Te152  1  0.90753504  0.91801625  0.75301119  1
  Te  Te153  1  0.26192456  0.10240542  0.24596666  1
  Te  Te154  1  0.28045716  0.07357289  0.60193201  1
  Te  Te155  1  0.27791104  0.09466068  0.91503213  1
  Te  Te156  1  0.25932206  0.41559910  0.23795988  1
  Te  Te157  1  0.21046214  0.39888818  0.57667071  1
  Te  Te158  1  0.26904731  0.42470731  0.93907187  1
  Te  Te159  1  0.32008724  0.78631224  0.26884596  1
  Te  Te160  1  0.24065714  0.77599933  0.58405726  1
  Te  Te161  1  0.23741057  0.69940579  0.91835625  1
  Te  Te162  1  0.59789518  0.10544522  0.27469732  1
  Te  Te163  1  0.56908006  0.11163701  0.60510368  1
  Te  Te164  1  0.59663085  0.07754997  0.91481341  1
  Te  Te165  1  0.55568461  0.39647952  0.22650844  1
  Te  Te166  1  0.59840341  0.42429166  0.58760812  1
  Te  Te167  1  0.59690762  0.37887354  0.95393517  1
  Te  Te168  1  0.55945957  0.74592373  0.26452890  1
  Te  Te169  1  0.58223247  0.73495032  0.59685675  1
  Te  Te170  1  0.58475781  0.75848264  0.91409816  1
  Te  Te171  1  0.91359969  0.07449056  0.24355034  1
  Te  Te172  1  0.89522680  0.07630503  0.56191270  1
  Te  Te173  1  0.93555521  0.09592465  0.91589239  1
  Te  Te174  1  0.92895403  0.41967905  0.23378391  1
  Te  Te175  1  0.91395620  0.40876815  0.58267908  1
  Te  Te176  1  0.93408370  0.46075921  0.93791939  1
  Te  Te177  1  0.91698066  0.73023172  0.25535288  1
  Te  Te178  1  0.90814795  0.76745943  0.60130743  1
  Te  Te179  1  0.93293149  0.71124390  0.93881666  1
