# generated using pymatgen
data_In2Te3
_symmetry_space_group_name_H-M   'P 1'
_cell_length_a   19.06802081
_cell_length_b   19.04747123
_cell_length_c   19.05083812
_cell_angle_alpha   89.70372763
_cell_angle_beta   89.69892902
_cell_angle_gamma   90.13557853
_symmetry_Int_Tables_number   1
_chemical_formula_structural   In2Te3
_chemical_formula_sum   'In72 Te108'
_cell_volume   6919.01041298
_cell_formula_units_Z   36
loop_
 _symmetry_equiv_pos_site_id
 _symmetry_equiv_pos_as_xyz
  1  'x, y, z'
loop_
 _atom_site_type_symbol
 _atom_site_label
 _atom_site_symmetry_multiplicity
 _atom_site_fract_x
 _atom_site_fract_y
 _atom_site_fract_z
 _atom_site_occupancy
  In  In0  1  0.84549048  -0.01256144  0.50099842  1
  In  In1  1  0.14369500  0.16012758  0.66317831  1
  In  In2  1  0.85598779  0.32535494  0.49497784  1
  In  In3  1  0.32236538  0.12548286  0.49918356  1
  In  In4  1  0.32418010  0.33627922  -0.00543720  1
  In  In5  1  0.52698294  -0.01072337  0.16270741  1
  In  In6  1  0.32299618  0.83347064  0.84143079  1
  In  In7  1  0.14902870  0.48690922  0.70389114  1
  In  In8  1  0.15302349  0.69888553  0.80580469  1
  In  In9  1  0.51429379  0.18315931  0.02523164  1
  In  In10  1  0.34894240  0.67883924  0.33970525  1
  In  In11  1  0.11748393  0.18179293  -0.00755546  1
  In  In12  1  0.86398210  0.66861733  0.83517425  1
  In  In13  1  0.32153713  0.47069686  0.15316678  1
  In  In14  1  0.12743351  -0.02129291  0.82400921  1
  In  In15  1  0.50415074  0.34841413  0.83566366  1
  In  In16  1  0.68909684  0.17602123  0.49249913  1
  In  In17  1  0.34992773  -0.00809312  0.30273975  1
  In  In18  1  0.64733708  0.84020081  0.82738224  1
  In  In19  1  0.83639542  0.02731186  0.84271789  1
  In  In20  1  0.15336558  0.85020668  -0.00755919  1
  In  In21  1  0.85175422  0.31521928  0.82442179  1
  In  In22  1  0.50637256  0.34124166  0.49005239  1
  In  In23  1  0.82758211  0.85069262  0.32482311  1
  In  In24  1  0.49759980  0.13979169  0.67382156  1
  In  In25  1  0.84666984  0.83778386  0.66619388  1
  In  In26  1  0.50715966  -0.00197942  0.48420832  1
  In  In27  1  0.68974624  0.01884841  0.01341429  1
  In  In28  1  0.68342798  0.33615363  0.65112688  1
  In  In29  1  0.31649809  0.17544461  0.82310350  1
  In  In30  1  0.32895319  0.01148007  -0.02386296  1
  In  In31  1  0.33399463  0.17871105  0.17194042  1
  In  In32  1  0.68047610  0.18585568  0.83801452  1
  In  In33  1  -0.00680913  0.49385586  0.16613627  1
  In  In34  1  0.82094808  0.66519305  0.17969538  1
  In  In35  1  0.00432982  0.67937431  0.00606470  1
  In  In36  1  0.00868465  0.66507373  0.35280674  1
  In  In37  1  0.16803899  0.50105166  -0.03967353  1
  In  In38  1  0.49974041  -0.01012964  0.84064023  1
  In  In39  1  0.36604074  0.33402448  0.66438713  1
  In  In40  1  0.83300378  0.33436707  0.16730528  1
  In  In41  1  0.08145647  0.00214844  0.55345633  1
  In  In42  1  -0.02679377  0.85955249  0.14454801  1
  In  In43  1  0.00899498  0.17856713  0.49671196  1
  In  In44  1  0.16667446  0.34885208  0.50003833  1
  In  In45  1  0.66168453  0.31090586  -0.00050098  1
  In  In46  1  0.68525039  0.67639685  0.01604245  1
  In  In47  1  -0.01240039  0.00603357  0.34361353  1
  In  In48  1  0.50074505  0.49964640  0.32526232  1
  In  In49  1  0.82138025  0.49958088  0.68087098  1
  In  In50  1  0.32335609  0.32257414  0.32838621  1
  In  In51  1  0.49155924  0.65405836  0.84513114  1
  In  In52  1  0.33564927  0.67904640  0.67075463  1
  In  In53  1  0.67535349  0.34659372  0.31807528  1
  In  In54  1  0.34395475  0.64741471  0.01933450  1
  In  In55  1  0.15929179  0.82889296  0.33300202  1
  In  In56  1  0.82370182  0.48402982  -0.01994795  1
  In  In57  1  0.84179478  0.68507462  0.50402829  1
  In  In58  1  0.52926963  0.67128803  0.17965898  1
  In  In59  1  0.15525929  0.03521937  0.15690602  1
  In  In60  1  0.15773993  0.65589213  0.54871283  1
  In  In61  1  0.33842842  0.84641360  0.50207794  1
  In  In62  1  0.63879522  0.68182568  0.67514500  1
  In  In63  1  0.00525111  0.17253855  0.19305101  1
  In  In64  1  0.34296313  0.83710516  0.16792878  1
  In  In65  1  0.64527912  0.52224667  0.49152473  1
  In  In66  1  -0.01720997  0.33302919  -0.01430930  1
  In  In67  1  0.68825433  0.00718506  0.30767420  1
  In  In68  1  0.18144886  0.49519356  0.31939679  1
  In  In69  1  0.82996943  0.51144340  0.33771540  1
  In  In70  1  0.67820172  0.82341961  0.49270883  1
  In  In71  1  0.33487009  0.53369868  0.51856085  1
  Te  Te72  1  0.05708525  0.05293976  0.04448000  1
  Te  Te73  1  0.09389647  0.07729449  0.41861648  1
  Te  Te74  1  0.05827611  0.10167467  0.77209808  1
  Te  Te75  1  0.07480211  0.42571892  0.05988262  1
  Te  Te76  1  0.08703418  0.42276411  0.40371010  1
  Te  Te77  1  0.06147834  0.39762718  0.78073587  1
  Te  Te78  1  0.08484592  0.76596935  0.09869165  1
  Te  Te79  1  0.09187626  0.75135908  0.44347092  1
  Te  Te80  1  0.05947193  0.75765677  0.71001299  1
  Te  Te81  1  0.41302155  0.07781991  0.08273607  1
  Te  Te82  1  0.42338907  0.08743769  0.39344309  1
  Te  Te83  1  0.39483902  0.06596433  0.75514427  1
  Te  Te84  1  0.42379153  0.39734416  0.08109900  1
  Te  Te85  1  0.39812084  0.42500325  0.42180068  1
  Te  Te86  1  0.41592065  0.43341219  0.75608133  1
  Te  Te87  1  0.43285172  0.74668916  0.08842975  1
  Te  Te88  1  0.42945612  0.77043496  0.41578342  1
  Te  Te89  1  0.42557125  0.76147265  0.75824453  1
  Te  Te90  1  0.79559738  0.04126720  0.11443093  1
  Te  Te91  1  0.77382797  0.08234087  0.40931835  1
  Te  Te92  1  0.74870637  0.09685509  0.74719244  1
  Te  Te93  1  0.73978681  0.41643229  0.08309991  1
  Te  Te94  1  0.74336261  0.41922290  0.43929493  1
  Te  Te95  1  0.74045229  0.40537987  0.77147316  1
  Te  Te96  1  0.76391433  0.77144081  0.09653252  1
  Te  Te97  1  0.75434659  0.73365883  0.39114418  1
  Te  Te98  1  0.75481243  0.75196955  0.75275592  1
  Te  Te99  1  0.10676192  0.26567169  0.22952595  1
  Te  Te100  1  0.07159642  0.27400156  0.59445306  1
  Te  Te101  1  0.08621213  0.28194633  0.88217400  1
  Te  Te102  1  0.08187735  0.58588089  0.24587094  1
  Te  Te103  1  0.07390253  0.54607848  0.59365293  1
  Te  Te104  1  0.07545518  0.60351909  0.89715224  1
  Te  Te105  1  0.08291316  0.92612915  0.24434862  1
  Te  Te106  1  0.05486804  0.90723034  0.66723825  1
  Te  Te107  1  0.04920138  0.87133714  0.89126245  1
  Te  Te108  1  0.42671253  0.26326643  0.24514028  1
  Te  Te109  1  0.42166136  0.22951392  0.56693030  1
  Te  Te110  1  0.42423465  0.23358470  0.91010953  1
  Te  Te111  1  0.39603433  0.57326521  0.24203229  1
  Te  Te112  1  0.43526329  0.61232019  0.58589264  1
  Te  Te113  1  0.40489336  0.56219122  0.92089889  1
  Te  Te114  1  0.45271038  0.89214638  0.25432805  1
  Te  Te115  1  0.42027675  0.93605697  0.58373254  1
  Te  Te116  1  0.42165515  0.90119047  0.93641422  1
  Te  Te117  1  0.75445399  0.24354117  0.25195803  1
  Te  Te118  1  0.77983625  0.23437079  0.59736826  1
  Te  Te119  1  0.77837729  0.23888225  0.93704615  1
  Te  Te120  1  0.73585485  0.56210062  0.23946951  1
  Te  Te121  1  0.74320041  0.59731369  0.58088497  1
  Te  Te122  1  0.75229771  0.59297089  0.90642672  1
  Te  Te123  1  0.74077921  0.90066427  0.21729810  1
  Te  Te124  1  0.74419621  0.91895677  0.58888612  1
  Te  Te125  1  0.74410497  0.92204551  0.90677807  1
  Te  Te126  1  0.24005526  0.23387880  0.06703526  1
  Te  Te127  1  0.24726067  0.24091445  0.43166791  1
  Te  Te128  1  0.24700234  0.25753301  0.72049998  1
  Te  Te129  1  0.23134601  0.56922044  0.08294663  1
  Te  Te130  1  0.23851052  0.59885480  0.42246210  1
  Te  Te131  1  0.24770699  0.59290131  0.75776176  1
  Te  Te132  1  0.25124500  0.92847669  0.08725668  1
  Te  Te133  1  0.25601263  0.92258733  0.40009453  1
  Te  Te134  1  0.24387949  0.92165161  0.75751597  1
  Te  Te135  1  0.62492216  0.22058988  0.11297839  1
  Te  Te136  1  0.58879770  0.24901815  0.40759426  1
  Te  Te137  1  0.57924759  0.25159014  0.73396070  1
  Te  Te138  1  0.58902617  0.58547234  0.08030497  1
  Te  Te139  1  0.57207365  0.61029950  0.39542537  1
  Te  Te140  1  0.58250062  0.57802521  0.75864925  1
  Te  Te141  1  0.59630332  0.91582268  0.05950185  1
  Te  Te142  1  0.60490994  0.91895510  0.40081876  1
  Te  Te143  1  0.57339827  0.92418491  0.73436474  1
  Te  Te144  1  0.91910514  0.23987066  0.08656765  1
  Te  Te145  1  0.92397829  0.24141079  0.39768912  1
  Te  Te146  1  0.95175966  0.20880334  0.80786884  1
  Te  Te147  1  0.90545467  0.57894959  0.07330323  1
  Te  Te148  1  0.92276612  0.57384758  0.43826292  1
  Te  Te149  1  0.92530071  0.59136999  0.72801511  1
  Te  Te150  1  0.89599071  0.94388057  0.04803223  1
  Te  Te151  1  0.93270277  0.88994834  0.42586775  1
  Te  Te152  1  0.91701678  0.93980011  0.74684754  1
  Te  Te153  1  0.24409051  0.09503767  0.26092425  1
  Te  Te154  1  0.22394381  0.05562870  0.59020586  1
  Te  Te155  1  0.22241489  0.09495281  0.91209512  1
  Te  Te156  1  0.21734750  0.37637669  0.22496946  1
  Te  Te157  1  0.25799477  0.42807536  0.59436749  1
  Te  Te158  1  0.25055460  0.40426690  0.88947641  1
  Te  Te159  1  0.25013150  0.74582907  0.24529133  1
  Te  Te160  1  0.24347324  0.77117247  0.59573664  1
  Te  Te161  1  0.24329735  0.74173196  0.93445988  1
  Te  Te162  1  0.59334202  0.09502296  0.23752063  1
  Te  Te163  1  0.59617862  0.08636232  0.57338622  1
  Te  Te164  1  0.58447321  0.09352547  0.91683300  1
  Te  Te165  1  0.56941062  0.40697037  0.23798684  1
  Te  Te166  1  0.57692419  0.42641043  0.59082977  1
  Te  Te167  1  0.58220994  0.41525436  0.93692590  1
  Te  Te168  1  0.61785731  0.71262414  0.28609936  1
  Te  Te169  1  0.57347585  0.74768317  0.56300834  1
  Te  Te170  1  0.58333339  0.74458771  0.92381003  1
  Te  Te171  1  0.91041509  0.06573054  0.23253441  1
  Te  Te172  1  0.94450119  0.06787140  0.58006054  1
  Te  Te173  1  0.93175247  0.06251866  0.95129391  1
  Te  Te174  1  0.91811028  0.41115698  0.26706147  1
  Te  Te175  1  0.90167081  0.39609279  0.61405003  1
  Te  Te176  1  0.93002921  0.43660906  0.88348616  1
  Te  Te177  1  0.92997622  0.75061960  0.25420191  1
  Te  Te178  1  0.93975611  0.74359118  0.59747237  1
  Te  Te179  1  0.91644796  0.76942672  0.92888717  1
