# generated using pymatgen
data_In2Te3
_symmetry_space_group_name_H-M   'P 1'
_cell_length_a   18.97249880
_cell_length_b   18.98166341
_cell_length_c   19.01445505
_cell_angle_alpha   89.95728074
_cell_angle_beta   90.07355197
_cell_angle_gamma   89.97218192
_symmetry_Int_Tables_number   1
_chemical_formula_structural   In2Te3
_chemical_formula_sum   'In72 Te108'
_cell_volume   6847.65947326
_cell_formula_units_Z   36
loop_
 _symmetry_equiv_pos_site_id
 _symmetry_equiv_pos_as_xyz
  1  'x, y, z'
loop_
 _atom_site_type_symbol
 _atom_site_label
 _atom_site_symmetry_multiplicity
 _atom_site_fract_x
 _atom_site_fract_y
 _atom_site_fract_z
 _atom_site_occupancy
  In  In0  1  0.65581569  0.82413940  0.16113245  1
  In  In1  1  0.01481229  0.32819127  0.29963341  1
  In  In2  1  0.17267905  0.14189862  0.68342074  1
  In  In3  1  0.33707429  0.33119325  0.69135130  1
  In  In4  1  0.53177150  0.48911596  -0.00384626  1
  In  In5  1  0.18186052  0.35311706  0.50179501  1
  In  In6  1  0.00154876  0.19201011  0.49977916  1
  In  In7  1  0.83257995  0.00284744  0.84452976  1
  In  In8  1  0.66618783  0.48321932  0.83697431  1
  In  In9  1  0.31944466  0.81875949  0.17381383  1
  In  In10  1  0.16030313  0.83560973  -0.00625598  1
  In  In11  1  0.12067317  -0.01543365  0.47370053  1
  In  In12  1  0.31196319  0.16772630  0.50167353  1
  In  In13  1  0.15122214  -0.01498997  0.82641989  1
  In  In14  1  0.84262434  0.15303978  0.29206050  1
  In  In15  1  0.34207092  0.00080515  0.68197943  1
  In  In16  1  0.14444223  -0.00896799  0.14457783  1
  In  In17  1  0.31096320  -0.01386772  0.31293668  1
  In  In18  1  0.15379605  0.36051338  0.84179055  1
  In  In19  1  0.21301373  0.51534925  0.14308885  1
  In  In20  1  -0.02254107  0.17252761  0.13043923  1
  In  In21  1  0.68264739  0.64198843  -0.00041969  1
  In  In22  1  0.65130827  0.33313161  0.67472758  1
  In  In23  1  0.51221382  0.66100726  0.82011790  1
  In  In24  1  0.84969465  0.65215529  0.16253014  1
  In  In25  1  0.51105780  0.16879118  0.66815007  1
  In  In26  1  -0.01030136  0.81715469  0.83775343  1
  In  In27  1  0.69294461  0.49160688  0.19709574  1
  In  In28  1  0.13766923  0.79557133  0.34894144  1
  In  In29  1  0.68283831  0.31729043  0.35376896  1
  In  In30  1  0.47206826  0.66793806  0.15054307  1
  In  In31  1  0.31689174  0.85396443  0.84443761  1
  In  In32  1  0.65783965  0.70013091  0.35809922  1
  In  In33  1  0.30979479  0.65789974  0.68175324  1
  In  In34  1  0.01298415  0.64775390  -0.01506667  1
  In  In35  1  0.66288385  0.17126026  0.52223080  1
  In  In36  1  -0.01069433  0.52966540  0.52023010  1
  In  In37  1  0.32831481  0.80902724  0.52104858  1
  In  In38  1  0.53733936  0.32170598  0.14033796  1
  In  In39  1  0.31690271  0.51859667  0.51228295  1
  In  In40  1  0.66299600  0.00821553  -0.02920332  1
  In  In41  1  0.49588890  0.50881306  0.34523511  1
  In  In42  1  0.85142410  0.16682362  0.71497635  1
  In  In43  1  0.50187026  0.85755012  0.67844426  1
  In  In44  1  0.50790623  0.03217278  0.48303554  1
  In  In45  1  0.82107996  0.33950740  0.49494436  1
  In  In46  1  0.85731237  0.34385741  0.11760436  1
  In  In47  1  0.31839279  0.65164552  0.32846029  1
  In  In48  1  0.13260767  0.50409706  0.32180625  1
  In  In49  1  0.34156228  0.32365001  0.33256703  1
  In  In50  1  0.31473579  0.15696142  0.17190232  1
  In  In51  1  0.00584314  0.68245634  0.66755563  1
  In  In52  1  0.83825702  0.47477715  -0.05284687  1
  In  In53  1  0.86015602  0.52281687  0.68486877  1
  In  In54  1  0.01700749  0.00000159  0.67366153  1
  In  In55  1  0.47416047  0.66960815  0.51502332  1
  In  In56  1  0.86661260  0.50162268  0.34830947  1
  In  In57  1  0.18199648  0.18957767  -0.02194762  1
  In  In58  1  0.52531473  0.17990073  0.34431393  1
  In  In59  1  0.66740938  0.84744409  0.51925364  1
  In  In60  1  0.69447913  0.65362377  0.67276171  1
  In  In61  1  0.35810151  0.49273476  0.83115592  1
  In  In62  1  -0.01449494  0.84869100  0.14397666  1
  In  In63  1  -0.00382024  0.32249569  0.69950432  1
  In  In64  1  0.85039898  -0.02897246  0.52710220  1
  In  In65  1  0.37327787  0.29702145  -0.01683519  1
  In  In66  1  0.69995794  0.14853651  0.15143232  1
  In  In67  1  0.52088490  -0.00121048  0.16210586  1
  In  In68  1  0.66573953  0.81788281  0.81910435  1
  In  In69  1  0.35993401  0.01350668  -0.01936981  1
  In  In70  1  0.68960502  -0.01438512  0.37037302  1
  In  In71  1  0.83834874  0.83645033  0.34450178  1
  Te  Te72  1  0.08819433  0.09558040  0.05245902  1
  Te  Te73  1  0.06286419  0.09916489  0.40413164  1
  Te  Te74  1  0.06133212  0.10180259  0.77818182  1
  Te  Te75  1  0.09046148  0.45390810  0.08889416  1
  Te  Te76  1  0.06526699  0.41182090  0.42438407  1
  Te  Te77  1  0.06771623  0.44141802  0.75041622  1
  Te  Te78  1  0.07949882  0.74700176  0.08382463  1
  Te  Te79  1  0.03041264  0.75383262  0.44129467  1
  Te  Te80  1  0.09451492  0.74511602  0.76823862  1
  Te  Te81  1  0.42578269  0.09363359  0.09120944  1
  Te  Te82  1  0.39878341  0.09128242  0.39230541  1
  Te  Te83  1  0.40954423  0.10525261  0.75885200  1
  Te  Te84  1  0.43185308  0.40799552  0.07740826  1
  Te  Te85  1  0.40265256  0.42359785  0.42940615  1
  Te  Te86  1  0.44838924  0.39399802  0.76517565  1
  Te  Te87  1  0.40414656  0.76583233  0.06752240  1
  Te  Te88  1  0.40627761  0.74825947  0.40479086  1
  Te  Te89  1  0.41283243  0.75654422  0.74890890  1
  Te  Te90  1  0.77001253  0.03804355  0.07590917  1
  Te  Te91  1  0.75371558  0.11288406  0.41485831  1
  Te  Te92  1  0.73769852  0.09647823  0.77596701  1
  Te  Te93  1  0.73414127  0.42214811  0.06930116  1
  Te  Te94  1  0.74482964  0.44401032  0.41672241  1
  Te  Te95  1  0.76379876  0.42022726  0.73432139  1
  Te  Te96  1  0.75838101  0.74514948  0.08292171  1
  Te  Te97  1  0.76552343  0.75495511  0.44999669  1
  Te  Te98  1  0.77281283  0.75421612  0.74099798  1
  Te  Te99  1  0.08253153  0.25314882  0.19631368  1
  Te  Te100  1  0.10373739  0.25233353  0.59584111  1
  Te  Te101  1  0.07191017  0.28987717  0.94714343  1
  Te  Te102  1  0.07727245  0.56377545  0.19780156  1
  Te  Te103  1  0.09959983  0.59722891  0.58730507  1
  Te  Te104  1  0.12164451  0.54475934  0.96079504  1
  Te  Te105  1  0.08429480  0.90163922  0.25014008  1
  Te  Te106  1  0.07163626  0.89505746  0.58153948  1
  Te  Te107  1  0.05945424  0.92579918  0.92844750  1
  Te  Te108  1  0.43237107  0.24751689  0.23645935  1
  Te  Te109  1  0.40689823  0.24738639  0.58334402  1
  Te  Te110  1  0.43712320  0.19490377  0.89883299  1
  Te  Te111  1  0.40255365  0.56399604  0.23878542  1
  Te  Te112  1  0.41768839  0.57014424  0.61200333  1
  Te  Te113  1  0.43701729  0.58450222  0.92705133  1
  Te  Te114  1  0.42173907  0.91367054  0.24193807  1
  Te  Te115  1  0.41386556  0.93368369  0.56590106  1
  Te  Te116  1  0.43685661  0.92360132  0.89248898  1
  Te  Te117  1  0.75952859  0.27120483  0.22974727  1
  Te  Te118  1  0.77328773  0.24099787  0.59967620  1
  Te  Te119  1  0.73104309  0.36711335  0.91941623  1
  Te  Te120  1  0.75154640  0.60853059  0.27625538  1
  Te  Te121  1  0.78172845  0.58447056  0.57807877  1
  Te  Te122  1  0.76298041  0.59359938  0.88430766  1
  Te  Te123  1  0.74355236  0.91234605  0.25110891  1
  Te  Te124  1  0.74758611  0.92209573  0.61650516  1
  Te  Te125  1  0.75243544  0.89687397  0.91736072  1
  Te  Te126  1  0.25879545  0.26530090  0.08485402  1
  Te  Te127  1  0.22896446  0.24739393  0.40285822  1
  Te  Te128  1  0.23584398  0.24997183  0.76782161  1
  Te  Te129  1  0.23784511  0.60882488  0.03104179  1
  Te  Te130  1  0.21814609  0.58589475  0.41931710  1
  Te  Te131  1  0.24620293  0.57371849  0.78152876  1
  Te  Te132  1  0.26518012  0.92984690  0.07538747  1
  Te  Te133  1  0.24257571  0.89435367  0.41253818  1
  Te  Te134  1  0.23502244  0.90534847  0.72757308  1
  Te  Te135  1  0.61150601  0.22443490  0.05714011  1
  Te  Te136  1  0.56958365  0.27994656  0.45614330  1
  Te  Te137  1  0.61636008  0.21892068  0.76024225  1
  Te  Te138  1  0.59291288  0.57969089  0.11384323  1
  Te  Te139  1  0.58067841  0.59433977  0.43685298  1
  Te  Te140  1  0.58662176  0.56671127  0.73105666  1
  Te  Te141  1  0.58188730  0.90849542  0.05983739  1
  Te  Te142  1  0.56932373  0.90921740  0.41626947  1
  Te  Te143  1  0.57548011  0.93086474  0.78095238  1
  Te  Te144  1  0.87079141  0.22240883  0.03318052  1
  Te  Te145  1  0.90617599  0.25904276  0.39172854  1
  Te  Te146  1  0.90521763  0.27181993  0.80556565  1
  Te  Te147  1  0.90501095  0.56477078  0.05611601  1
  Te  Te148  1  0.94663672  0.61263286  0.40378925  1
  Te  Te149  1  0.96502455  0.57838907  0.76998191  1
  Te  Te150  1  0.90581641  0.95875921  0.08574394  1
  Te  Te151  1  0.91688348  0.94814632  0.40087362  1
  Te  Te152  1  0.91647529  0.91846083  0.74989810  1
  Te  Te153  1  0.21186469  0.08158941  0.25141312  1
  Te  Te154  1  0.22837575  0.06024459  0.56755726  1
  Te  Te155  1  0.24814354  0.07649793  0.90027281  1
  Te  Te156  1  0.24491719  0.41704147  0.26304441  1
  Te  Te157  1  0.24743506  0.42817110  0.61407962  1
  Te  Te158  1  0.27857555  0.39915884  0.92175686  1
  Te  Te159  1  0.22052456  0.72569112  0.24033845  1
  Te  Te160  1  0.22514736  0.72334903  0.57817814  1
  Te  Te161  1  0.25051467  0.74492699  0.91902927  1
  Te  Te162  1  0.60551228  0.08348622  0.25871482  1
  Te  Te163  1  0.59783050  0.05938339  0.59972096  1
  Te  Te164  1  0.56423252  0.11448764  0.93996650  1
  Te  Te165  1  0.57979309  0.40530259  0.26851773  1
  Te  Te166  1  0.59204158  0.39432972  0.55956801  1
  Te  Te167  1  0.56342391  0.38620799  0.89327246  1
  Te  Te168  1  0.56232696  0.74579117  0.25046877  1
  Te  Te169  1  0.57516539  0.75135036  0.59757224  1
  Te  Te170  1  0.58917225  0.73622909  0.92597644  1
  Te  Te171  1  0.92964283  0.06011048  0.21747330  1
  Te  Te172  1  0.92414918  0.09551012  0.58972929  1
  Te  Te173  1  0.88346859  0.08856352  0.95348223  1
  Te  Te174  1  0.92085856  0.42690005  0.23153990  1
  Te  Te175  1  0.92931545  0.40145988  0.58161398  1
  Te  Te176  1  0.95334477  0.38732576  0.91624497  1
  Te  Te177  1  0.92214541  0.75522964  0.24578708  1
  Te  Te178  1  0.95205378  0.78438447  0.57106495  1
  Te  Te179  1  0.91409266  0.74717703  0.94182540  1
