# generated using pymatgen
data_In2Te3
_symmetry_space_group_name_H-M   'P 1'
_cell_length_a   18.82020784
_cell_length_b   18.82189625
_cell_length_c   18.81969304
_cell_angle_alpha   89.93608925
_cell_angle_beta   90.03878456
_cell_angle_gamma   89.99725970
_symmetry_Int_Tables_number   1
_chemical_formula_structural   In2Te3
_chemical_formula_sum   'In72 Te108'
_cell_volume   6666.53180833
_cell_formula_units_Z   36
loop_
 _symmetry_equiv_pos_site_id
 _symmetry_equiv_pos_as_xyz
  1  'x, y, z'
loop_
 _atom_site_type_symbol
 _atom_site_label
 _atom_site_symmetry_multiplicity
 _atom_site_fract_x
 _atom_site_fract_y
 _atom_site_fract_z
 _atom_site_occupancy
  In  In0  1  0.83295260  0.00275810  0.81909533  1
  In  In1  1  0.16354124  0.15647690  -0.00475877  1
  In  In2  1  0.66722981  0.32452289  0.00604527  1
  In  In3  1  0.84721224  0.30127016  0.14175212  1
  In  In4  1  0.33306329  0.34814015  0.01298021  1
  In  In5  1  -0.00737157  0.69079721  0.36172784  1
  In  In6  1  0.50621884  -0.00856962  0.48201257  1
  In  In7  1  0.51498622  0.33323344  0.81592756  1
  In  In8  1  0.33907210  0.33694143  0.35025786  1
  In  In9  1  0.32468361  0.02428325  0.65349389  1
  In  In10  1  0.35473295  0.35122427  0.64750405  1
  In  In11  1  0.14160722  0.49969455  -0.00478760  1
  In  In12  1  0.50810062  0.48629757  0.65047286  1
  In  In13  1  0.48677195  0.00735909  0.15301477  1
  In  In14  1  0.33505173  0.67113509  -0.00934711  1
  In  In15  1  -0.02389290  -0.00894268  0.65329091  1
  In  In16  1  0.01226801  -0.00347916  -0.00234056  1
  In  In17  1  0.17254793  0.69545513  0.16586570  1
  In  In18  1  0.51147921  0.32432446  0.49583280  1
  In  In19  1  0.16546625  -0.00319908  0.17336091  1
  In  In20  1  0.66141536  0.17974339  0.49238775  1
  In  In21  1  0.67039722  0.83913559  0.17476516  1
  In  In22  1  0.35223619  0.50185511  0.16655100  1
  In  In23  1  0.84099674  0.66645174  0.50713746  1
  In  In24  1  0.52098955  0.15706688  0.00252062  1
  In  In25  1  0.34835833  0.65177116  0.65332958  1
  In  In26  1  0.18342047  0.33206598  0.84048756  1
  In  In27  1  0.32013558  0.16480239  0.84127622  1
  In  In28  1  0.51183984  0.85089420  0.34027940  1
  In  In29  1  0.00365657  0.50404603  0.51669725  1
  In  In30  1  0.53754196  0.82169793  0.66097213  1
  In  In31  1  0.84923277  0.85367549  0.01215964  1
  In  In32  1  -0.01159209  0.31916057  0.32941470  1
  In  In33  1  0.34729728  0.85278225  0.85976352  1
  In  In34  1  0.68885005  0.15507878  0.16431843  1
  In  In35  1  -0.02296694  0.34292427  0.67382118  1
  In  In36  1  0.49422926  0.84348965  0.01942861  1
  In  In37  1  0.81097306  0.01534231  0.51223238  1
  In  In38  1  0.01545052  0.67289234  -0.00880184  1
  In  In39  1  0.79751419  0.46338058  0.35312183  1
  In  In40  1  0.50364032  0.66882371  0.15633160  1
  In  In41  1  0.83117729  0.65416481  0.81136852  1
  In  In42  1  0.01498102  0.83390333  0.49261925  1
  In  In43  1  0.67238060  0.48987267  0.82492490  1
  In  In44  1  0.32488850  0.84145491  0.49257709  1
  In  In45  1  -0.01869271  0.14825653  0.83993026  1
  In  In46  1  0.16400563  0.16010602  0.63556963  1
  In  In47  1  0.14140751  0.30873058  0.18662395  1
  In  In48  1  0.64981593  0.62957265  0.38110460  1
  In  In49  1  0.67656116  -0.00599296  0.34750530  1
  In  In50  1  0.13941815  0.81646924  0.67581172  1
  In  In51  1  0.00092377  0.13817808  0.46721161  1
  In  In52  1  0.47871830  0.66270555  0.84351969  1
  In  In53  1  -0.02771460  0.49697026  0.83308574  1
  In  In54  1  0.82305675  0.49336456  -0.01427013  1
  In  In55  1  0.62173550  0.48397530  0.18839148  1
  In  In56  1  0.31605760  0.00143950  0.32142671  1
  In  In57  1  0.82796183  0.67307710  0.18448337  1
  In  In58  1  0.17163308  0.52098887  0.65833816  1
  In  In59  1  0.32016419  0.67418405  0.32243868  1
  In  In60  1  0.18410016  0.32979782  0.49981317  1
  In  In61  1  0.01118554  0.49912345  0.16446785  1
  In  In62  1  0.18215576  0.51556925  0.34286005  1
  In  In63  1  0.66405273  0.82660024  0.83932049  1
  In  In64  1  0.67475659  0.66239174  0.64304059  1
  In  In65  1  0.16396661  -0.00919367  0.84306863  1
  In  In66  1  0.83938425  0.84960089  0.32601587  1
  In  In67  1  0.48753726  0.18353059  0.32705342  1
  In  In68  1  0.51090755  0.19577263  0.66636005  1
  In  In69  1  0.80952722  0.32333323  0.84882096  1
  In  In70  1  0.68683479  -0.01477219  0.66973998  1
  In  In71  1  0.16993652  0.84773896  -0.00952639  1
  Te  Te72  1  0.06399204  0.10336988  0.09899243  1
  Te  Te73  1  0.08588926  0.05171061  0.38507498  1
  Te  Te74  1  0.08801533  0.08462759  0.74715543  1
  Te  Te75  1  0.07081148  0.39153914  0.07518651  1
  Te  Te76  1  0.08369929  0.41702506  0.40857380  1
  Te  Te77  1  0.09206627  0.41501806  0.74798520  1
  Te  Te78  1  0.07191334  0.77711998  0.08585221  1
  Te  Te79  1  0.11439988  0.76018047  0.40752896  1
  Te  Te80  1  0.07179534  0.76571842  0.79383389  1
  Te  Te81  1  0.40735160  0.11044870  0.08522084  1
  Te  Te82  1  0.40968432  0.08514014  0.41344859  1
  Te  Te83  1  0.41990047  0.09871093  0.74662711  1
  Te  Te84  1  0.44146384  0.41360961  0.08921574  1
  Te  Te85  1  0.43037474  0.43225473  0.42443641  1
  Te  Te86  1  0.41337115  0.43432393  0.75948245  1
  Te  Te87  1  0.39396659  0.75915615  0.09950303  1
  Te  Te88  1  0.42053510  0.75374888  0.41336959  1
  Te  Te89  1  0.41768391  0.76711183  0.74821942  1
  Te  Te90  1  0.78192118  0.10170957  0.06276004  1
  Te  Te91  1  0.76194341  0.10762728  0.39991289  1
  Te  Te92  1  0.74627155  0.09700443  0.74470110  1
  Te  Te93  1  0.74682995  0.42172806  0.09679984  1
  Te  Te94  1  0.72031199  0.40401474  0.46513408  1
  Te  Te95  1  0.77720594  0.42528798  0.74594533  1
  Te  Te96  1  0.75000751  0.75131475  0.07952025  1
  Te  Te97  1  0.75988508  0.73706749  0.39921927  1
  Te  Te98  1  0.75147236  0.75924237  0.73399054  1
  Te  Te99  1  0.07932375  0.21111463  0.28007871  1
  Te  Te100  1  0.06809885  0.26108272  0.57322874  1
  Te  Te101  1  0.07734921  0.24773870  0.90931159  1
  Te  Te102  1  0.08185342  0.59949416  0.25383789  1
  Te  Te103  1  0.07542979  0.61088912  0.58890986  1
  Te  Te104  1  0.08451477  0.58807969  0.88488265  1
  Te  Te105  1  0.06695377  0.93870763  0.27721253  1
  Te  Te106  1  0.09728449  0.93133718  0.58639862  1
  Te  Te107  1  0.05242642  0.89242809  0.88573678  1
  Te  Te108  1  0.41996626  0.28250009  0.23755800  1
  Te  Te109  1  0.40538852  0.23630445  0.56248136  1
  Te  Te110  1  0.41666946  0.25882506  0.91327802  1
  Te  Te111  1  0.43165616  0.58622466  0.26377777  1
  Te  Te112  1  0.44791530  0.58928007  0.56018123  1
  Te  Te113  1  0.42727195  0.56739905  0.94359822  1
  Te  Te114  1  0.41210092  0.90865746  0.24308057  1
  Te  Te115  1  0.42668463  0.91655092  0.59008617  1
  Te  Te116  1  0.44273046  0.95037275  0.92335189  1
  Te  Te117  1  0.76839302  0.24344265  0.25227591  1
  Te  Te118  1  0.74065947  0.28295581  0.56276242  1
  Te  Te119  1  0.74180956  0.21950241  0.93331962  1
  Te  Te120  1  0.73541837  0.57437843  0.25639261  1
  Te  Te121  1  0.75057387  0.56295391  0.56486145  1
  Te  Te122  1  0.73543584  0.59579041  0.91594000  1
  Te  Te123  1  0.76334725  0.94647439  0.23087812  1
  Te  Te124  1  0.76092783  0.89451012  0.58159940  1
  Te  Te125  1  0.74820762  0.92416082  0.92091809  1
  Te  Te126  1  0.24361705  0.24955701  0.08671178  1
  Te  Te127  1  0.23727442  0.24044245  0.39607109  1
  Te  Te128  1  0.25385861  0.25517102  0.72664674  1
  Te  Te129  1  0.23726245  0.58204218  0.08650652  1
  Te  Te130  1  0.25654174  0.60082855  0.43499485  1
  Te  Te131  1  0.26417811  0.58586617  0.75398254  1
  Te  Te132  1  0.25675834  0.92060361  0.08320399  1
  Te  Te133  1  0.22976684  0.92936547  0.41998136  1
  Te  Te134  1  0.25802994  0.91959636  0.74593469  1
  Te  Te135  1  0.58353095  0.24891765  0.10833051  1
  Te  Te136  1  0.60298948  0.27440783  0.37414798  1
  Te  Te137  1  0.61546783  0.23889962  0.76208318  1
  Te  Te138  1  0.59440170  0.58105619  0.08157519  1
  Te  Te139  1  0.55501061  0.53029438  0.43629850  1
  Te  Te140  1  0.57927949  0.59316479  0.74873535  1
  Te  Te141  1  0.60086925  0.93588567  0.07975123  1
  Te  Te142  1  0.61751310  0.89336635  0.44381710  1
  Te  Te143  1  0.57876488  0.92877071  0.76136440  1
  Te  Te144  1  0.94088820  0.20232805  0.09056105  1
  Te  Te145  1  0.90367379  0.24118541  0.42241492  1
  Te  Te146  1  0.89658428  0.23931126  0.75142385  1
  Te  Te147  1  0.91481149  0.58521802  0.08025220  1
  Te  Te148  1  0.91148582  0.56633713  0.39957546  1
  Te  Te149  1  0.91693120  0.57525343  0.72157365  1
  Te  Te150  1  0.93121768  0.93379058  0.11025091  1
  Te  Te151  1  0.91239483  0.93071622  0.43127269  1
  Te  Te152  1  0.91101149  0.90006706  0.74802390  1
  Te  Te153  1  0.25560059  0.10078242  0.22979663  1
  Te  Te154  1  0.24569136  0.08122840  0.54285446  1
  Te  Te155  1  0.26466746  0.05892541  0.93627997  1
  Te  Te156  1  0.24065919  0.42031052  0.23837145  1
  Te  Te157  1  0.26436696  0.44165974  0.56410902  1
  Te  Te158  1  0.25807833  0.44022179  0.91551187  1
  Te  Te159  1  0.22990640  0.78146649  0.27053096  1
  Te  Te160  1  0.24822971  0.75125773  0.59057377  1
  Te  Te161  1  0.24235470  0.74818533  0.89823359  1
  Te  Te162  1  0.57705816  0.07299953  0.26284823  1
  Te  Te163  1  0.58390373  0.07969278  0.58076216  1
  Te  Te164  1  0.55825282  0.05672674  0.90464757  1
  Te  Te165  1  0.55468360  0.39286533  0.28212966  1
  Te  Te166  1  0.60100636  0.37678207  0.60666184  1
  Te  Te167  1  0.58093824  0.41952156  0.92374771  1
  Te  Te168  1  0.59322007  0.74321219  0.26431517  1
  Te  Te169  1  0.58011499  0.73319881  0.55190983  1
  Te  Te170  1  0.57282092  0.74680692  0.93172498  1
  Te  Te171  1  0.93537967  0.00565495  0.25740527  1
  Te  Te172  1  0.90593013  0.10722070  0.58855648  1
  Te  Te173  1  0.89311766  0.08992385  0.95103433  1
  Te  Te174  1  0.90769375  0.42057922  0.24414284  1
  Te  Te175  1  0.90332764  0.40645620  0.56288859  1
  Te  Te176  1  0.92143383  0.39175544  0.93070621  1
  Te  Te177  1  0.93482900  0.76470103  0.24044542  1
  Te  Te178  1  0.93710698  0.74674932  0.58618015  1
  Te  Te179  1  0.89886491  0.74065536  0.92122809  1
