# generated using pymatgen
data_In2Te3
_symmetry_space_group_name_H-M   'P 1'
_cell_length_a   18.91704900
_cell_length_b   18.93332416
_cell_length_c   18.91067312
_cell_angle_alpha   89.95771705
_cell_angle_beta   89.89503760
_cell_angle_gamma   90.07368918
_symmetry_Int_Tables_number   1
_chemical_formula_structural   In2Te3
_chemical_formula_sum   'In72 Te108'
_cell_volume   6773.07742165
_cell_formula_units_Z   36
loop_
 _symmetry_equiv_pos_site_id
 _symmetry_equiv_pos_as_xyz
  1  'x, y, z'
loop_
 _atom_site_type_symbol
 _atom_site_label
 _atom_site_symmetry_multiplicity
 _atom_site_fract_x
 _atom_site_fract_y
 _atom_site_fract_z
 _atom_site_occupancy
  In  In0  1  0.67471339  0.32811705  0.66771474  1
  In  In1  1  -0.00879592  0.13820907  0.82848467  1
  In  In2  1  0.49471705  0.34756940  0.51668872  1
  In  In3  1  0.50221116  0.69225852  0.18197738  1
  In  In4  1  0.65884607  0.67156813  -0.01334744  1
  In  In5  1  0.45086340  0.90530829  0.05372542  1
  In  In6  1  -0.00401242  0.49599739  0.50063314  1
  In  In7  1  0.14449247  0.33817250  0.50008085  1
  In  In8  1  0.16896722  0.52235969  -0.00014165  1
  In  In9  1  0.00383998  0.17377702  0.48468011  1
  In  In10  1  0.31920901  0.17070257  0.83149735  1
  In  In11  1  0.64990598  0.83314638  0.49349509  1
  In  In12  1  0.83681515  0.81676926  0.03003417  1
  In  In13  1  0.83033057  0.49254199  0.64900862  1
  In  In14  1  0.68840651  0.49070221  0.13651842  1
  In  In15  1  0.01085145  0.83866840  0.49840801  1
  In  In16  1  0.49831613  0.67438556  0.81972955  1
  In  In17  1  -0.01712504  0.01723552  -0.00243478  1
  In  In18  1  0.48516172  0.50056898  -0.02221889  1
  In  In19  1  0.82906484  0.66226304  0.17332003  1
  In  In20  1  0.33543017  0.35675945  0.67869135  1
  In  In21  1  -0.00413726  0.01594912  0.31221927  1
  In  In22  1  0.83361963  -0.00598360  0.84308548  1
  In  In23  1  0.17059999  0.50590853  0.33876817  1
  In  In24  1  0.50965605  0.01879962  0.49421911  1
  In  In25  1  0.65616740  0.69522094  0.32632986  1
  In  In26  1  0.35797090  -0.02035694  0.33235522  1
  In  In27  1  -0.03278520  0.29635556  0.02249697  1
  In  In28  1  0.50702092  0.83818216  0.68126882  1
  In  In29  1  0.82877637  0.14763871  0.33636359  1
  In  In30  1  0.01374739  0.66786313  -0.01326906  1
  In  In31  1  0.52526708  0.30758585  0.14219702  1
  In  In32  1  0.41979007  0.68735602  0.55276981  1
  In  In33  1  0.81704094  0.44113528  -0.00243812  1
  In  In34  1  0.32315366  0.51808711  0.82348760  1
  In  In35  1  0.00071427  0.48727097  0.16223860  1
  In  In36  1  0.19508501  0.70373741  0.12816855  1
  In  In37  1  0.16410583  0.49599215  0.67437921  1
  In  In38  1  0.83231601  0.66903038  0.82002082  1
  In  In39  1  0.66773429  0.12337082  0.15085817  1
  In  In40  1  0.67548837  0.34282128  0.33694890  1
  In  In41  1  0.50154384  0.18524475  0.68952857  1
  In  In42  1  0.50111286  0.15347041  0.32111487  1
  In  In43  1  0.33885300  0.32708306  0.32746166  1
  In  In44  1  0.83438076  0.84932773  0.66523050  1
  In  In45  1  0.33433407  -0.00089482  0.68372977  1
  In  In46  1  0.01252298  0.67774932  0.68077480  1
  In  In47  1  0.81454110  -0.01051715  0.48674187  1
  In  In48  1  0.79481468  0.85722136  0.28995553  1
  In  In49  1  0.85176414  0.48798241  0.32617049  1
  In  In50  1  0.18772987  -0.01434299  0.13744238  1
  In  In51  1  0.83031203  0.15147903  0.68067120  1
  In  In52  1  0.19647573  -0.00853376  0.52145498  1
  In  In53  1  -0.01297884  0.65781575  0.31907720  1
  In  In54  1  0.49673095  0.51131995  0.33108298  1
  In  In55  1  0.66044645  0.49583300  0.83005844  1
  In  In56  1  0.33186856  0.31800983  0.01486921  1
  In  In57  1  0.17781470  0.68868345  0.85012810  1
  In  In58  1  0.67818709  0.84506411  0.83599825  1
  In  In59  1  0.02134660  -0.00008220  0.66264094  1
  In  In60  1  0.18253620  0.00048520  0.86599425  1
  In  In61  1  0.17835536  0.14994721  -0.00613771  1
  In  In62  1  0.16535355  0.15691801  0.32473883  1
  In  In63  1  0.50244824  0.35002371  0.82607671  1
  In  In64  1  0.67821731  0.15886716  0.49222612  1
  In  In65  1  0.20172607  0.69489672  0.51875870  1
  In  In66  1  0.55021893  0.05178254  0.00180433  1
  In  In67  1  0.15114916  0.32091220  0.18504312  1
  In  In68  1  0.68131943  0.51304187  0.48921718  1
  In  In69  1  0.16967478  0.85101566  0.33064936  1
  In  In70  1  0.33243650  0.68932913  0.33754051  1
  In  In71  1  0.14035478  0.35029581  0.83170220  1
  Te  Te72  1  0.08261505  0.08565315  0.09137638  1
  Te  Te73  1  0.09280427  0.05481685  0.42636955  1
  Te  Te74  1  0.10964577  0.08122587  0.75434435  1
  Te  Te75  1  0.09274802  0.40752215  0.06845635  1
  Te  Te76  1  0.06471987  0.41268758  0.39277782  1
  Te  Te77  1  0.05709378  0.40801468  0.72457638  1
  Te  Te78  1  0.07117683  0.76344217  0.08118013  1
  Te  Te79  1  0.09168070  0.74130064  0.40545190  1
  Te  Te80  1  0.08608038  0.76906678  0.76761198  1
  Te  Te81  1  0.41418310  0.05886384  0.07083005  1
  Te  Te82  1  0.40055216  0.09602194  0.42002564  1
  Te  Te83  1  0.42817988  0.08203442  0.77305787  1
  Te  Te84  1  0.42427022  0.41289660  0.08798098  1
  Te  Te85  1  0.40786068  0.42651612  0.42043264  1
  Te  Te86  1  0.44062700  0.45890713  0.73484724  1
  Te  Te87  1  0.43287112  0.75524274  0.07079662  1
  Te  Te88  1  0.43416374  0.75404886  0.42021647  1
  Te  Te89  1  0.39902086  0.75830441  0.74784443  1
  Te  Te90  1  0.77707273  0.11682427  0.04874358  1
  Te  Te91  1  0.71947314  0.05474827  0.38921751  1
  Te  Te92  1  0.73312879  0.06387369  0.75464953  1
  Te  Te93  1  0.75195744  0.35611814  0.11038142  1
  Te  Te94  1  0.77329773  0.40664912  0.43099626  1
  Te  Te95  1  0.76348625  0.40929244  0.76041701  1
  Te  Te96  1  0.72196144  0.74455454  0.10399990  1
  Te  Te97  1  0.76098750  0.76771012  0.40907777  1
  Te  Te98  1  0.73890363  0.75094466  0.73364801  1
  Te  Te99  1  0.05993326  0.23238460  0.25799186  1
  Te  Te100  1  0.08128172  0.23942607  0.58864047  1
  Te  Te101  1  0.07886971  0.23838462  0.92096900  1
  Te  Te102  1  0.09288763  0.58805827  0.23526480  1
  Te  Te103  1  0.09089264  0.59504720  0.56911650  1
  Te  Te104  1  0.08251982  0.57284700  0.88923166  1
  Te  Te105  1  0.08039040  0.91914702  0.23084415  1
  Te  Te106  1  0.10959145  0.89259353  0.59995477  1
  Te  Te107  1  0.07695200  0.92400772  0.93419681  1
  Te  Te108  1  0.41722483  0.24046530  0.22960871  1
  Te  Te109  1  0.40524052  0.25087015  0.59179037  1
  Te  Te110  1  0.42152980  0.25277739  0.91149679  1
  Te  Te111  1  0.40431681  0.59170205  0.24381109  1
  Te  Te112  1  0.40691365  0.55828809  0.61867809  1
  Te  Te113  1  0.39799094  0.60803017  0.91970040  1
  Te  Te114  1  0.42601607  0.95265392  0.20158232  1
  Te  Te115  1  0.42930384  0.92922569  0.58563419  1
  Te  Te116  1  0.36569578  0.87645860  0.92594385  1
  Te  Te117  1  0.72128427  0.22494549  0.25729050  1
  Te  Te118  1  0.76619939  0.24608432  0.57794797  1
  Te  Te119  1  0.74919589  0.31370000  0.96464768  1
  Te  Te120  1  0.73587310  0.57283014  0.26312828  1
  Te  Te121  1  0.75426078  0.59836314  0.58274739  1
  Te  Te122  1  0.76247163  0.57980067  0.92397557  1
  Te  Te123  1  0.71703411  0.92528599  0.18671721  1
  Te  Te124  1  0.72539303  0.92523026  0.59125050  1
  Te  Te125  1  0.75379750  0.91581836  0.94598149  1
  Te  Te126  1  0.24638576  0.23177096  0.10414598  1
  Te  Te127  1  0.24174788  0.25085292  0.41557065  1
  Te  Te128  1  0.23559817  0.26454052  0.74720654  1
  Te  Te129  1  0.26736156  0.58383423  0.08695880  1
  Te  Te130  1  0.26148841  0.58821364  0.42751372  1
  Te  Te131  1  0.24411482  0.60912373  0.73461901  1
  Te  Te132  1  0.25782209  0.89334805  0.04240980  1
  Te  Te133  1  0.27407976  0.89794021  0.43016358  1
  Te  Te134  1  0.26293145  0.91099961  0.77999474  1
  Te  Te135  1  0.57617518  0.20013772  0.05217369  1
  Te  Te136  1  0.57322119  0.25443819  0.42283374  1
  Te  Te137  1  0.60735732  0.24893883  0.77861740  1
  Te  Te138  1  0.57621479  0.57947109  0.08006748  1
  Te  Te139  1  0.57895110  0.60137693  0.41940908  1
  Te  Te140  1  0.59891537  0.59693956  0.74501547  1
  Te  Te141  1  0.60737283  0.93156319  0.07473234  1
  Te  Te142  1  0.57725471  0.92470364  0.40186009  1
  Te  Te143  1  0.57051380  0.93333426  0.78024628  1
  Te  Te144  1  0.89784735  0.19679595  0.10621382  1
  Te  Te145  1  0.90665936  0.24932604  0.40758656  1
  Te  Te146  1  0.91749651  0.24168193  0.75525704  1
  Te  Te147  1  0.91865995  0.58524523  0.07986978  1
  Te  Te148  1  0.90294914  0.59238023  0.42554369  1
  Te  Te149  1  0.92290034  0.57475168  0.74610330  1
  Te  Te150  1  0.89938836  0.93693092  0.09132425  1
  Te  Te151  1  0.91849404  0.91413418  0.40341601  1
  Te  Te152  1  0.93354741  0.91763276  0.75742452  1
  Te  Te153  1  0.25645616  0.06377923  0.24927339  1
  Te  Te154  1  0.25856967  0.09559029  0.60185912  1
  Te  Te155  1  0.30351423  0.07517428  0.95108886  1
  Te  Te156  1  0.25190154  0.41940094  0.24349665  1
  Te  Te157  1  0.24981818  0.42372615  0.57242371  1
  Te  Te158  1  0.26102629  0.41062971  0.91297768  1
  Te  Te159  1  0.26843451  0.78359778  0.23595429  1
  Te  Te160  1  0.29913873  0.76073050  0.60612126  1
  Te  Te161  1  0.25718687  0.76581477  0.95013769  1
  Te  Te162  1  0.56207877  0.05233002  0.23275438  1
  Te  Te163  1  0.58845714  0.09741524  0.59817917  1
  Te  Te164  1  0.62416758  0.05725377  0.87063008  1
  Te  Te165  1  0.57822850  0.41543917  0.24464299  1
  Te  Te166  1  0.59605290  0.43103818  0.58947986  1
  Te  Te167  1  0.59691059  0.40529271  0.93630067  1
  Te  Te168  1  0.55686073  0.79264331  0.27580398  1
  Te  Te169  1  0.56824906  0.74301842  0.58184200  1
  Te  Te170  1  0.57079203  0.77026438  0.91662609  1
  Te  Te171  1  0.89175935  0.07278282  0.22228604  1
  Te  Te172  1  0.91248428  0.06542989  0.57506825  1
  Te  Te173  1  0.86777130  0.12129442  0.92044418  1
  Te  Te174  1  0.90547746  0.39532826  0.22652849  1
  Te  Te175  1  0.93005200  0.40019566  0.58988513  1
  Te  Te176  1  0.93987822  0.40383996  0.92676158  1
  Te  Te177  1  0.91381712  0.76621040  0.24341488  1
  Te  Te178  1  0.91866060  0.75326237  0.58303122  1
  Te  Te179  1  0.91405337  0.75726412  0.91183594  1
