# generated using pymatgen
data_In2Te3
_symmetry_space_group_name_H-M   'P 1'
_cell_length_a   18.78529398
_cell_length_b   18.78268786
_cell_length_c   18.78461893
_cell_angle_alpha   90.02698972
_cell_angle_beta   90.05150468
_cell_angle_gamma   89.92988459
_symmetry_Int_Tables_number   1
_chemical_formula_structural   In2Te3
_chemical_formula_sum   'In72 Te108'
_cell_volume   6627.92488329
_cell_formula_units_Z   36
loop_
 _symmetry_equiv_pos_site_id
 _symmetry_equiv_pos_as_xyz
  1  'x, y, z'
loop_
 _atom_site_type_symbol
 _atom_site_label
 _atom_site_symmetry_multiplicity
 _atom_site_fract_x
 _atom_site_fract_y
 _atom_site_fract_z
 _atom_site_occupancy
  In  In0  1  0.49515573  -0.02039475  0.81763387  1
  In  In1  1  0.50611010  0.63652236  0.48443847  1
  In  In2  1  -0.01219306  0.17276548  0.50779900  1
  In  In3  1  0.48865722  0.64115260  0.82729031  1
  In  In4  1  0.83004698  0.02761249  0.19188812  1
  In  In5  1  0.63697464  0.49320063  0.81456744  1
  In  In6  1  0.65332039  0.34522675  0.65433172  1
  In  In7  1  -0.02393190  0.17695552  0.82177943  1
  In  In8  1  0.14605096  0.18083955  0.65823311  1
  In  In9  1  0.16116060  0.36602795  0.83551907  1
  In  In10  1  0.17060863  0.52894686  0.01813847  1
  In  In11  1  -0.01162510  0.32693861  0.34359575  1
  In  In12  1  0.66108804  0.82286433  0.80723239  1
  In  In13  1  -0.00417440  0.48713306  0.17135270  1
  In  In14  1  0.51937787  0.47954831  0.64389519  1
  In  In15  1  -0.00468145  -0.00218400  -0.02328772  1
  In  In16  1  0.17509568  0.84889081  0.33241818  1
  In  In17  1  0.67528298  0.50893034  0.17089164  1
  In  In18  1  0.34616497  -0.01506857  0.64196509  1
  In  In19  1  0.21243853  0.51227145  0.35101788  1
  In  In20  1  0.17112004  0.82184716  0.66180490  1
  In  In21  1  0.83585233  0.48764851  0.00738611  1
  In  In22  1  0.63554138  0.81405515  0.18728337  1
  In  In23  1  -0.00803509  0.63822385  -0.00900252  1
  In  In24  1  0.65249867  -0.02239477  0.01411518  1
  In  In25  1  0.49292957  0.50405748  -0.00988797  1
  In  In26  1  0.18561657  0.66808508  0.16692196  1
  In  In27  1  0.50786139  0.83207796  0.35394832  1
  In  In28  1  0.49738899  0.82431465  0.02094323  1
  In  In29  1  0.00036789  0.84960289  0.48054948  1
  In  In30  1  0.33616463  0.18586717  0.20061025  1
  In  In31  1  0.50975130  0.34284926  0.48647726  1
  In  In32  1  0.66860232  0.01559165  0.34743110  1
  In  In33  1  0.32548223  -0.00514274  0.03326647  1
  In  In34  1  0.35996962  0.15338938  0.46302421  1
  In  In35  1  0.66755504  0.16732819  0.49397011  1
  In  In36  1  0.69010789  0.18610760  0.83750332  1
  In  In37  1  0.67359561  0.17118456  0.19777423  1
  In  In38  1  0.51011926  0.33348614  0.21287487  1
  In  In39  1  0.14726520  0.16090728  0.01537161  1
  In  In40  1  0.01223041  0.67442233  0.65314028  1
  In  In41  1  -0.00374252  0.83573267  0.17075782  1
  In  In42  1  0.16059293  -0.00890816  0.17230513  1
  In  In43  1  0.84428711  0.67322999  0.81941588  1
  In  In44  1  0.34066849  0.32212820  0.64336457  1
  In  In45  1  -0.00496980  0.51202505  0.81891394  1
  In  In46  1  0.82213998  0.86865543  0.63361151  1
  In  In47  1  0.15591087  0.36595505  0.18428971  1
  In  In48  1  0.18911353  0.49893783  0.64278891  1
  In  In49  1  0.35092331  0.85536178  0.18508906  1
  In  In50  1  0.15198681  0.00307152  0.82528070  1
  In  In51  1  0.35358533  0.33599828  0.01430607  1
  In  In52  1  0.30179781  0.80142912  0.85567603  1
  In  In53  1  0.50442374  0.16403467  0.00925277  1
  In  In54  1  0.53350543  0.33381793  0.83390271  1
  In  In55  1  0.00259567  0.68144202  0.33704757  1
  In  In56  1  0.82470155  0.82012441  -0.00386575  1
  In  In57  1  0.65698104  0.64002250  0.00835017  1
  In  In58  1  0.85745725  0.00405736  0.81803488  1
  In  In59  1  0.82191730  0.31634640  0.82355892  1
  In  In60  1  0.17387913  0.18696065  0.34942617  1
  In  In61  1  0.49780105  0.82441185  0.61878531  1
  In  In62  1  0.35456847  0.68395628  0.65082151  1
  In  In63  1  -0.04193198  0.29589528  0.02829282  1
  In  In64  1  0.34042540  0.13893000  0.80797295  1
  In  In65  1  0.80682461  0.64952978  0.49639457  1
  In  In66  1  0.79469667  0.49276816  0.35503739  1
  In  In67  1  0.82715736  0.15756701  0.64952289  1
  In  In68  1  0.81964771  0.83349216  0.36764767  1
  In  In69  1  0.34376017  0.52921939  0.81942910  1
  In  In70  1  0.17214516  0.00079705  0.49932623  1
  In  In71  1  -0.00605710  0.47278602  0.51267386  1
  Te  Te72  1  0.05528065  0.07510905  0.09767124  1
  Te  Te73  1  0.08000782  0.08695560  0.41482575  1
  Te  Te74  1  0.05793591  0.08106074  0.73448946  1
  Te  Te75  1  0.07291188  0.41320565  0.05808459  1
  Te  Te76  1  0.08787095  0.42820482  0.39982728  1
  Te  Te77  1  0.07963529  0.42554819  0.72350122  1
  Te  Te78  1  0.07075873  0.73417583  0.08629714  1
  Te  Te79  1  0.10458565  0.75012254  0.42650342  1
  Te  Te80  1  0.08210831  0.75369959  0.75649292  1
  Te  Te81  1  0.41693289  0.08984474  0.11012677  1
  Te  Te82  1  0.45489803  0.07127822  0.38371140  1
  Te  Te83  1  0.44433030  0.08037371  0.71371176  1
  Te  Te84  1  0.43371185  0.42143708  0.10852048  1
  Te  Te85  1  0.44608366  0.45519103  0.40687381  1
  Te  Te86  1  0.42087450  0.41164206  0.75144024  1
  Te  Te87  1  0.41013572  0.74362856  0.10705081  1
  Te  Te88  1  0.41058776  0.73601760  0.42252209  1
  Te  Te89  1  0.42593902  0.76605544  0.76155892  1
  Te  Te90  1  0.73592192  0.08401553  0.08320035  1
  Te  Te91  1  0.77414665  0.10694307  0.40430635  1
  Te  Te92  1  0.74271538  0.07423117  0.74579934  1
  Te  Te93  1  0.75058727  0.40573088  0.09412611  1
  Te  Te94  1  0.73383060  0.38496255  0.43792779  1
  Te  Te95  1  0.75148186  0.42549192  0.74079695  1
  Te  Te96  1  0.73578323  0.74219867  0.09053011  1
  Te  Te97  1  0.71779566  0.73630440  0.41363114  1
  Te  Te98  1  0.75951027  0.75108849  0.71859545  1
  Te  Te99  1  0.08186999  0.24964801  0.24421699  1
  Te  Te100  1  0.08635758  0.27169624  0.55878384  1
  Te  Te101  1  0.08322910  0.24911550  0.90743023  1
  Te  Te102  1  0.08620046  0.58303953  0.25243255  1
  Te  Te103  1  0.09500076  0.58633135  0.55998958  1
  Te  Te104  1  0.10239858  0.59145359  0.89329572  1
  Te  Te105  1  0.05946147  0.93049455  0.27148942  1
  Te  Te106  1  0.07975792  0.92170732  0.59101380  1
  Te  Te107  1  0.09953312  0.90789740  0.92467396  1
  Te  Te108  1  0.41229326  0.26362912  0.30173771  1
  Te  Te109  1  0.44131073  0.23474137  0.56999714  1
  Te  Te110  1  0.42190729  0.24768281  0.90711808  1
  Te  Te111  1  0.35652223  0.55580081  0.31312351  1
  Te  Te112  1  0.40479946  0.55733643  0.57854414  1
  Te  Te113  1  0.39085363  0.61324593  0.94414464  1
  Te  Te114  1  0.42276334  0.93937244  0.28703929  1
  Te  Te115  1  0.42362892  0.92201558  0.53374840  1
  Te  Te116  1  0.40796270  0.91557659  0.92883196  1
  Te  Te117  1  0.77903688  0.25909873  0.25121167  1
  Te  Te118  1  0.76201874  0.27256357  0.57180952  1
  Te  Te119  1  0.75469804  0.26287445  0.94540982  1
  Te  Te120  1  0.75543010  0.59773480  0.25849163  1
  Te  Te121  1  0.74267985  0.55359531  0.58562213  1
  Te  Te122  1  0.75321570  0.58073351  0.90333007  1
  Te  Te123  1  0.74055933  0.91551250  0.24602664  1
  Te  Te124  1  0.72601204  0.94211283  0.54617745  1
  Te  Te125  1  0.74397843  0.91589437  0.90455820  1
  Te  Te126  1  0.24508459  0.25424431  0.08802105  1
  Te  Te127  1  0.27138541  0.26870084  0.42720060  1
  Te  Te128  1  0.24598854  0.25931585  0.75636801  1
  Te  Te129  1  0.27585582  0.56221830  0.11458637  1
  Te  Te130  1  0.29084493  0.61396331  0.43665090  1
  Te  Te131  1  0.24677312  0.60808134  0.73335915  1
  Te  Te132  1  0.23217331  0.88768868  0.08671107  1
  Te  Te133  1  0.26962070  0.92686527  0.41673958  1
  Te  Te134  1  0.26589903  0.92366790  0.75768023  1
  Te  Te135  1  0.58260247  0.25562753  0.09943693  1
  Te  Te136  1  0.59809799  0.26038360  0.39926615  1
  Te  Te137  1  0.58711541  0.23217400  0.73265377  1
  Te  Te138  1  0.55364899  0.58820644  0.10417784  1
  Te  Te139  1  0.56082116  0.55377073  0.37086856  1
  Te  Te140  1  0.58618829  0.59984065  0.71777421  1
  Te  Te141  1  0.55621861  0.92775886  0.11899035  1
  Te  Te142  1  0.61252988  0.90675871  0.43886917  1
  Te  Te143  1  0.58600936  0.91487644  0.71347861  1
  Te  Te144  1  0.89073776  0.23440425  0.14698630  1
  Te  Te145  1  0.88969581  0.22818701  0.40317206  1
  Te  Te146  1  0.92660524  0.27464777  0.71256312  1
  Te  Te147  1  0.90142699  0.58794391  0.10262116  1
  Te  Te148  1  0.92318573  0.57586166  0.41457525  1
  Te  Te149  1  0.90721524  0.57988441  0.71527575  1
  Te  Te150  1  0.89852879  0.92300295  0.08430836  1
  Te  Te151  1  0.90188621  0.94397712  0.42116036  1
  Te  Te152  1  0.91910718  0.89507585  0.74180547  1
  Te  Te153  1  0.24600635  0.07903820  0.26311729  1
  Te  Te154  1  0.25641581  0.10208611  0.58466802  1
  Te  Te155  1  0.25234433  0.08597052  0.92893974  1
  Te  Te156  1  0.27544140  0.40673045  0.25980094  1
  Te  Te157  1  0.25463478  0.39969220  0.55193831  1
  Te  Te158  1  0.26853014  0.43035671  0.92507004  1
  Te  Te159  1  0.26862923  0.74973508  0.26445534  1
  Te  Te160  1  0.27108508  0.77289070  0.56571523  1
  Te  Te161  1  0.24618824  0.69608150  0.93892128  1
  Te  Te162  1  0.56493367  0.09434022  0.27043186  1
  Te  Te163  1  0.60724201  0.04529178  0.55287840  1
  Te  Te164  1  0.57981679  0.07418288  0.90873581  1
  Te  Te165  1  0.60526933  0.42889347  0.28144602  1
  Te  Te166  1  0.63373785  0.45537907  0.53304870  1
  Te  Te167  1  0.60618805  0.41273708  0.94158246  1
  Te  Te168  1  0.55121286  0.72092324  0.26386687  1
  Te  Te169  1  0.59476446  0.72698279  0.56442610  1
  Te  Te170  1  0.58623487  0.74587049  0.91609911  1
  Te  Te171  1  0.90988014  0.12906349  0.26528865  1
  Te  Te172  1  0.91293833  0.06273200  0.57571576  1
  Te  Te173  1  0.89498563  0.10375395  0.92834650  1
  Te  Te174  1  0.89637638  0.41751141  0.26108068  1
  Te  Te175  1  0.91504795  0.37672077  0.59058603  1
  Te  Te176  1  0.92420682  0.41006284  0.90763978  1
  Te  Te177  1  0.89819678  0.75564669  0.25559348  1
  Te  Te178  1  0.91134251  0.75284479  0.56194547  1
  Te  Te179  1  0.93355711  0.75713452  0.91070716  1
