# generated using pymatgen
data_In2Te3
_symmetry_space_group_name_H-M   'P 1'
_cell_length_a   18.93890995
_cell_length_b   18.94093692
_cell_length_c   18.95547932
_cell_angle_alpha   89.86808460
_cell_angle_beta   89.80977733
_cell_angle_gamma   89.87725463
_symmetry_Int_Tables_number   1
_chemical_formula_structural   In2Te3
_chemical_formula_sum   'In72 Te108'
_cell_volume   6799.65179560
_cell_formula_units_Z   36
loop_
 _symmetry_equiv_pos_site_id
 _symmetry_equiv_pos_as_xyz
  1  'x, y, z'
loop_
 _atom_site_type_symbol
 _atom_site_label
 _atom_site_symmetry_multiplicity
 _atom_site_fract_x
 _atom_site_fract_y
 _atom_site_fract_z
 _atom_site_occupancy
  In  In0  1  0.51829127  0.32475328  0.82507950  1
  In  In1  1  0.02117708  0.87136301  0.21258885  1
  In  In2  1  0.35075339  0.15183820  0.50038333  1
  In  In3  1  0.00019430  0.49809875  0.47488778  1
  In  In4  1  0.33931938  0.51107029  0.16064608  1
  In  In5  1  0.66409577  0.49044037  0.48594144  1
  In  In6  1  0.67633170  -0.00688569  0.64369069  1
  In  In7  1  0.52743306  0.49290570  0.32761185  1
  In  In8  1  0.67439917  0.64372453  0.33577199  1
  In  In9  1  0.83971829  0.17618037  0.01603955  1
  In  In10  1  0.01006566  0.33493683  0.65479487  1
  In  In11  1  0.01417298  0.01721519  0.02108028  1
  In  In12  1  0.49818645  0.83327403  0.64295198  1
  In  In13  1  0.30406622  0.50935939  0.80159526  1
  In  In14  1  0.16077446  0.50146685  0.64920263  1
  In  In15  1  0.31631527  0.82608424  0.82665252  1
  In  In16  1  0.68890518  0.35091174  0.03933730  1
  In  In17  1  0.68324283  0.18760215  0.16934309  1
  In  In18  1  0.69918029  0.51880739  0.83240442  1
  In  In19  1  0.32600207  0.33504259  -0.00663757  1
  In  In20  1  -0.09357895  0.16100977  0.49882737  1
  In  In21  1  -0.00561569  0.67801039  0.02077841  1
  In  In22  1  0.34669649  0.33281624  0.32687164  1
  In  In23  1  0.33132203  0.53439583  0.49302082  1
  In  In24  1  0.85403376  0.02435271  0.19367108  1
  In  In25  1  0.84788899  0.50823628  0.65407842  1
  In  In26  1  0.16022474  0.16893065  0.65692736  1
  In  In27  1  0.65701282  -0.00312200  -0.01517846  1
  In  In28  1  0.01969856  0.67587678  0.33228221  1
  In  In29  1  0.14244093  0.01975138  0.49068657  1
  In  In30  1  0.50814387  0.30547234  0.50216212  1
  In  In31  1  0.48438126  -0.01764411  0.17258109  1
  In  In32  1  0.18052507  0.52325552  0.01586763  1
  In  In33  1  0.67083916  0.00419843  0.34639433  1
  In  In34  1  0.71329845  0.35450592  0.28062088  1
  In  In35  1  0.82645116  0.84769831  -0.00188947  1
  In  In36  1  0.49523633  0.15630966  0.34068473  1
  In  In37  1  -0.00875837  0.47859672  0.20765439  1
  In  In38  1  0.83932862  0.67108638  0.18855398  1
  In  In39  1  -0.07489936  0.84227162  0.78172345  1
  In  In40  1  0.67198262  0.14032243  0.82607807  1
  In  In41  1  0.49786886  0.49317815  0.65088592  1
  In  In42  1  0.29150736  0.71016101  0.34089429  1
  In  In43  1  0.49752483  -0.02077036  0.82759103  1
  In  In44  1  0.67612832  0.84615477  0.16148856  1
  In  In45  1  0.18251648  0.32292548  0.18050106  1
  In  In46  1  0.50500372  0.64471158  0.15732271  1
  In  In47  1  0.85117091  0.33603949  0.83185960  1
  In  In48  1  0.14012335  0.16797142  0.33830816  1
  In  In49  1  0.69333991  0.15495530  0.50661750  1
  In  In50  1  0.69006954  0.78652071  0.82314053  1
  In  In51  1  0.01074429  0.67574464  0.65084555  1
  In  In52  1  0.50641782  0.50084230  -0.00905687  1
  In  In53  1  0.50502497  0.14583932  0.68041002  1
  In  In54  1  0.35056348  0.68404592  0.00774449  1
  In  In55  1  0.17269144  0.36059984  0.48920699  1
  In  In56  1  0.32472778  0.14893943  0.18699226  1
  In  In57  1  -0.09232684  0.54408989  0.87702920  1
  In  In58  1  0.50792261  0.66842775  0.83678424  1
  In  In59  1  0.12410016  0.32658755  0.82760485  1
  In  In60  1  0.12664837  0.66320982  0.81727941  1
  In  In61  1  -0.00229003  0.86796599  0.46705784  1
  In  In62  1  -0.00337294  0.32486204  0.01526393  1
  In  In63  1  0.31302933  0.82649512  0.52740934  1
  In  In64  1  -0.01414763  0.15599920  0.84348851  1
  In  In65  1  0.48555562  0.82655715  0.32638731  1
  In  In66  1  0.83697840  0.66960419  0.50261924  1
  In  In67  1  0.31488583  0.16279409  0.82777982  1
  In  In68  1  0.17372316  -0.02251183  0.82581299  1
  In  In69  1  0.66472335  0.82471764  0.49989012  1
  In  In70  1  0.16578029  0.83886681  0.01329094  1
  In  In71  1  0.33223892  -0.01168928  0.00194518  1
  Te  Te72  1  0.09607447  0.06551182  0.13296190  1
  Te  Te73  1  0.03507153  0.08591175  0.40819553  1
  Te  Te74  1  0.08602621  0.08152084  0.75602961  1
  Te  Te75  1  0.09643961  0.41887948  0.08760024  1
  Te  Te76  1  0.07744569  0.40610375  0.38580301  1
  Te  Te77  1  0.06142498  0.44200036  0.74886991  1
  Te  Te78  1  0.07551047  0.76524058  0.11139369  1
  Te  Te79  1  0.09666501  0.76692078  0.42083819  1
  Te  Te80  1  0.06498035  0.78083050  0.74593994  1
  Te  Te81  1  0.41697197  0.08457525  0.08238590  1
  Te  Te82  1  0.40363905  0.05753123  0.39919175  1
  Te  Te83  1  0.39715747  0.06156961  0.74859967  1
  Te  Te84  1  0.42209271  0.41105867  0.08186719  1
  Te  Te85  1  0.42920050  0.41226791  0.42608752  1
  Te  Te86  1  0.41705348  0.41507549  0.75572328  1
  Te  Te87  1  0.42836085  0.75840865  0.10474981  1
  Te  Te88  1  0.40718704  0.74732130  0.42876407  1
  Te  Te89  1  0.41959789  0.74864596  0.74631136  1
  Te  Te90  1  0.74793615  0.06516219  0.08514394  1
  Te  Te91  1  0.78780294  0.07212450  0.41559200  1
  Te  Te92  1  0.76501085  0.07897591  0.72806575  1
  Te  Te93  1  0.76411055  0.41148123  0.14846841  1
  Te  Te94  1  0.76348002  0.42020210  0.40417155  1
  Te  Te95  1  0.76146927  0.41537758  0.73878560  1
  Te  Te96  1  0.75509496  0.74381428  0.08272974  1
  Te  Te97  1  0.75627141  0.75057533  0.40246227  1
  Te  Te98  1  0.80372044  0.77050415  0.73193827  1
  Te  Te99  1  0.06814997  0.24548410  0.23335683  1
  Te  Te100  1  0.08564153  0.25168292  0.55369122  1
  Te  Te101  1  0.08282077  0.22808804  0.93622111  1
  Te  Te102  1  0.08752595  0.58330041  0.23984868  1
  Te  Te103  1  0.09021255  0.59268816  0.55136380  1
  Te  Te104  1  0.06281440  0.57110980  0.92289564  1
  Te  Te105  1  0.13831458  0.90702870  0.29796401  1
  Te  Te106  1  0.05879050  0.93927254  0.58673416  1
  Te  Te107  1  0.07272420  0.91620505  0.92243678  1
  Te  Te108  1  0.43159080  0.24713129  0.23651863  1
  Te  Te109  1  0.41436115  0.24276642  0.60371042  1
  Te  Te110  1  0.41414334  0.24619944  0.90711193  1
  Te  Te111  1  0.41870514  0.58484820  0.26694999  1
  Te  Te112  1  0.41240971  0.59813911  0.59466226  1
  Te  Te113  1  0.39347276  0.57068695  0.91316972  1
  Te  Te114  1  0.39273733  0.93071742  0.27621927  1
  Te  Te115  1  0.41228216  0.92587883  0.57136253  1
  Te  Te116  1  0.41625926  0.89114649  0.92054078  1
  Te  Te117  1  0.78409240  0.21864405  0.27409144  1
  Te  Te118  1  0.79746257  0.23835676  0.56590922  1
  Te  Te119  1  0.75547216  0.24098747  0.90681495  1
  Te  Te120  1  0.75001317  0.56233832  0.23854622  1
  Te  Te121  1  0.73932676  0.58459715  0.58117327  1
  Te  Te122  1  0.77971973  0.59513436  0.92633970  1
  Te  Te123  1  0.76365170  0.91948131  0.25910047  1
  Te  Te124  1  0.77046151  0.91781821  0.55385672  1
  Te  Te125  1  0.74446734  0.91730556  0.89207834  1
  Te  Te126  1  0.25183530  0.23475455  0.07891030  1
  Te  Te127  1  0.25872602  0.24551082  0.41516646  1
  Te  Te128  1  0.23724925  0.26578407  0.74531335  1
  Te  Te129  1  0.24891960  0.62089047  0.10650975  1
  Te  Te130  1  0.23257762  0.58978816  0.40154694  1
  Te  Te131  1  0.24029584  0.62244460  0.71602317  1
  Te  Te132  1  0.26066611  0.90607812  0.10354377  1
  Te  Te133  1  0.22320591  0.90447330  0.43217807  1
  Te  Te134  1  0.23949402  0.89527857  0.72080781  1
  Te  Te135  1  0.59709644  0.24121094  0.06423149  1
  Te  Te136  1  0.60417331  0.23662525  0.40776459  1
  Te  Te137  1  0.60803437  0.24399382  0.73290988  1
  Te  Te138  1  0.60103953  0.57425242  0.07346455  1
  Te  Te139  1  0.56801548  0.59528797  0.43211810  1
  Te  Te140  1  0.58708182  0.57540907  0.74829550  1
  Te  Te141  1  0.57115468  0.90638385  0.07092991  1
  Te  Te142  1  0.57299018  0.91389700  0.41747158  1
  Te  Te143  1  0.60004761  0.90497227  0.74517433  1
  Te  Te144  1  0.92088219  0.24633528  0.11489936  1
  Te  Te145  1  0.89588870  0.25599636  0.38011438  1
  Te  Te146  1  0.92076730  0.24137341  0.73587872  1
  Te  Te147  1  0.92442356  0.57475385  0.10600559  1
  Te  Te148  1  0.90808237  0.58864740  0.39727373  1
  Te  Te149  1  0.90142940  0.61695284  0.74370479  1
  Te  Te150  1  0.91879985  0.91460566  0.09849321  1
  Te  Te151  1  0.87220730  0.94125543  0.43576445  1
  Te  Te152  1  0.89640796  0.97347252  0.71939359  1
  Te  Te153  1  0.22254487  0.07051806  0.26002149  1
  Te  Te154  1  0.25235180  0.07299843  0.58483556  1
  Te  Te155  1  0.23560838  0.07560122  0.92411781  1
  Te  Te156  1  0.25388911  0.43087414  0.25883904  1
  Te  Te157  1  0.27042530  0.42007645  0.58517797  1
  Te  Te158  1  0.22891640  0.41673978  0.90677452  1
  Te  Te159  1  0.23516913  0.80072988  0.23947853  1
  Te  Te160  1  0.23230301  0.74794181  0.62129107  1
  Te  Te161  1  0.22809803  0.73090615  0.91429142  1
  Te  Te162  1  0.58996916  0.07669030  0.23799183  1
  Te  Te163  1  0.57537338  0.07613022  0.56563249  1
  Te  Te164  1  0.55896734  0.08793016  0.91325789  1
  Te  Te165  1  0.57979663  0.39814316  0.23106021  1
  Te  Te166  1  0.59651586  0.39613715  0.58469829  1
  Te  Te167  1  0.60758450  0.41322259  0.91175623  1
  Te  Te168  1  0.59565720  0.75032531  0.25053771  1
  Te  Te169  1  0.59845498  0.73740767  0.59661154  1
  Te  Te170  1  0.59620305  0.74155960  0.92554746  1
  Te  Te171  1  0.98458133  0.08247781  0.23542027  1
  Te  Te172  1  0.94828143  0.05274398  0.59547215  1
  Te  Te173  1  0.90087433  0.06586357  0.92952358  1
  Te  Te174  1  0.92409893  0.39304458  0.30971927  1
  Te  Te175  1  0.91465190  0.40816671  0.56218422  1
  Te  Te176  1  0.88854564  0.41324115  0.95593991  1
  Te  Te177  1  0.91870615  0.77234437  0.26863109  1
  Te  Te178  1  0.92724977  0.76986631  0.56675214  1
  Te  Te179  1  0.92545577  0.76490754  0.91905363  1
