# generated using pymatgen
data_In2Te3
_symmetry_space_group_name_H-M   'P 1'
_cell_length_a   18.78563983
_cell_length_b   18.79191717
_cell_length_c   18.77668658
_cell_angle_alpha   90.04123605
_cell_angle_beta   90.07572597
_cell_angle_gamma   90.01372715
_symmetry_Int_Tables_number   1
_chemical_formula_structural   In2Te3
_chemical_formula_sum   'In72 Te108'
_cell_volume   6628.50416945
_cell_formula_units_Z   36
loop_
 _symmetry_equiv_pos_site_id
 _symmetry_equiv_pos_as_xyz
  1  'x, y, z'
loop_
 _atom_site_type_symbol
 _atom_site_label
 _atom_site_symmetry_multiplicity
 _atom_site_fract_x
 _atom_site_fract_y
 _atom_site_fract_z
 _atom_site_occupancy
  In  In0  1  0.82741179  0.51415508  -0.00880413  1
  In  In1  1  0.34359858  0.15261485  0.18272768  1
  In  In2  1  0.16357602  0.33829688  0.17734822  1
  In  In3  1  0.51082544  0.66224035  0.82340265  1
  In  In4  1  0.00073347  0.16734720  0.83547338  1
  In  In5  1  0.69624732  0.15471047  0.18367546  1
  In  In6  1  0.66654066  0.50441210  0.83354795  1
  In  In7  1  0.18755803  0.49664778  0.33097014  1
  In  In8  1  0.50543699  0.01468709  0.52239389  1
  In  In9  1  0.33528825  0.84492255  0.84519486  1
  In  In10  1  0.34689228  0.65194889  0.62709987  1
  In  In11  1  0.84481047  0.48643255  0.66071651  1
  In  In12  1  0.82735834  0.67508760  0.48870673  1
  In  In13  1  -0.02759377  0.30614900  0.35988680  1
  In  In14  1  0.51732082  0.65242934  0.16290291  1
  In  In15  1  0.50159944  0.15869188  -0.00364411  1
  In  In16  1  0.01000271  -0.01357605  -0.00190282  1
  In  In17  1  0.51475092  0.82560892  -0.01164558  1
  In  In18  1  0.17709072  0.48538475  0.67769120  1
  In  In19  1  0.16297289  -0.01536300  0.17338565  1
  In  In20  1  0.51630026  -0.00159191  0.14290108  1
  In  In21  1  0.50452981  0.35092857  0.16802820  1
  In  In22  1  0.01795855  0.49969945  0.81880571  1
  In  In23  1  -0.03886481  0.16976574  0.17975486  1
  In  In24  1  0.69382649  0.01400468  0.35307971  1
  In  In25  1  0.67066078  -0.01360196  0.66792587  1
  In  In26  1  0.81248214  -0.02745559  0.83608690  1
  In  In27  1  0.68804688  0.84671688  0.50808533  1
  In  In28  1  -0.02479992  0.69326873  -0.03249156  1
  In  In29  1  0.14998019  -0.00297356  0.83725372  1
  In  In30  1  -0.01591029  0.00790055  0.67265257  1
  In  In31  1  0.17882818  0.67335359  0.14881297  1
  In  In32  1  0.31117951  0.83239244  0.15396012  1
  In  In33  1  0.81917638  0.17528297  0.62510330  1
  In  In34  1  0.33822945  0.17175188  0.81961248  1
  In  In35  1  0.33246605  0.33942426  0.67308354  1
  In  In36  1  -0.02789483  0.86388884  0.49592891  1
  In  In37  1  0.82803006  -0.00029425  0.16809204  1
  In  In38  1  0.32700309  0.01712321  0.67869858  1
  In  In39  1  0.83229860  0.29034323  0.17751835  1
  In  In40  1  -0.02034876  0.66978194  0.68945712  1
  In  In41  1  0.13384429  0.02186790  0.48953368  1
  In  In42  1  0.15359457  0.30287962  0.51358474  1
  In  In43  1  0.68765479  0.68553648  0.69455567  1
  In  In44  1  0.52356835  0.83515920  0.68951211  1
  In  In45  1  0.32310896  0.17991248  0.49442643  1
  In  In46  1  0.31664794  0.82858084  0.50594003  1
  In  In47  1  0.33610524  0.34275800  -0.00420299  1
  In  In48  1  0.34915919  0.35547615  0.36962785  1
  In  In49  1  0.15811243  0.16577497  -0.01540503  1
  In  In50  1  0.66520364  0.34318684  0.00105930  1
  In  In51  1  0.65779003  0.49919104  0.17235424  1
  In  In52  1  0.83098310  0.33900632  0.82366277  1
  In  In53  1  0.81049805  0.48602179  0.33546299  1
  In  In54  1  -0.00244392  0.83325372  0.17636831  1
  In  In55  1  0.34203523  0.66363109  0.29750276  1
  In  In56  1  0.34625347  0.48380531  0.83450686  1
  In  In57  1  0.51437117  0.81335217  0.32348751  1
  In  In58  1  0.64914518  0.16163091  0.82874586  1
  In  In59  1  0.50935208  0.63528718  0.49729514  1
  In  In60  1  0.32861815  -0.00343879  0.33100620  1
  In  In61  1  0.00912488  0.48224135  0.15050530  1
  In  In62  1  0.00510199  0.48229954  0.51811971  1
  In  In63  1  0.65931692  0.48561957  0.48739115  1
  In  In64  1  0.32433399  0.65020365  -0.01077509  1
  In  In65  1  0.50634641  0.18190131  0.66489031  1
  In  In66  1  0.53959851  0.19828094  0.36006486  1
  In  In67  1  -0.01562476  0.67602639  0.31789260  1
  In  In68  1  0.15336915  0.67398060  0.82865423  1
  In  In69  1  0.84256076  0.16671550  0.03289188  1
  In  In70  1  0.16552296  0.66757676  0.48401458  1
  In  In71  1  0.81951874  0.69909815  0.14182968  1
  Te  Te72  1  0.06924945  0.09222766  0.09284150  1
  Te  Te73  1  0.03115101  0.07986664  0.40036757  1
  Te  Te74  1  0.09223510  0.09515786  0.73614886  1
  Te  Te75  1  0.10956776  0.41809470  0.06506018  1
  Te  Te76  1  0.08479282  0.41130747  0.40645958  1
  Te  Te77  1  0.06458993  0.39408228  0.72143233  1
  Te  Te78  1  0.07530754  0.75372930  0.07182713  1
  Te  Te79  1  0.06262612  0.75842495  0.42034836  1
  Te  Te80  1  0.06514742  0.77033070  0.75819866  1
  Te  Te81  1  0.40124456  0.06759826  0.07023461  1
  Te  Te82  1  0.41992464  0.08814125  0.41635723  1
  Te  Te83  1  0.44240036  0.07548106  0.75676029  1
  Te  Te84  1  0.42536472  0.43182622  0.07471486  1
  Te  Te85  1  0.44577195  0.44051861  0.44282921  1
  Te  Te86  1  0.43939773  0.41132093  0.74624984  1
  Te  Te87  1  0.41162917  0.74347062  0.08128149  1
  Te  Te88  1  0.41436765  0.74642056  0.42179146  1
  Te  Te89  1  0.40541344  0.74452483  0.74324414  1
  Te  Te90  1  0.73253517  0.06512990  0.06416310  1
  Te  Te91  1  0.75803899  0.13259187  0.41351620  1
  Te  Te92  1  0.76480536  0.09355152  0.75190562  1
  Te  Te93  1  0.76826082  0.40938125  0.09434931  1
  Te  Te94  1  0.78086704  0.39989218  0.45459677  1
  Te  Te95  1  0.73264395  0.40857593  0.73133845  1
  Te  Te96  1  0.72742646  0.77593683  0.05574127  1
  Te  Te97  1  0.73820203  0.75566435  0.40397129  1
  Te  Te98  1  0.77630317  0.78221563  0.76068832  1
  Te  Te99  1  0.07088260  0.24775568  0.25717461  1
  Te  Te100  1  0.05430714  0.27592365  0.61683480  1
  Te  Te101  1  0.09115261  0.26566989  0.89984028  1
  Te  Te102  1  0.08828109  0.58355810  0.25032958  1
  Te  Te103  1  0.08297121  0.58883594  0.59680121  1
  Te  Te104  1  0.07973224  0.58579297  0.92883659  1
  Te  Te105  1  0.07554795  0.91652521  0.26992841  1
  Te  Te106  1  0.08061608  0.91813186  0.58818662  1
  Te  Te107  1  0.07338027  0.88963093  0.90591893  1
  Te  Te108  1  0.42281755  0.25267819  0.26683997  1
  Te  Te109  1  0.42241179  0.26561624  0.56741497  1
  Te  Te110  1  0.42939457  0.25809974  0.90733872  1
  Te  Te111  1  0.43914032  0.56387395  0.25316581  1
  Te  Te112  1  0.42207611  0.53488395  0.57091280  1
  Te  Te113  1  0.43667907  0.57299094  0.92214610  1
  Te  Te114  1  0.41905664  0.91129864  0.24169598  1
  Te  Te115  1  0.41457972  0.91230216  0.59273977  1
  Te  Te116  1  0.43378955  0.92719399  0.91626486  1
  Te  Te117  1  0.75467638  0.23915161  0.29522171  1
  Te  Te118  1  0.72429510  0.27730324  0.57658742  1
  Te  Te119  1  0.75819698  0.24598716  0.92403708  1
  Te  Te120  1  0.76030896  0.59127290  0.24039384  1
  Te  Te121  1  0.74843451  0.58614882  0.58511100  1
  Te  Te122  1  0.72784213  0.60382230  0.92818616  1
  Te  Te123  1  0.73298098  0.91882826  0.24798495  1
  Te  Te124  1  0.77909831  0.93486801  0.58223922  1
  Te  Te125  1  0.76615636  0.87390045  0.93878584  1
  Te  Te126  1  0.25590532  0.23840594  0.08796513  1
  Te  Te127  1  0.23436952  0.25109285  0.39481229  1
  Te  Te128  1  0.23945813  0.24842498  0.74217956  1
  Te  Te129  1  0.25752684  0.56455653  0.08933712  1
  Te  Te130  1  0.27391426  0.58540916  0.41828440  1
  Te  Te131  1  0.26028202  0.59180814  0.75304391  1
  Te  Te132  1  0.23811663  0.92241904  0.06353473  1
  Te  Te133  1  0.23159621  0.92082050  0.42069702  1
  Te  Te134  1  0.24088092  0.91149152  0.74448856  1
  Te  Te135  1  0.59221110  0.23782818  0.09619145  1
  Te  Te136  1  0.60874108  0.27464661  0.46835269  1
  Te  Te137  1  0.57930238  0.27104704  0.75948529  1
  Te  Te138  1  0.60093105  0.57973417  0.06240262  1
  Te  Te139  1  0.59770056  0.58195552  0.39281709  1
  Te  Te140  1  0.58401382  0.57619647  0.72193312  1
  Te  Te141  1  0.60252309  0.88568903  0.09766839  1
  Te  Te142  1  0.57400910  0.92320040  0.42059740  1
  Te  Te143  1  0.59716040  0.92423226  0.77969949  1
  Te  Te144  1  0.94255019  0.27504776  0.06937210  1
  Te  Te145  1  0.90377990  0.20629307  0.44549794  1
  Te  Te146  1  0.90779011  0.24028382  0.73747808  1
  Te  Te147  1  0.92451074  0.59586834  0.08899370  1
  Te  Te148  1  0.92364278  0.57377609  0.41691745  1
  Te  Te149  1  0.89344274  0.57734976  0.77364941  1
  Te  Te150  1  0.90733835  0.90567151  0.07594380  1
  Te  Te151  1  0.91737408  0.95655618  0.39426824  1
  Te  Te152  1  0.92712224  0.90723090  0.76677855  1
  Te  Te153  1  0.22976146  0.09111418  0.26368238  1
  Te  Te154  1  0.23546976  0.09335363  0.58295538  1
  Te  Te155  1  0.25796762  0.07698903  0.91103662  1
  Te  Te156  1  0.28043823  0.41431331  0.24423665  1
  Te  Te157  1  0.24549942  0.41471549  0.56294688  1
  Te  Te158  1  0.23985827  0.40610142  0.90120009  1
  Te  Te159  1  0.23062314  0.76265016  0.26344820  1
  Te  Te160  1  0.22851179  0.74729572  0.59949320  1
  Te  Te161  1  0.23886811  0.75825456  0.92582215  1
  Te  Te162  1  0.57618157  0.08180737  0.25745190  1
  Te  Te163  1  0.61117328  0.10099211  0.58347949  1
  Te  Te164  1  0.60103603  0.06789391  0.93273399  1
  Te  Te165  1  0.60565286  0.39702137  0.26547090  1
  Te  Te166  1  0.56430365  0.39628326  0.55912377  1
  Te  Te167  1  0.57523207  0.42183411  0.91675314  1
  Te  Te168  1  0.60925064  0.74589946  0.23451847  1
  Te  Te169  1  0.58432255  0.74924464  0.57980553  1
  Te  Te170  1  0.60571279  0.74840894  0.89817842  1
  Te  Te171  1  0.91262943  0.06523424  0.27843662  1
  Te  Te172  1  0.92574072  0.08939056  0.55965295  1
  Te  Te173  1  0.90869414  0.07593807  0.92029717  1
  Te  Te174  1  0.92010492  0.41230791  0.25407358  1
  Te  Te175  1  0.90606010  0.38259252  0.56998889  1
  Te  Te176  1  0.92174215  0.42180659  0.91398691  1
  Te  Te177  1  0.88357633  0.77387252  0.26122608  1
  Te  Te178  1  0.90499966  0.75918971  0.58888918  1
  Te  Te179  1  0.87062122  0.76159642  0.88540639  1
