# generated using pymatgen
data_In2Te3
_symmetry_space_group_name_H-M   'P 1'
_cell_length_a   18.85855267
_cell_length_b   18.84893050
_cell_length_c   18.85660522
_cell_angle_alpha   89.93276418
_cell_angle_beta   89.95941383
_cell_angle_gamma   89.99551918
_symmetry_Int_Tables_number   1
_chemical_formula_structural   In2Te3
_chemical_formula_sum   'In72 Te108'
_cell_volume   6702.82948832
_cell_formula_units_Z   36
loop_
 _symmetry_equiv_pos_site_id
 _symmetry_equiv_pos_as_xyz
  1  'x, y, z'
loop_
 _atom_site_type_symbol
 _atom_site_label
 _atom_site_symmetry_multiplicity
 _atom_site_fract_x
 _atom_site_fract_y
 _atom_site_fract_z
 _atom_site_occupancy
  In  In0  1  0.49353461  0.84926708  0.66850844  1
  In  In1  1  -0.01248752  0.02816672  0.00664629  1
  In  In2  1  0.36269740  0.46431808  0.77711923  1
  In  In3  1  0.15482030  0.67978078  0.85994467  1
  In  In4  1  0.68021070  0.49373194  0.49883558  1
  In  In5  1  0.15996187  0.48500946  0.01738860  1
  In  In6  1  0.31129157  0.66607456  0.65926219  1
  In  In7  1  0.34403754  0.33528444  0.35468552  1
  In  In8  1  0.34125103  0.17431042  0.49811928  1
  In  In9  1  0.65091746  0.83174066  0.16292385  1
  In  In10  1  0.68009956  0.83063432  0.48871027  1
  In  In11  1  0.16033823  0.16053221  0.01874000  1
  In  In12  1  0.34226982  0.15860921  0.80762981  1
  In  In13  1  0.17830835  -0.00283220  0.81045361  1
  In  In14  1  -0.00804818  0.68761447  -0.00049022  1
  In  In15  1  0.48671584  0.86143447  0.00738510  1
  In  In16  1  0.50292847  0.83195658  0.34530482  1
  In  In17  1  0.50813466  0.16708178  -0.02577453  1
  In  In18  1  0.34105160  0.47864521  0.50919652  1
  In  In19  1  0.18031276  0.01687152  0.49589293  1
  In  In20  1  0.14568281  0.65460872  0.48652218  1
  In  In21  1  0.52179709  0.03596316  0.18970506  1
  In  In22  1  0.35030901  0.50571816  0.17271933  1
  In  In23  1  -0.05028548  0.18827407  0.79944805  1
  In  In24  1  0.83638580  0.48691477  -0.00987817  1
  In  In25  1  0.68494446  0.14829178  0.82178603  1
  In  In26  1  0.52730716  0.67604736  0.81851921  1
  In  In27  1  -0.01118040  0.83874730  0.18226370  1
  In  In28  1  -0.00585770  0.18864247  0.19410998  1
  In  In29  1  -0.03193386  0.49849326  0.47999278  1
  In  In30  1  0.65795719  0.01557116  0.64755854  1
  In  In31  1  0.15126119  0.18588769  0.64421834  1
  In  In32  1  0.67200788  0.66569687  0.01948656  1
  In  In33  1  0.16055001  0.83569734  0.01107778  1
  In  In34  1  0.15266915  0.85001416  0.69899620  1
  In  In35  1  0.82269542  0.15178338  -0.00605993  1
  In  In36  1  0.17296374  0.81856672  0.34486330  1
  In  In37  1  0.00336133  0.33845915  0.34904339  1
  In  In38  1  0.31401135  0.82578248  0.17014142  1
  In  In39  1  0.31740287  0.65725813  -0.02164016  1
  In  In40  1  0.17068543  0.49680414  0.65591201  1
  In  In41  1  0.83239840  0.31792637  0.18089981  1
  In  In42  1  0.82215976  -0.00735861  0.16021732  1
  In  In43  1  0.78815103  0.15029992  0.35506376  1
  In  In44  1  0.33015132  0.30147442  -0.01092802  1
  In  In45  1  0.82551802  0.33364894  0.49603930  1
  In  In46  1  0.83379017  0.82186682  0.34468390  1
  In  In47  1  0.35285392  0.83592135  0.52700797  1
  In  In48  1  0.36473850  0.01044444  0.32351825  1
  In  In49  1  0.70070047  0.86566333  0.85765356  1
  In  In50  1  0.66780205  0.32739649  0.64611946  1
  In  In51  1  -0.01016071  0.83326555  0.83691824  1
  In  In52  1  0.01217034  0.35576942  -0.00930804  1
  In  In53  1  0.50684692  0.16914073  0.65873509  1
  In  In54  1  -0.01462255  0.51149316  0.18430840  1
  In  In55  1  0.00967029  0.01139577  0.35736702  1
  In  In56  1  0.65834779  0.32276247  -0.00931789  1
  In  In57  1  0.50882892  0.51172664  -0.00105794  1
  In  In58  1  -0.02504875  0.51709864  0.79142273  1
  In  In59  1  0.70180056  0.51529118  0.20660289  1
  In  In60  1  0.68749224  0.48428741  0.80784948  1
  In  In61  1  0.15501684  0.48679579  0.34444074  1
  In  In62  1  0.34732276  -0.01707119  -0.00210611  1
  In  In63  1  -0.02467896  0.82774341  0.51003153  1
  In  In64  1  0.52059561  0.35234396  0.18436074  1
  In  In65  1  0.31743529  0.16221159  0.18082944  1
  In  In66  1  0.50184399  0.65291673  0.48552845  1
  In  In67  1  0.16334725  0.32571319  0.85078267  1
  In  In68  1  0.48615761  0.67957040  0.19768824  1
  In  In69  1  0.82978616  0.81840287  0.67832149  1
  In  In70  1  -0.01680801  0.03533355  0.63521602  1
  In  In71  1  0.68213908  0.65225343  0.64803822  1
  Te  Te72  1  0.07639346  0.08111522  0.11693699  1
  Te  Te73  1  0.07478165  0.11113587  0.44746602  1
  Te  Te74  1  0.07580722  0.09317379  0.74878721  1
  Te  Te75  1  0.07685123  0.40607002  0.11775834  1
  Te  Te76  1  0.10081165  0.39396453  0.45492322  1
  Te  Te77  1  0.08428331  0.41437781  0.75415186  1
  Te  Te78  1  0.08699471  0.74359360  0.10424413  1
  Te  Te79  1  0.05230057  0.74543772  0.40682220  1
  Te  Te80  1  0.06834775  0.73266455  0.74685481  1
  Te  Te81  1  0.41367313  0.09482536  0.07984511  1
  Te  Te82  1  0.44328824  0.09232492  0.42084662  1
  Te  Te83  1  0.44370229  0.07034184  0.75036372  1
  Te  Te84  1  0.42103187  0.40484690  0.07008060  1
  Te  Te85  1  0.44456806  0.42209989  0.41852878  1
  Te  Te86  1  0.44737150  0.38918391  0.68374140  1
  Te  Te87  1  0.41372526  0.73550344  0.07531467  1
  Te  Te88  1  0.40023645  0.74380227  0.41506395  1
  Te  Te89  1  0.41196652  0.74564078  0.74640241  1
  Te  Te90  1  0.73855370  0.09843932  0.10074339  1
  Te  Te91  1  0.69652026  0.05541067  0.42619323  1
  Te  Te92  1  0.77134065  0.07906117  0.72211846  1
  Te  Te93  1  0.74004057  0.41504647  0.08697084  1
  Te  Te94  1  0.72648478  0.39056528  0.39979946  1
  Te  Te95  1  0.77303946  0.38513987  0.73656744  1
  Te  Te96  1  0.75686173  0.76438024  0.08621196  1
  Te  Te97  1  0.77788579  0.72396719  0.44597796  1
  Te  Te98  1  0.72531182  0.74467673  0.76096942  1
  Te  Te99  1  0.09820459  0.24964859  0.27715156  1
  Te  Te100  1  0.08114081  0.26228886  0.54076750  1
  Te  Te101  1  0.06605900  0.22662010  0.91569295  1
  Te  Te102  1  0.07844501  0.58684623  0.26880065  1
  Te  Te103  1  0.06175557  0.57276326  0.58176370  1
  Te  Te104  1  0.07028958  0.56955038  0.92534502  1
  Te  Te105  1  0.08780283  0.91864993  0.26486276  1
  Te  Te106  1  0.08289382  0.92484864  0.57690831  1
  Te  Te107  1  0.08262782  0.93246069  0.92006906  1
  Te  Te108  1  0.43010548  0.24276726  0.25078130  1
  Te  Te109  1  0.42075206  0.26932163  0.58421785  1
  Te  Te110  1  0.42907611  0.26153395  0.88269158  1
  Te  Te111  1  0.43437950  0.56678389  0.27622002  1
  Te  Te112  1  0.41849699  0.58263280  0.59312489  1
  Te  Te113  1  0.42148002  0.58233840  0.89497104  1
  Te  Te114  1  0.43379334  0.90688628  0.22392947  1
  Te  Te115  1  0.44663735  0.94283867  0.56358303  1
  Te  Te116  1  0.43134328  0.93082970  0.88915076  1
  Te  Te117  1  0.72781496  0.24306318  0.25438872  1
  Te  Te118  1  0.75038076  0.22044788  0.57153972  1
  Te  Te119  1  0.76334690  0.25828249  0.90361769  1
  Te  Te120  1  0.79643308  0.60539255  0.27553815  1
  Te  Te121  1  0.77807284  0.54388724  0.60392102  1
  Te  Te122  1  0.74370386  0.58077099  0.91375835  1
  Te  Te123  1  0.74158865  0.91038520  0.25974091  1
  Te  Te124  1  0.75924251  0.91641426  0.58552324  1
  Te  Te125  1  0.79046207  0.95399853  0.92881600  1
  Te  Te126  1  0.23391728  0.26544743  0.10012957  1
  Te  Te127  1  0.24838591  0.23117849  0.39856541  1
  Te  Te128  1  0.24636001  0.25737508  0.74321314  1
  Te  Te129  1  0.24551546  0.58625166  0.09227209  1
  Te  Te130  1  0.25486752  0.57389172  0.42234373  1
  Te  Te131  1  0.23930056  0.58471478  0.76664173  1
  Te  Te132  1  0.23868107  0.93504172  0.09567070  1
  Te  Te133  1  0.26886862  0.91803979  0.41624370  1
  Te  Te134  1  0.27633409  0.92282616  0.72933943  1
  Te  Te135  1  0.57644240  0.24393790  0.09107660  1
  Te  Te136  1  0.53185609  0.21135938  0.36249791  1
  Te  Te137  1  0.59291851  0.25017019  0.75509715  1
  Te  Te138  1  0.58557735  0.57758648  0.11318242  1
  Te  Te139  1  0.62095567  0.60283872  0.41615814  1
  Te  Te140  1  0.58427979  0.56640749  0.72956512  1
  Te  Te141  1  0.58895554  0.94632187  0.08227872  1
  Te  Te142  1  0.58210696  0.92761672  0.42747040  1
  Te  Te143  1  0.60353306  0.91664951  0.75490628  1
  Te  Te144  1  0.91833905  0.25490017  0.06988533  1
  Te  Te145  1  0.90363410  0.23649683  0.40709259  1
  Te  Te146  1  0.90915702  0.27936024  0.69072325  1
  Te  Te147  1  0.90523020  0.58769546  0.07955107  1
  Te  Te148  1  0.86749745  0.58525914  0.41372328  1
  Te  Te149  1  0.87623915  0.59423157  0.71542348  1
  Te  Te150  1  0.91446473  0.90854017  0.06894485  1
  Te  Te151  1  0.90088894  0.93462425  0.43052946  1
  Te  Te152  1  0.92979814  0.92169618  0.72968675  1
  Te  Te153  1  0.24225693  0.07004435  0.26705009  1
  Te  Te154  1  0.26217025  0.08835058  0.60075341  1
  Te  Te155  1  0.25273365  0.09009172  0.91954721  1
  Te  Te156  1  0.25865579  0.41605161  0.25497462  1
  Te  Te157  1  0.25524515  0.39335206  0.59454974  1
  Te  Te158  1  0.26050175  0.42376674  0.91773323  1
  Te  Te159  1  0.25219931  0.72805857  0.25933841  1
  Te  Te160  1  0.22242622  0.75662245  0.57442244  1
  Te  Te161  1  0.25934293  0.78077104  0.90864403  1
  Te  Te162  1  0.61449312  0.10349718  0.29092294  1
  Te  Te163  1  0.60706520  0.12433151  0.55426743  1
  Te  Te164  1  0.60393204  0.07132153  0.91888952  1
  Te  Te165  1  0.61045842  0.42220956  0.28109532  1
  Te  Te166  1  0.57269204  0.41344832  0.56912242  1
  Te  Te167  1  0.58030374  0.41915378  0.90219619  1
  Te  Te168  1  0.60275864  0.73909812  0.27592504  1
  Te  Te169  1  0.57760407  0.75277892  0.58230244  1
  Te  Te170  1  0.58228341  0.75929357  0.93446469  1
  Te  Te171  1  0.90525998  0.07983313  0.25771266  1
  Te  Te172  1  0.87619091  0.12751237  0.58874430  1
  Te  Te173  1  0.89712060  0.06129271  0.88570322  1
  Te  Te174  1  0.89961902  0.41941062  0.27122030  1
  Te  Te175  1  0.92927471  0.39712885  0.58609660  1
  Te  Te176  1  0.91568868  0.41055484  0.88555556  1
  Te  Te177  1  0.89979208  0.73491112  0.24122282  1
  Te  Te178  1  0.91334404  0.72441424  0.59783143  1
  Te  Te179  1  0.89715339  0.73935159  0.90074783  1
