# generated using pymatgen
data_In2Te3
_symmetry_space_group_name_H-M   'P 1'
_cell_length_a   18.76447874
_cell_length_b   18.77044561
_cell_length_c   18.75927136
_cell_angle_alpha   89.96812365
_cell_angle_beta   89.97896031
_cell_angle_gamma   90.04758951
_symmetry_Int_Tables_number   1
_chemical_formula_structural   In2Te3
_chemical_formula_sum   'In72 Te108'
_cell_volume   6607.34230778
_cell_formula_units_Z   36
loop_
 _symmetry_equiv_pos_site_id
 _symmetry_equiv_pos_as_xyz
  1  'x, y, z'
loop_
 _atom_site_type_symbol
 _atom_site_label
 _atom_site_symmetry_multiplicity
 _atom_site_fract_x
 _atom_site_fract_y
 _atom_site_fract_z
 _atom_site_occupancy
  In  In0  1  0.32432547  -0.03112305  0.34676753  1
  In  In1  1  0.67436906  0.84453867  0.84212298  1
  In  In2  1  0.15146480  0.66706313  0.82917781  1
  In  In3  1  0.67246403  0.68687493  0.00837885  1
  In  In4  1  0.84535524  0.48783280  0.02077885  1
  In  In5  1  0.83211956  -0.00556932  0.85364538  1
  In  In6  1  0.16105685  0.16800170  0.33364287  1
  In  In7  1  0.48904765  -0.00430009  0.47827014  1
  In  In8  1  0.31177512  0.33389957  0.66421274  1
  In  In9  1  0.67839423  0.33673099  -0.00950613  1
  In  In10  1  0.49358655  0.82872464  0.33924482  1
  In  In11  1  0.67973819  0.15544902  0.49720567  1
  In  In12  1  0.15533119  0.79959938  0.01980891  1
  In  In13  1  0.32106897  -0.01445998  0.00910278  1
  In  In14  1  -0.00278554  0.66330071  0.01584019  1
  In  In15  1  0.32172937  0.83029089  0.19653130  1
  In  In16  1  0.34043735  -0.01752606  0.66580936  1
  In  In17  1  0.83010440  0.00808587  0.16686901  1
  In  In18  1  0.50925912  0.33076832  0.82977889  1
  In  In19  1  0.35741394  0.80536755  0.79223531  1
  In  In20  1  0.16468282  0.14158637  0.66920639  1
  In  In21  1  -0.01412253  0.00057342  0.01079801  1
  In  In22  1  -0.00864965  0.17014652  0.15615517  1
  In  In23  1  0.69380586  0.36633293  0.33197976  1
  In  In24  1  -0.00201435  0.82185807  0.83449483  1
  In  In25  1  0.68930677  0.17479577  0.17255717  1
  In  In26  1  0.66676570  0.47875480  0.82946429  1
  In  In27  1  0.15786144  0.31902303  0.83628632  1
  In  In28  1  0.84873243  0.80075889  0.33342454  1
  In  In29  1  0.49436705  0.65959110  0.17053959  1
  In  In30  1  0.33735261  0.33774337  0.01330118  1
  In  In31  1  0.48589422  0.34828080  0.49467540  1
  In  In32  1  0.32674265  0.50492995  0.84253348  1
  In  In33  1  0.32485454  0.81201869  0.47788923  1
  In  In34  1  0.02753236  -0.02768014  0.63716932  1
  In  In35  1  0.85084214  0.66046192  0.84093349  1
  In  In36  1  0.33904229  0.15638511  0.17607807  1
  In  In37  1  -0.04013056  0.18510367  0.47524294  1
  In  In38  1  0.66086565  0.83914484  0.16214567  1
  In  In39  1  -0.00098725  0.51318777  0.47775497  1
  In  In40  1  0.15409403  0.35487662  0.16596609  1
  In  In41  1  0.83589180  0.16086173  0.66694467  1
  In  In42  1  0.67225718  0.53732255  0.20435227  1
  In  In43  1  0.84411411  0.32524599  0.17471703  1
  In  In44  1  0.83781078  0.82739363  0.63970527  1
  In  In45  1  0.50735107  0.18309461  0.31117963  1
  In  In46  1  0.50822518  0.51159470  0.64239808  1
  In  In47  1  0.30830701  0.17125309  0.51005650  1
  In  In48  1  0.84732588  0.67281122  0.49814024  1
  In  In49  1  0.65670201  0.68194902  0.64137614  1
  In  In50  1  0.68325861  -0.02983026  0.66291127  1
  In  In51  1  0.51751575  0.84056530  0.00073239  1
  In  In52  1  -0.01045179  0.35269199  0.65745856  1
  In  In53  1  0.66699803  0.01582336  0.34804794  1
  In  In54  1  0.17342629  0.51117916  0.66018135  1
  In  In55  1  0.51568584  0.16303212  0.69449869  1
  In  In56  1  0.83747404  0.33741598  0.84539576  1
  In  In57  1  0.50473032  0.16040208  -0.01612200  1
  In  In58  1  0.00703923  -0.02587600  0.32997809  1
  In  In59  1  0.15371884  0.68995911  0.48496128  1
  In  In60  1  0.32916298  0.64984856  0.00042855  1
  In  In61  1  0.85581320  0.51918180  0.66058577  1
  In  In62  1  0.16237487  0.66905657  0.18175247  1
  In  In63  1  0.33577642  0.53742391  0.48685009  1
  In  In64  1  -0.00365282  0.50008103  0.18398023  1
  In  In65  1  0.13347104  0.33119736  0.47672222  1
  In  In66  1  0.51344713  0.36303157  0.17621818  1
  In  In67  1  0.13868782  0.15398618  -0.00117132  1
  In  In68  1  0.63949117  0.33902785  0.64209621  1
  In  In69  1  0.32184824  0.52036846  0.18172334  1
  In  In70  1  0.51196152  0.00386187  0.83430739  1
  In  In71  1  0.17813282  -0.00559151  0.82609699  1
  Te  Te72  1  0.08887724  0.06167443  0.10928040  1
  Te  Te73  1  0.06749474  0.08991064  0.42366229  1
  Te  Te74  1  0.06501858  0.07029084  0.75762415  1
  Te  Te75  1  0.05675105  0.41851671  0.07588094  1
  Te  Te76  1  0.08182282  0.43197562  0.38202118  1
  Te  Te77  1  0.08547596  0.42569269  0.75153804  1
  Te  Te78  1  0.04813301  0.76871655  0.12899765  1
  Te  Te79  1  0.06180002  0.78176815  0.39921246  1
  Te  Te80  1  0.08091054  0.75482185  0.73288208  1
  Te  Te81  1  0.42467715  0.07130369  0.08221257  1
  Te  Te82  1  0.40654499  0.10073524  0.40407040  1
  Te  Te83  1  0.40292023  0.08408760  0.76107327  1
  Te  Te84  1  0.41822123  0.44340989  0.08733076  1
  Te  Te85  1  0.41038661  0.43725351  0.40557442  1
  Te  Te86  1  0.42126352  0.41640909  0.73497947  1
  Te  Te87  1  0.40966365  0.76092820  0.08418026  1
  Te  Te88  1  0.41707529  0.71819444  0.40368743  1
  Te  Te89  1  0.45136245  0.73283966  0.70344031  1
  Te  Te90  1  0.76393336  0.09959200  0.07057747  1
  Te  Te91  1  0.77969316  0.07541413  0.42399084  1
  Te  Te92  1  0.74370002  0.07500011  0.75398579  1
  Te  Te93  1  0.73195820  0.41789946  0.10998950  1
  Te  Te94  1  0.77709639  0.40868930  0.44515512  1
  Te  Te95  1  0.75695014  0.41265276  0.72523939  1
  Te  Te96  1  0.76290521  0.74352374  0.10986942  1
  Te  Te97  1  0.73493868  0.74553226  0.42372013  1
  Te  Te98  1  0.75662374  0.74416580  0.75003152  1
  Te  Te99  1  0.07003363  0.25882931  0.25306994  1
  Te  Te100  1  0.07953608  0.24198189  0.58909363  1
  Te  Te101  1  0.05865721  0.25006954  0.92136949  1
  Te  Te102  1  0.08700612  0.57863301  0.27549724  1
  Te  Te103  1  0.07283322  0.59425593  0.58342242  1
  Te  Te104  1  0.07861605  0.58061111  0.92451393  1
  Te  Te105  1  0.11055866  0.87314778  0.28955957  1
  Te  Te106  1  0.08472347  0.88675367  0.52932957  1
  Te  Te107  1  0.09287682  0.90990222  0.92419658  1
  Te  Te108  1  0.40576125  0.27580251  0.24589189  1
  Te  Te109  1  0.42486955  0.24222692  0.59154636  1
  Te  Te110  1  0.40611577  0.24952606  0.90781811  1
  Te  Te111  1  0.40697346  0.60149885  0.27600860  1
  Te  Te112  1  0.41372362  0.61567814  0.58852108  1
  Te  Te113  1  0.42760574  0.58907034  0.90902922  1
  Te  Te114  1  0.43001145  0.92851458  0.24235449  1
  Te  Te115  1  0.42251495  0.89581956  0.57220550  1
  Te  Te116  1  0.40644734  0.90902190  0.90510525  1
  Te  Te117  1  0.76878970  0.23564009  0.28642343  1
  Te  Te118  1  0.75646227  0.25806976  0.57927003  1
  Te  Te119  1  0.76188975  0.23588734  0.92354526  1
  Te  Te120  1  0.77523930  0.58479347  0.30128444  1
  Te  Te121  1  0.74746017  0.58074032  0.57256932  1
  Te  Te122  1  0.75042131  0.57202969  0.92105323  1
  Te  Te123  1  0.75230828  0.91280189  0.26621778  1
  Te  Te124  1  0.75440582  0.91028760  0.54953343  1
  Te  Te125  1  0.75489884  0.90862113  0.94726892  1
  Te  Te126  1  0.24337017  0.23869341  0.08687634  1
  Te  Te127  1  0.25539566  0.26677776  0.40551387  1
  Te  Te128  1  0.25409695  0.22895854  0.75722484  1
  Te  Te129  1  0.22181728  0.57448511  0.07671346  1
  Te  Te130  1  0.22226027  0.58524150  0.40309028  1
  Te  Te131  1  0.26387219  0.60137399  0.74266531  1
  Te  Te132  1  0.22888416  0.90767933  0.10199702  1
  Te  Te133  1  0.21624338  0.91587676  0.43806174  1
  Te  Te134  1  0.23978311  0.88908978  0.73381674  1
  Te  Te135  1  0.57612785  0.25333598  0.08856068  1
  Te  Te136  1  0.58947941  0.25549609  0.41629927  1
  Te  Te137  1  0.61934655  0.24735208  0.76634548  1
  Te  Te138  1  0.58811506  0.58153685  0.08049367  1
  Te  Te139  1  0.64998583  0.62285530  0.37543207  1
  Te  Te140  1  0.59308080  0.58287632  0.74747996  1
  Te  Te141  1  0.60087189  0.93931181  0.07086933  1
  Te  Te142  1  0.59665831  0.90269069  0.42530196  1
  Te  Te143  1  0.57288078  0.90024353  0.74040005  1
  Te  Te144  1  0.91078060  0.25382145  0.06422575  1
  Te  Te145  1  0.89761023  0.28465189  0.38514937  1
  Te  Te146  1  0.92585084  0.25072309  0.75159417  1
  Te  Te147  1  0.89499243  0.59871009  0.11341699  1
  Te  Te148  1  0.91632191  0.59992999  0.38500723  1
  Te  Te149  1  0.94588733  0.58712316  0.75521844  1
  Te  Te150  1  0.91910472  0.90701504  0.10335656  1
  Te  Te151  1  0.91980994  0.89706022  0.42532804  1
  Te  Te152  1  0.91397325  0.91795360  0.74417023  1
  Te  Te153  1  0.24439160  0.06636985  0.25568674  1
  Te  Te154  1  0.23840085  0.05083040  0.57152813  1
  Te  Te155  1  0.25322384  0.08938115  0.91975571  1
  Te  Te156  1  0.24945255  0.41694793  0.25935627  1
  Te  Te157  1  0.24317188  0.41862948  0.55850881  1
  Te  Te158  1  0.23708357  0.41576672  0.92727653  1
  Te  Te159  1  0.24583869  0.73971436  0.28495111  1
  Te  Te160  1  0.24640486  0.74705711  0.58561315  1
  Te  Te161  1  0.25763331  0.75669528  0.91361105  1
  Te  Te162  1  0.58573902  0.07801380  0.23467287  1
  Te  Te163  1  0.57616077  0.07421981  0.58470446  1
  Te  Te164  1  0.60760655  0.07823400  0.91761518  1
  Te  Te165  1  0.57368357  0.44982458  0.28611112  1
  Te  Te166  1  0.59731358  0.44573281  0.53786862  1
  Te  Te167  1  0.56681824  0.42606709  0.93324297  1
  Te  Te168  1  0.59313524  0.73953616  0.25770190  1
  Te  Te169  1  0.54695819  0.75918644  0.58095623  1
  Te  Te170  1  0.57583994  0.74073299  0.90177311  1
  Te  Te171  1  0.92169910  0.08417603  0.26243359  1
  Te  Te172  1  0.92520661  0.07296199  0.57949492  1
  Te  Te173  1  0.92475254  0.09322152  0.91451186  1
  Te  Te174  1  0.91197411  0.41151972  0.27607400  1
  Te  Te175  1  0.90217084  0.41309663  0.54718833  1
  Te  Te176  1  0.92773905  0.43388869  0.91145451  1
  Te  Te177  1  0.92568103  0.73735050  0.22304258  1
  Te  Te178  1  0.94568616  0.74339278  0.58553197  1
  Te  Te179  1  0.90570722  0.76225640  0.94046962  1
