# generated using pymatgen
data_In2Te3
_symmetry_space_group_name_H-M   'P 1'
_cell_length_a   19.00085025
_cell_length_b   19.04195214
_cell_length_c   18.98504720
_cell_angle_alpha   89.84222220
_cell_angle_beta   90.01580331
_cell_angle_gamma   90.14643706
_symmetry_Int_Tables_number   1
_chemical_formula_structural   In2Te3
_chemical_formula_sum   'In72 Te108'
_cell_volume   6868.99348807
_cell_formula_units_Z   36
loop_
 _symmetry_equiv_pos_site_id
 _symmetry_equiv_pos_as_xyz
  1  'x, y, z'
loop_
 _atom_site_type_symbol
 _atom_site_label
 _atom_site_symmetry_multiplicity
 _atom_site_fract_x
 _atom_site_fract_y
 _atom_site_fract_z
 _atom_site_occupancy
  In  In0  1  0.47821105  0.17952752  0.01297456  1
  In  In1  1  0.30436668  0.84161333  0.84202820  1
  In  In2  1  0.15239496  0.17674775  -0.09340512  1
  In  In3  1  0.49629581  0.34304138  0.48476911  1
  In  In4  1  0.85865499  0.00382761  0.83950072  1
  In  In5  1  0.16436215  0.65684708  0.17478466  1
  In  In6  1  0.33001721  0.33197050  0.00053682  1
  In  In7  1  0.00677789  0.00891515  0.00901248  1
  In  In8  1  0.00096677  0.50643315  0.82121806  1
  In  In9  1  0.49041857  0.01395336  0.49856996  1
  In  In10  1  0.26763510  0.30184471  0.64472876  1
  In  In11  1  0.50577184  0.67701686  0.83419400  1
  In  In12  1  0.52243916  0.50638329  -0.00847005  1
  In  In13  1  0.48093053  0.81754594  0.00435753  1
  In  In14  1  0.34980168  0.33636556  0.30421130  1
  In  In15  1  0.85763486  0.88718251  0.66235320  1
  In  In16  1  0.50810129  0.15565263  0.34417616  1
  In  In17  1  0.52814423  0.64174928  0.48321111  1
  In  In18  1  0.69817267  0.34527450  0.63723739  1
  In  In19  1  0.16991652  0.83093663  0.67619995  1
  In  In20  1  0.67473285  0.68320322  0.69169400  1
  In  In21  1  0.33013911  0.84516485  0.49933334  1
  In  In22  1  0.84912252  0.15626118  -0.00237050  1
  In  In23  1  0.17391417  -0.01111981  0.49542033  1
  In  In24  1  0.69367812  0.17086852  0.82670341  1
  In  In25  1  0.34664169  0.16241159  0.47761288  1
  In  In26  1  0.49270264  0.67175551  0.16856875  1
  In  In27  1  0.83083353  0.51393927  0.67370124  1
  In  In28  1  0.82872868  0.81696436  0.01613521  1
  In  In29  1  0.65797304  0.00107278  0.66522413  1
  In  In30  1  0.88686117  0.32308259  0.81697633  1
  In  In31  1  0.32729095  0.50285836  0.18283201  1
  In  In32  1  0.68053215  0.01203120  0.35146943  1
  In  In33  1  0.00796208  0.67102344  0.32480097  1
  In  In34  1  0.13916129  0.32068923  0.15870390  1
  In  In35  1  0.32793031  0.48079638  0.84797033  1
  In  In36  1  0.30676872  0.65997043  0.35034073  1
  In  In37  1  0.01757581  -0.01208483  0.32016937  1
  In  In38  1  0.50609229  0.51704193  0.67300071  1
  In  In39  1  0.14638406  0.67378225  0.48686037  1
  In  In40  1  -0.00523464  0.69533469  0.69673672  1
  In  In41  1  0.63924184  0.82371862  0.50326173  1
  In  In42  1  0.17187728  0.49728718  0.66324724  1
  In  In43  1  0.01541874  0.50505498  0.48472654  1
  In  In44  1  0.14728645  0.49680540  0.02447610  1
  In  In45  1  0.82361860  0.68417993  0.52562625  1
  In  In46  1  0.35251224  0.65298250  0.67445382  1
  In  In47  1  0.67184136  0.80032571  0.15941165  1
  In  In48  1  0.83104342  -0.00883195  0.15977382  1
  In  In49  1  0.14883819  0.15470737  0.68655261  1
  In  In50  1  0.00084063  0.13719839  0.15001308  1
  In  In51  1  -0.02207043  0.65493094  -0.00106209  1
  In  In52  1  0.47908403  -0.01913950  0.83811812  1
  In  In53  1  0.68455808  0.35735082  0.33442810  1
  In  In54  1  0.16248434  0.16888785  0.33504737  1
  In  In55  1  0.16277296  0.83508433  0.01661807  1
  In  In56  1  0.46198885  0.83149129  0.30209172  1
  In  In57  1  0.02031812  0.32173148  0.63406631  1
  In  In58  1  0.53053835  0.33158135  0.15386812  1
  In  In59  1  0.85552194  0.03832048  0.50826571  1
  In  In60  1  0.67303257  0.18312044  0.18944305  1
  In  In61  1  0.84635831  0.33714076  0.47523517  1
  In  In62  1  0.69107197  0.50261486  0.18699305  1
  In  In63  1  0.86715659  0.36314021  0.19432640  1
  In  In64  1  0.50927934  0.15634007  0.66958946  1
  In  In65  1  0.67261934  0.83439287  0.84793901  1
  In  In66  1  0.80454540  0.50687631  -0.01109104  1
  In  In67  1  0.62834482  -0.00042047  0.00231085  1
  In  In68  1  0.31437248  -0.02073633  0.68054792  1
  In  In69  1  0.32463131  0.12679115  0.17085070  1
  In  In70  1  0.85091238  0.82773690  0.34018028  1
  In  In71  1  0.51211361  0.35539953  0.83102364  1
  Te  Te72  1  0.10826276  0.11040881  0.04948353  1
  Te  Te73  1  0.07745785  0.08210776  0.42572466  1
  Te  Te74  1  0.05194843  0.04398295  0.69909452  1
  Te  Te75  1  0.04754099  0.41392464  0.09245075  1
  Te  Te76  1  0.04274015  0.39345508  0.38747639  1
  Te  Te77  1  0.08494483  0.40605794  0.74656345  1
  Te  Te78  1  0.06905357  0.73684292  0.08972207  1
  Te  Te79  1  0.08345730  0.77341369  0.40138644  1
  Te  Te80  1  0.10714248  0.74505292  0.77609007  1
  Te  Te81  1  0.41833355  0.06426800  0.07753808  1
  Te  Te82  1  0.39865266  0.05552115  0.38421252  1
  Te  Te83  1  0.40721113  0.08201209  0.75094786  1
  Te  Te84  1  0.42115689  0.41864076  0.08513549  1
  Te  Te85  1  0.41592000  0.42682346  0.39740674  1
  Te  Te86  1  0.40998526  0.41729893  0.73712699  1
  Te  Te87  1  0.38773461  0.74879719  0.09805795  1
  Te  Te88  1  0.42383388  0.74965517  0.42468389  1
  Te  Te89  1  0.40969534  0.76443958  0.75890706  1
  Te  Te90  1  0.73867051  0.08314476  0.08153626  1
  Te  Te91  1  0.76888148  0.10896427  0.41400731  1
  Te  Te92  1  0.76836123  0.07575442  0.73697929  1
  Te  Te93  1  0.75769572  0.40320873  0.09770101  1
  Te  Te94  1  0.76595766  0.44923401  0.41721848  1
  Te  Te95  1  0.76662739  0.40595815  0.75564449  1
  Te  Te96  1  0.76778941  0.70813780  0.09700515  1
  Te  Te97  1  0.74202752  0.75356389  0.41834581  1
  Te  Te98  1  0.77023167  0.78630718  0.74457057  1
  Te  Te99  1  0.05544962  0.23620499  0.25334186  1
  Te  Te100  1  0.13787880  0.25251940  0.57247334  1
  Te  Te101  1  0.02727682  0.25069676  0.89010829  1
  Te  Te102  1  0.07107133  0.56274068  0.24480843  1
  Te  Te103  1  0.06917489  0.59446289  0.60351817  1
  Te  Te104  1  0.08654699  0.58537103  0.91711720  1
  Te  Te105  1  0.10597165  0.94919625  0.20891649  1
  Te  Te106  1  0.08562879  0.91633753  0.59191917  1
  Te  Te107  1  0.07419994  0.91167351  0.92500033  1
  Te  Te108  1  0.43650371  0.23415173  0.23221424  1
  Te  Te109  1  0.41910039  0.24601156  0.58313244  1
  Te  Te110  1  0.41502519  0.25683794  0.90137139  1
  Te  Te111  1  0.41467771  0.58842325  0.26964435  1
  Te  Te112  1  0.41578210  0.57240136  0.56356261  1
  Te  Te113  1  0.41753644  0.58415507  0.91634222  1
  Te  Te114  1  0.36464831  0.87662445  0.20237333  1
  Te  Te115  1  0.42491240  0.91723825  0.59390826  1
  Te  Te116  1  0.38940005  0.92096858  0.94277823  1
  Te  Te117  1  0.77662000  0.25846521  0.26607407  1
  Te  Te118  1  0.77432326  0.24507845  0.56629562  1
  Te  Te119  1  0.77876118  0.25846101  0.91103176  1
  Te  Te120  1  0.74347006  0.57528918  0.30227196  1
  Te  Te121  1  0.72810926  0.58513990  0.58905816  1
  Te  Te122  1  0.70337163  0.56665947  0.90161955  1
  Te  Te123  1  0.74109855  0.90848386  0.24970749  1
  Te  Te124  1  0.73985274  0.92184922  0.56368855  1
  Te  Te125  1  0.74895388  0.93808275  0.92926443  1
  Te  Te126  1  0.25754092  0.24366580  0.09875261  1
  Te  Te127  1  0.26065472  0.26145101  0.40383157  1
  Te  Te128  1  0.23329554  0.23978847  0.77626745  1
  Te  Te129  1  0.25892510  0.58384274  0.07763399  1
  Te  Te130  1  0.21696982  0.56603398  0.41907457  1
  Te  Te131  1  0.25281496  0.58037514  0.76145099  1
  Te  Te132  1  0.23274501  0.91412557  0.12363664  1
  Te  Te133  1  0.23593875  0.89534475  0.39980696  1
  Te  Te134  1  0.21691831  0.96115030  0.79663858  1
  Te  Te135  1  0.60623822  0.24124911  0.06082769  1
  Te  Te136  1  0.59563475  0.25565724  0.41237963  1
  Te  Te137  1  0.59691264  0.25899906  0.73971653  1
  Te  Te138  1  0.59309620  0.58385450  0.09845075  1
  Te  Te139  1  0.62247917  0.57187115  0.39803731  1
  Te  Te140  1  0.60682650  0.56976575  0.77795928  1
  Te  Te141  1  0.57204057  0.89820601  0.09729386  1
  Te  Te142  1  0.56814358  0.91851901  0.40672206  1
  Te  Te143  1  0.57889809  0.90508407  0.75192548  1
  Te  Te144  1  0.91238087  0.24853300  0.09612049  1
  Te  Te145  1  0.96802883  0.27098634  0.43148671  1
  Te  Te146  1  0.91815841  0.23445266  0.70011415  1
  Te  Te147  1  0.88350305  0.58268172  0.08917989  1
  Te  Te148  1  0.91886935  0.60831072  0.43512753  1
  Te  Te149  1  0.89641913  0.60568685  0.77255816  1
  Te  Te150  1  0.92840251  0.90314171  0.09035054  1
  Te  Te151  1  0.92227882  0.92834016  0.42606559  1
  Te  Te152  1  0.95564208  0.91747986  0.76937333  1
  Te  Te153  1  0.22004122  0.05873417  0.25139756  1
  Te  Te154  1  0.26376848  0.08249086  0.58012953  1
  Te  Te155  1  0.25024909  0.07179198  0.89488521  1
  Te  Te156  1  0.22918053  0.40983502  0.24724264  1
  Te  Te157  1  0.25173000  0.42294764  0.56594415  1
  Te  Te158  1  0.22226975  0.40484564  0.92551369  1
  Te  Te159  1  0.22710751  0.75210147  0.26940488  1
  Te  Te160  1  0.25551381  0.73940325  0.58711496  1
  Te  Te161  1  0.24442443  0.74537210  0.93252941  1
  Te  Te162  1  0.58616291  0.07249949  0.24440184  1
  Te  Te163  1  0.59892562  0.09797539  0.56323389  1
  Te  Te164  1  0.58081353  0.08850736  0.88835617  1
  Te  Te165  1  0.57374218  0.42748658  0.25839256  1
  Te  Te166  1  0.58425205  0.42501067  0.57879273  1
  Te  Te167  1  0.61003522  0.40993740  0.92574595  1
  Te  Te168  1  0.58167084  0.74452932  0.26781739  1
  Te  Te169  1  0.56486703  0.73506583  0.60055100  1
  Te  Te170  1  0.59558689  0.74171838  0.93860946  1
  Te  Te171  1  0.90887008  0.07453616  0.25665493  1
  Te  Te172  1  0.94514568  0.10370500  0.60484800  1
  Te  Te173  1  0.94956000  0.11570942  0.88998558  1
  Te  Te174  1  0.94842486  0.45358975  0.27807036  1
  Te  Te175  1  0.92194660  0.43369096  0.58616940  1
  Te  Te176  1  0.91856883  0.42910997  0.92082570  1
  Te  Te177  1  0.91428949  0.74668200  0.23918555  1
  Te  Te178  1  0.92783126  0.77539632  0.58673600  1
  Te  Te179  1  0.90231532  0.74762467  0.91238182  1
