# generated using pymatgen
data_In2Te3
_symmetry_space_group_name_H-M   'P 1'
_cell_length_a   18.83789666
_cell_length_b   18.81895435
_cell_length_c   18.83081711
_cell_angle_alpha   90.05800515
_cell_angle_beta   89.89596934
_cell_angle_gamma   90.08415211
_symmetry_Int_Tables_number   1
_chemical_formula_structural   In2Te3
_chemical_formula_sum   'In72 Te108'
_cell_volume   6675.68227610
_cell_formula_units_Z   36
loop_
 _symmetry_equiv_pos_site_id
 _symmetry_equiv_pos_as_xyz
  1  'x, y, z'
loop_
 _atom_site_type_symbol
 _atom_site_label
 _atom_site_symmetry_multiplicity
 _atom_site_fract_x
 _atom_site_fract_y
 _atom_site_fract_z
 _atom_site_occupancy
  In  In0  1  0.66474321  0.13733104  0.13470458  1
  In  In1  1  0.33982896  0.49675094  0.83518662  1
  In  In2  1  0.82021561  0.46889951  -0.03240627  1
  In  In3  1  0.33508132  0.84015925  0.49890049  1
  In  In4  1  0.15838112  0.34674684  0.17517431  1
  In  In5  1  0.64452069  0.49405292  0.17658482  1
  In  In6  1  0.68000812  0.17829083  0.51283005  1
  In  In7  1  0.84410165  0.83335827  0.64914080  1
  In  In8  1  0.36654995  0.18930141  0.20041831  1
  In  In9  1  0.49580096  0.83111538  -0.00271872  1
  In  In10  1  0.83052124  0.02254162  0.51584964  1
  In  In11  1  0.64434278  0.30943717  0.71583534  1
  In  In12  1  0.35229745  0.02067590  0.33053563  1
  In  In13  1  0.81351998  0.83943841  0.33313558  1
  In  In14  1  0.83504898  0.00225804  0.80983727  1
  In  In15  1  0.84197656  0.44716457  0.68089529  1
  In  In16  1  0.82610802  0.83796087  -0.00081823  1
  In  In17  1  -0.00507946  0.00861179  0.65601541  1
  In  In18  1  0.34402579  0.03453924  0.67672622  1
  In  In19  1  0.48973665  0.32686549  0.51187891  1
  In  In20  1  0.66094649  0.86253446  0.15550303  1
  In  In21  1  -0.03414817  0.31617549  -0.00975899  1
  In  In22  1  0.82487126  0.17231080  0.33705806  1
  In  In23  1  0.17982076  0.01677160  0.17264248  1
  In  In24  1  0.16982300  0.47541472  0.33743766  1
  In  In25  1  0.16432206  0.50817582  -0.00650751  1
  In  In26  1  -0.02691059  0.18941061  0.16159111  1
  In  In27  1  0.84862349  0.32656797  0.16247529  1
  In  In28  1  0.83599025  0.63913037  0.82830624  1
  In  In29  1  0.33568447  0.33354866  0.65133562  1
  In  In30  1  0.66392777  0.35510644  0.33690385  1
  In  In31  1  0.64282426  0.84303594  0.49509777  1
  In  In32  1  0.48147345  0.66566573  0.83381042  1
  In  In33  1  0.17578251  0.65629299  0.81934124  1
  In  In34  1  0.66455305  0.85306475  0.83737574  1
  In  In35  1  0.66437346  0.28897692  -0.04762117  1
  In  In36  1  0.83540257  0.70054040  0.16385765  1
  In  In37  1  0.18270073  0.15951946  0.44346137  1
  In  In38  1  0.35005921  -0.01085961  -0.02057476  1
  In  In39  1  0.16012869  0.84064206  0.67120979  1
  In  In40  1  0.65261996  0.66030057  0.32816220  1
  In  In41  1  0.50770540  0.65596571  0.50406514  1
  In  In42  1  0.50115541  0.51296005  0.67560356  1
  In  In43  1  0.13793010  0.62694838  0.52504205  1
  In  In44  1  0.33367798  0.65447524  0.66317833  1
  In  In45  1  0.18698720  0.64435994  0.17368732  1
  In  In46  1  0.67450719  0.48972125  0.49289281  1
  In  In47  1  0.49732027  0.01142712  0.48736647  1
  In  In48  1  0.49736746  0.66442799  0.15800215  1
  In  In49  1  0.19418949  0.81533018  -0.01127168  1
  In  In50  1  0.33084445  0.49101881  0.15580730  1
  In  In51  1  0.01136049  0.66076740  -0.02490740  1
  In  In52  1  0.15730086  0.84498443  0.32600899  1
  In  In53  1  0.86294716  0.65709331  0.50410601  1
  In  In54  1  0.32944493  0.67473807  0.33846879  1
  In  In55  1  0.51042560  0.15446814  -0.01517105  1
  In  In56  1  0.49931163  0.00201278  0.17436213  1
  In  In57  1  0.14358920  0.33843147  0.80014010  1
  In  In58  1  0.17573851  0.15690620  -0.00259754  1
  In  In59  1  -0.01256181  0.19782030  0.78520449  1
  In  In60  1  0.65780707  0.02740730  0.70373141  1
  In  In61  1  0.82256938  0.50742761  0.36643289  1
  In  In62  1  0.00658901  0.31544667  0.37060930  1
  In  In63  1  0.01028779  0.84778737  0.49975922  1
  In  In64  1  0.17139591  0.00126378  0.84199026  1
  In  In65  1  -0.02308729  -0.01307608  -0.00654407  1
  In  In66  1  0.17567756  0.19179887  0.63894902  1
  In  In67  1  0.65320441  0.65829722  0.67645475  1
  In  In68  1  0.01619069  0.86532448  0.13547625  1
  In  In69  1  0.35548541  0.33043166  0.00419932  1
  In  In70  1  -0.04252072  0.66177314  0.36163821  1
  In  In71  1  -0.01509435  0.50992129  0.17334113  1
  Te  Te72  1  0.07016618  0.08326530  0.07976778  1
  Te  Te73  1  0.07623730  0.06242341  0.45627144  1
  Te  Te74  1  0.10011468  0.09244077  0.74121608  1
  Te  Te75  1  0.06194414  0.41627166  0.07749028  1
  Te  Te76  1  0.10430312  0.39867067  0.44849713  1
  Te  Te77  1  0.08570228  0.40803136  0.68081145  1
  Te  Te78  1  0.08932756  0.73434302  0.08713850  1
  Te  Te79  1  0.08872985  0.74181362  0.41799223  1
  Te  Te80  1  0.08174942  0.75262769  0.75886912  1
  Te  Te81  1  0.40022109  0.09654897  0.08407220  1
  Te  Te82  1  0.41612854  0.11648962  0.42226345  1
  Te  Te83  1  0.45000077  0.08689845  0.77130749  1
  Te  Te84  1  0.43846642  0.42939650  0.07449748  1
  Te  Te85  1  0.37984390  0.39871232  0.44055244  1
  Te  Te86  1  0.42819898  0.40377653  0.75307824  1
  Te  Te87  1  0.40610564  0.75525871  0.08610447  1
  Te  Te88  1  0.43261757  0.75618394  0.41578430  1
  Te  Te89  1  0.41227884  0.75274651  0.73763446  1
  Te  Te90  1  0.77182820  0.05456629  0.08048181  1
  Te  Te91  1  0.73220925  0.07468436  0.41263281  1
  Te  Te92  1  0.76133679  0.12520024  0.75937361  1
  Te  Te93  1  0.74743286  0.41426560  0.08899987  1
  Te  Te94  1  0.77280991  0.38524017  0.44156971  1
  Te  Te95  1  0.72445093  0.42418447  0.77774798  1
  Te  Te96  1  0.72506433  0.74957026  0.07349532  1
  Te  Te97  1  0.74534618  0.73583587  0.43181304  1
  Te  Te98  1  0.75383055  0.75452744  0.74539143  1
  Te  Te99  1  0.08140606  0.24443263  0.25722366  1
  Te  Te100  1  0.06724873  0.28191212  0.58922418  1
  Te  Te101  1  0.08189634  0.24530312  0.91424041  1
  Te  Te102  1  0.07824326  0.58691982  0.26579763  1
  Te  Te103  1  0.06769563  0.55744723  0.63346031  1
  Te  Te104  1  0.07084405  0.55511678  0.88444410  1
  Te  Te105  1  0.07079713  0.94816420  0.25554999  1
  Te  Te106  1  0.10780705  0.94782973  0.56439901  1
  Te  Te107  1  0.08763907  0.90357469  0.92364617  1
  Te  Te108  1  0.45707399  0.28199963  0.26527183  1
  Te  Te109  1  0.42361413  0.22605097  0.59783787  1
  Te  Te110  1  0.43619944  0.25757974  0.90310314  1
  Te  Te111  1  0.41151250  0.57880568  0.25442959  1
  Te  Te112  1  0.40586056  0.56129766  0.56619039  1
  Te  Te113  1  0.42776737  0.56580307  0.93038809  1
  Te  Te114  1  0.40784190  0.91296623  0.24687046  1
  Te  Te115  1  0.41823012  0.92773612  0.58949747  1
  Te  Te116  1  0.43376410  0.91140232  0.88812275  1
  Te  Te117  1  0.73672345  0.25703848  0.24249850  1
  Te  Te118  1  0.74496054  0.26024713  0.61731706  1
  Te  Te119  1  0.77060293  0.21399543  0.88744576  1
  Te  Te120  1  0.76509726  0.58458751  0.24685384  1
  Te  Te121  1  0.75057559  0.58374383  0.58625437  1
  Te  Te122  1  0.74779555  0.59282419  0.93609650  1
  Te  Te123  1  0.73076360  0.93718073  0.26226470  1
  Te  Te124  1  0.73691152  0.92498457  0.59220451  1
  Te  Te125  1  0.74819990  0.94705028  0.92383774  1
  Te  Te126  1  0.24889090  0.25508314  0.08920373  1
  Te  Te127  1  0.27505002  0.27834375  0.44203207  1
  Te  Te128  1  0.25684768  0.24855871  0.75613797  1
  Te  Te129  1  0.26971625  0.59648716  0.05617057  1
  Te  Te130  1  0.24351875  0.58105597  0.42216279  1
  Te  Te131  1  0.24469296  0.55066380  0.72982122  1
  Te  Te132  1  0.25584748  0.92103834  0.08105309  1
  Te  Te133  1  0.25239574  0.92937301  0.40871018  1
  Te  Te134  1  0.26254538  0.92176669  0.74905513  1
  Te  Te135  1  0.58339624  0.25495005  0.07632781  1
  Te  Te136  1  0.58550297  0.25235318  0.41832190  1
  Te  Te137  1  0.54990019  0.20970121  0.78020099  1
  Te  Te138  1  0.58303588  0.57713878  0.07333316  1
  Te  Te139  1  0.56997356  0.55710744  0.40499300  1
  Te  Te140  1  0.59412138  0.56995694  0.78288376  1
  Te  Te141  1  0.57964937  0.94537279  0.05809926  1
  Te  Te142  1  0.57186749  0.92137018  0.39490054  1
  Te  Te143  1  0.57041204  0.91401758  0.74273291  1
  Te  Te144  1  0.86664284  0.21834155  0.05231433  1
  Te  Te145  1  0.92016946  0.21865169  0.44159238  1
  Te  Te146  1  0.89852656  0.31334056  0.74420920  1
  Te  Te147  1  0.90999963  0.59634428  0.07404860  1
  Te  Te148  1  0.94469521  0.53779915  0.45312443  1
  Te  Te149  1  0.91632376  0.57189699  0.72259687  1
  Te  Te150  1  0.87874870  0.94045094  0.10839903  1
  Te  Te151  1  0.90585361  0.92515979  0.42282388  1
  Te  Te152  1  0.93551506  0.90372831  0.74956895  1
  Te  Te153  1  0.24660752  0.11811278  0.26430294  1
  Te  Te154  1  0.26573981  0.09697187  0.56201091  1
  Te  Te155  1  0.27523609  0.09795985  0.89983156  1
  Te  Te156  1  0.27515029  0.39494897  0.26067399  1
  Te  Te157  1  0.25128037  0.39525908  0.54209397  1
  Te  Te158  1  0.23920603  0.40042747  0.91575124  1
  Te  Te159  1  0.25475463  0.76456659  0.24010637  1
  Te  Te160  1  0.23828379  0.74485664  0.57285471  1
  Te  Te161  1  0.27428474  0.73667986  0.89479164  1
  Te  Te162  1  0.57066367  0.11080787  0.24420541  1
  Te  Te163  1  0.58109299  0.09247437  0.58975924  1
  Te  Te164  1  0.57658042  0.08307412  0.86841962  1
  Te  Te165  1  0.54727919  0.41084873  0.25723370  1
  Te  Te166  1  0.59272824  0.41461045  0.59863029  1
  Te  Te167  1  0.60983951  0.40573234  0.88191350  1
  Te  Te168  1  0.58195011  0.76138752  0.24530828  1
  Te  Te169  1  0.56784940  0.75795928  0.59973536  1
  Te  Te170  1  0.58977404  0.74444017  0.91223496  1
  Te  Te171  1  0.91782506  0.09082509  0.25514337  1
  Te  Te172  1  0.90949855  0.11530304  0.60012154  1
  Te  Te173  1  0.93869876  0.08621076  0.88620547  1
  Te  Te174  1  0.92061921  0.41133099  0.27064166  1
  Te  Te175  1  0.93426045  0.36682897  0.59415053  1
  Te  Te176  1  0.92684793  0.41026934  0.88134732  1
  Te  Te177  1  0.93561290  0.77229095  0.25279044  1
  Te  Te178  1  0.95272290  0.74229269  0.59420320  1
  Te  Te179  1  0.91257916  0.75469155  0.90655811  1
