# generated using pymatgen
data_In2Te3
_symmetry_space_group_name_H-M   'P 1'
_cell_length_a   18.76857344
_cell_length_b   18.77740752
_cell_length_c   18.76887320
_cell_angle_alpha   89.98267276
_cell_angle_beta   89.96103419
_cell_angle_gamma   90.02967661
_symmetry_Int_Tables_number   1
_chemical_formula_structural   In2Te3
_chemical_formula_sum   'In72 Te108'
_cell_volume   6614.62027097
_cell_formula_units_Z   36
loop_
 _symmetry_equiv_pos_site_id
 _symmetry_equiv_pos_as_xyz
  1  'x, y, z'
loop_
 _atom_site_type_symbol
 _atom_site_label
 _atom_site_symmetry_multiplicity
 _atom_site_fract_x
 _atom_site_fract_y
 _atom_site_fract_z
 _atom_site_occupancy
  In  In0  1  -0.00206072  0.49081520  0.81697279  1
  In  In1  1  0.32394180  0.84561145  0.16416404  1
  In  In2  1  0.34496209  0.48699466  0.81134461  1
  In  In3  1  0.50640284  0.81579342  0.33916845  1
  In  In4  1  0.50875645  0.47866330  0.00711035  1
  In  In5  1  0.82283849  0.46575509  0.35467173  1
  In  In6  1  0.14454808  0.82546659  0.65224509  1
  In  In7  1  0.16386719  0.50168011  0.01621882  1
  In  In8  1  0.20573944  0.66171388  0.83614999  1
  In  In9  1  0.66604265  0.83582025  0.85228696  1
  In  In10  1  0.81436824  0.49602835  -0.03343180  1
  In  In11  1  0.31879714  0.81097448  0.46533850  1
  In  In12  1  0.67796457  0.50697321  0.81805327  1
  In  In13  1  0.00484944  0.63955053  0.33387822  1
  In  In14  1  0.15280542  0.16413007  0.00670565  1
  In  In15  1  0.33182578  0.36115845  0.63943082  1
  In  In16  1  0.50599628  -0.02209595  0.49419433  1
  In  In17  1  0.15813124  0.32585881  0.18271803  1
  In  In18  1  0.82502766  0.66394482  0.82313284  1
  In  In19  1  0.51573243  0.33803984  0.52539133  1
  In  In20  1  0.50942132  0.02241259  0.15877905  1
  In  In21  1  0.82112267  0.84007507  0.01148233  1
  In  In22  1  0.34980239  0.33779509  0.00503140  1
  In  In23  1  0.31373722  0.00933154  0.32502905  1
  In  In24  1  0.66537589  0.31606512  0.02954537  1
  In  In25  1  0.30798356  0.18970344  0.49154381  1
  In  In26  1  0.64783329  0.49443480  0.18073218  1
  In  In27  1  0.32126347  0.81061132  0.82180271  1
  In  In28  1  -0.02221278  0.36359103  0.64138407  1
  In  In29  1  0.82147662  0.32642146  0.84375504  1
  In  In30  1  0.17098418  0.64715763  0.50069246  1
  In  In31  1  0.82792391  0.19583334  0.33097927  1
  In  In32  1  0.34459307  0.00930367  0.03057660  1
  In  In33  1  -0.00194505  0.64622208  0.64903547  1
  In  In34  1  -0.02613266  0.01115869  0.31985230  1
  In  In35  1  0.35021017  0.17969324  0.84472245  1
  In  In36  1  0.67949080  0.17682012  0.49949938  1
  In  In37  1  0.15038171  0.31058323  0.84563564  1
  In  In38  1  0.66162034  0.64209085  0.35277771  1
  In  In39  1  0.86872596  0.82706472  0.67045780  1
  In  In40  1  0.50647461  0.66822921  0.18823821  1
  In  In41  1  0.14550985  -0.01200387  0.84545029  1
  In  In42  1  0.51534909  0.48035955  0.33999791  1
  In  In43  1  0.68400918  0.02651249  0.67408752  1
  In  In44  1  0.82547945  0.68017086  0.15296873  1
  In  In45  1  0.49524167  0.82151769  0.66827005  1
  In  In46  1  0.34068739  0.65515451  0.34363419  1
  In  In47  1  0.33153604  0.33491563  0.32531989  1
  In  In48  1  0.00488736  0.67930711  0.00904284  1
  In  In49  1  0.49829375  0.16013722  0.31720210  1
  In  In50  1  0.54403909  0.20919654  0.69150279  1
  In  In51  1  0.68081669  0.62481670  0.64791726  1
  In  In52  1  0.16538815  0.16212947  0.31454550  1
  In  In53  1  0.67145108  0.82585809  0.48566697  1
  In  In54  1  0.68018781  0.02991598  0.02591810  1
  In  In55  1  0.01231951  0.00336348  0.66859398  1
  In  In56  1  -0.01971233  0.02961073  -0.00191669  1
  In  In57  1  0.15297658  0.83251090  0.33469295  1
  In  In58  1  0.00276319  0.85970191  0.81862189  1
  In  In59  1  0.15060975  0.17087674  0.67449196  1
  In  In60  1  0.85885985  0.30884779  0.15364300  1
  In  In61  1  0.35785926  0.61715647  0.63657768  1
  In  In62  1  0.01721984  0.83410803  0.16095117  1
  In  In63  1  0.32323511  0.65140696  -0.00779084  1
  In  In64  1  0.81293927  0.18221182  0.68211459  1
  In  In65  1  0.52723091  0.01096406  0.86863069  1
  In  In66  1  0.80706609  0.85043873  0.31334406  1
  In  In67  1  0.50160916  0.83948946  -0.01219685  1
  In  In68  1  -0.00342055  0.19006200  0.47613505  1
  In  In69  1  0.00787894  0.49690832  0.17739541  1
  In  In70  1  0.84426322  0.00653677  0.49362948  1
  In  In71  1  0.33581193  0.02860236  0.66734867  1
  Te  Te72  1  0.07302106  0.08257638  0.10062472  1
  Te  Te73  1  0.07704420  0.07882758  0.41183770  1
  Te  Te74  1  0.06396326  0.09852899  0.77762533  1
  Te  Te75  1  0.07080511  0.39910105  0.07735240  1
  Te  Te76  1  0.10690185  0.42689858  0.46968284  1
  Te  Te77  1  0.09578269  0.40601222  0.73852965  1
  Te  Te78  1  0.10320648  0.72587980  0.10762757  1
  Te  Te79  1  0.07485395  0.74087944  0.42827860  1
  Te  Te80  1  0.07779974  0.73748976  0.75855934  1
  Te  Te81  1  0.43773522  0.12079333  0.06681345  1
  Te  Te82  1  0.40781879  0.08080133  0.42799415  1
  Te  Te83  1  0.44294594  0.09007239  0.75869290  1
  Te  Te84  1  0.41969342  0.41813426  0.10740538  1
  Te  Te85  1  0.41367067  0.40856563  0.43434946  1
  Te  Te86  1  0.43965838  0.41069375  0.72753091  1
  Te  Te87  1  0.41913939  0.75012267  0.08643771  1
  Te  Te88  1  0.43973163  0.72441187  0.44089628  1
  Te  Te89  1  0.41454469  0.71769874  0.74631513  1
  Te  Te90  1  0.76740591  0.08488141  0.13517654  1
  Te  Te91  1  0.74851204  0.08032759  0.40305067  1
  Te  Te92  1  0.73158423  0.11085144  0.78475685  1
  Te  Te93  1  0.76157661  0.42395670  0.09130662  1
  Te  Te94  1  0.70166491  0.43688135  0.44168690  1
  Te  Te95  1  0.75058472  0.40397879  0.73467751  1
  Te  Te96  1  0.72195623  0.75154418  0.07614820  1
  Te  Te97  1  0.76902239  0.73388375  0.41343665  1
  Te  Te98  1  0.74383719  0.75917504  0.73467900  1
  Te  Te99  1  0.05764250  0.24842463  0.26003503  1
  Te  Te100  1  0.08242155  0.26665146  0.57758185  1
  Te  Te101  1  0.04948389  0.24073730  0.92986318  1
  Te  Te102  1  0.11024419  0.56116208  0.26397687  1
  Te  Te103  1  0.08241289  0.54464264  0.57312025  1
  Te  Te104  1  0.08090887  0.58514091  0.90693361  1
  Te  Te105  1  0.08990987  0.93862440  0.24583454  1
  Te  Te106  1  0.06118408  0.91001090  0.56577024  1
  Te  Te107  1  0.06930337  0.90563566  0.94665824  1
  Te  Te108  1  0.40515349  0.24155970  0.23666060  1
  Te  Te109  1  0.41589770  0.23363806  0.59209666  1
  Te  Te110  1  0.44157272  0.27636069  0.90634498  1
  Te  Te111  1  0.41906290  0.56181873  0.25061687  1
  Te  Te112  1  0.44669068  0.53971200  0.54817244  1
  Te  Te113  1  0.42373941  0.56929651  0.91340384  1
  Te  Te114  1  0.42427655  0.91793233  0.25879281  1
  Te  Te115  1  0.40063481  0.90934865  0.58270433  1
  Te  Te116  1  0.40114323  0.92225303  0.90310052  1
  Te  Te117  1  0.74058826  0.27690151  0.24017529  1
  Te  Te118  1  0.75022410  0.27586664  0.58340052  1
  Te  Te119  1  0.78291137  0.23391882  0.96306821  1
  Te  Te120  1  0.76661783  0.57514004  0.25296625  1
  Te  Te121  1  0.76090820  0.54334100  0.54901612  1
  Te  Te122  1  0.72591339  0.61170234  0.92596661  1
  Te  Te123  1  0.77049006  0.94490905  0.20772987  1
  Te  Te124  1  0.74951305  0.92037750  0.58177967  1
  Te  Te125  1  0.75231215  0.94019946  0.91889624  1
  Te  Te126  1  0.25135114  0.25154965  0.08390953  1
  Te  Te127  1  0.21495541  0.27382035  0.40989922  1
  Te  Te128  1  0.26091460  0.25613170  0.74180014  1
  Te  Te129  1  0.25781591  0.57647239  0.10070289  1
  Te  Te130  1  0.25837756  0.55614068  0.42069074  1
  Te  Te131  1  0.24295416  0.56417057  0.72625153  1
  Te  Te132  1  0.23348761  0.93177273  0.08685986  1
  Te  Te133  1  0.23259097  0.92832590  0.42703506  1
  Te  Te134  1  0.23851898  0.92350500  0.74030219  1
  Te  Te135  1  0.56410391  0.21791296  0.07643600  1
  Te  Te136  1  0.57692182  0.25114447  0.41486276  1
  Te  Te137  1  0.63914931  0.29194788  0.76757022  1
  Te  Te138  1  0.58467704  0.59130995  0.08163073  1
  Te  Te139  1  0.56596933  0.57481603  0.44957898  1
  Te  Te140  1  0.57477212  0.57190056  0.73489874  1
  Te  Te141  1  0.59035511  0.91602314  0.08435044  1
  Te  Te142  1  0.60397449  0.92582996  0.39019424  1
  Te  Te143  1  0.57968685  0.92346605  0.74548270  1
  Te  Te144  1  0.91823817  0.21831615  0.04620671  1
  Te  Te145  1  0.89091935  0.28415969  0.43444664  1
  Te  Te146  1  0.92451888  0.26465241  0.74664664  1
  Te  Te147  1  0.91266849  0.57627234  0.07614406  1
  Te  Te148  1  0.93010361  0.54759682  0.42625179  1
  Te  Te149  1  0.89543072  0.56549206  0.73232404  1
  Te  Te150  1  0.91060872  0.92508449  0.09880365  1
  Te  Te151  1  0.91558837  0.90118303  0.40978911  1
  Te  Te152  1  0.89589690  0.94933937  0.75695075  1
  Te  Te153  1  0.26368232  0.09974945  0.22094952  1
  Te  Te154  1  0.22757613  0.08479790  0.57401972  1
  Te  Te155  1  0.25314733  0.08200683  0.91088293  1
  Te  Te156  1  0.23758038  0.42876846  0.25556606  1
  Te  Te157  1  0.23222688  0.43711047  0.54676552  1
  Te  Te158  1  0.24313960  0.41652600  0.90941604  1
  Te  Te159  1  0.25159885  0.74655032  0.25592946  1
  Te  Te160  1  0.26017369  0.74273743  0.59493963  1
  Te  Te161  1  0.23520201  0.76775119  0.94137009  1
  Te  Te162  1  0.60929843  0.09762676  0.23973723  1
  Te  Te163  1  0.57664836  0.08521039  0.57984496  1
  Te  Te164  1  0.59511696  0.12261423  0.94055625  1
  Te  Te165  1  0.58603130  0.38136969  0.25237513  1
  Te  Te166  1  0.63063941  0.41748166  0.57890258  1
  Te  Te167  1  0.60811978  0.40577011  0.91706652  1
  Te  Te168  1  0.61498370  0.75350538  0.25240792  1
  Te  Te169  1  0.59336176  0.73995534  0.58453805  1
  Te  Te170  1  0.56196370  0.74147581  0.89558675  1
  Te  Te171  1  0.90223039  0.10792001  0.23121633  1
  Te  Te172  1  0.91732929  0.10235273  0.58780719  1
  Te  Te173  1  0.88017296  0.11344646  0.92570846  1
  Te  Te174  1  0.92475442  0.39852196  0.25936415  1
  Te  Te175  1  0.89015685  0.45158790  0.55771354  1
  Te  Te176  1  0.92886938  0.40722700  0.92387497  1
  Te  Te177  1  0.92259836  0.74917415  0.25047087  1
  Te  Te178  1  0.91072073  0.73209880  0.56712619  1
  Te  Te179  1  0.91145222  0.75512723  0.90995320  1
