# generated using pymatgen
data_In2Te3
_symmetry_space_group_name_H-M   'P 1'
_cell_length_a   18.99273759
_cell_length_b   18.95868359
_cell_length_c   18.99377512
_cell_angle_alpha   90.00796691
_cell_angle_beta   90.20893533
_cell_angle_gamma   90.20914686
_symmetry_Int_Tables_number   1
_chemical_formula_structural   In2Te3
_chemical_formula_sum   'In72 Te108'
_cell_volume   6839.13618996
_cell_formula_units_Z   36
loop_
 _symmetry_equiv_pos_site_id
 _symmetry_equiv_pos_as_xyz
  1  'x, y, z'
loop_
 _atom_site_type_symbol
 _atom_site_label
 _atom_site_symmetry_multiplicity
 _atom_site_fract_x
 _atom_site_fract_y
 _atom_site_fract_z
 _atom_site_occupancy
  In  In0  1  0.49867514  0.63996578  0.14703891  1
  In  In1  1  0.66572117  0.83401724  0.84071430  1
  In  In2  1  -0.05374266  0.24254580  0.18534031  1
  In  In3  1  0.69652165  0.05815451  0.00259865  1
  In  In4  1  0.32553483  0.63946704  0.69980197  1
  In  In5  1  0.17025673  -0.00778116  0.15561521  1
  In  In6  1  0.14758112  0.84604729  0.36072075  1
  In  In7  1  0.83427196  0.18928794  0.33349906  1
  In  In8  1  0.13628697  0.16932963  -0.03199568  1
  In  In9  1  0.34298058  0.18439787  0.83778788  1
  In  In10  1  0.50134410  0.49940365  0.68362646  1
  In  In11  1  0.02420906  0.81867283  0.82425020  1
  In  In12  1  0.14956730  -0.02708836  0.56074381  1
  In  In13  1  0.52708045  0.66295059  0.81062799  1
  In  In14  1  0.85110299  0.48687960  -0.02151874  1
  In  In15  1  0.00419425  0.65247872  -0.01266671  1
  In  In16  1  0.33115668  -0.04029689  0.69559619  1
  In  In17  1  -0.00741954  0.18493952  0.81897131  1
  In  In18  1  0.67239478  0.51349410  0.15755119  1
  In  In19  1  -0.01579839  0.04126363  0.37307762  1
  In  In20  1  0.18701508  0.63911653  0.14799438  1
  In  In21  1  0.33276004  0.01959220  -0.01622359  1
  In  In22  1  0.17329357  0.64639610  0.53141346  1
  In  In23  1  0.32984232  0.19745013  0.10865486  1
  In  In24  1  0.15859615  0.31253066  0.49619629  1
  In  In25  1  0.66402170  0.68591075  0.33588958  1
  In  In26  1  0.01782511  0.63912924  0.34240245  1
  In  In27  1  0.67690223  0.33489296  -0.00742386  1
  In  In28  1  -0.01560735  0.84727638  0.16009850  1
  In  In29  1  0.50301166  0.29802410  0.49483137  1
  In  In30  1  0.48983311  0.15593588  0.32853509  1
  In  In31  1  0.31338333  0.16049662  0.50849015  1
  In  In32  1  0.84373919  0.68424980  0.15821197  1
  In  In33  1  0.34340309  0.49600636  0.49263755  1
  In  In34  1  0.01258463  0.50070111  0.82394831  1
  In  In35  1  0.16422576  0.47018236  0.32471652  1
  In  In36  1  0.66882620  0.01621734  0.67448938  1
  In  In37  1  0.50386971  0.00756268  0.85440656  1
  In  In38  1  0.33944846  0.34415026  0.30417332  1
  In  In39  1  0.27221731  0.40442955  0.71099100  1
  In  In40  1  0.67041222  0.16512005  0.49512399  1
  In  In41  1  0.51592862  -0.02921128  0.17841841  1
  In  In42  1  0.85291220  0.82451558  0.68568375  1
  In  In43  1  0.35116814  0.66932038  0.32500819  1
  In  In44  1  0.15812236  0.12900545  0.33051899  1
  In  In45  1  0.51113695  0.53749339  0.30210975  1
  In  In46  1  0.80394108  0.83682414  0.01140939  1
  In  In47  1  0.85992782  0.48455497  0.31580705  1
  In  In48  1  0.50981460  0.81261710  0.34888385  1
  In  In49  1  0.67567135  0.36180418  0.67182279  1
  In  In50  1  0.83445695  0.85914888  0.34847168  1
  In  In51  1  0.65516123  0.83006951  0.50892610  1
  In  In52  1  0.68530507  0.00581330  0.33377090  1
  In  In53  1  0.87115095  0.01321154  0.55186929  1
  In  In54  1  0.82953611  0.50313826  0.67818531  1
  In  In55  1  0.29633555  0.00687829  0.35299356  1
  In  In56  1  0.50020907  0.84787404  0.00836550  1
  In  In57  1  0.13798822  0.31413008  0.13478889  1
  In  In58  1  0.52687083  0.16680887  0.00650643  1
  In  In59  1  -0.00955266  -0.00500601  -0.00578579  1
  In  In60  1  0.00781118  0.50299964  0.52232011  1
  In  In61  1  0.85233109  0.35125173  0.49387595  1
  In  In62  1  0.82902411  0.66184864  0.85733668  1
  In  In63  1  0.51389527  0.19121150  0.66667257  1
  In  In64  1  0.16210165  0.18487655  0.69694243  1
  In  In65  1  0.30803202  0.57833184  -0.01802197  1
  In  In66  1  0.17516509  0.79219828  -0.01591024  1
  In  In67  1  0.68869121  0.49749333  0.48808816  1
  In  In68  1  0.82766980  0.03411360  0.79784649  1
  In  In69  1  0.33417120  0.82171554  0.18014952  1
  In  In70  1  0.50758680  0.40459473  0.09904886  1
  In  In71  1  0.48633618  0.81263833  0.65036778  1
  Te  Te72  1  0.07774302  0.08585804  0.08027357  1
  Te  Te73  1  0.09932440  0.08127925  0.46055750  1
  Te  Te74  1  0.07252064  0.07726057  0.75115634  1
  Te  Te75  1  0.00604390  0.36960371  0.09677844  1
  Te  Te76  1  0.06632261  0.40568587  0.41863853  1
  Te  Te77  1  0.12027443  0.42874469  0.74890748  1
  Te  Te78  1  0.07983071  0.74714733  0.09834902  1
  Te  Te79  1  0.08378007  0.73465617  0.43920754  1
  Te  Te80  1  0.12766904  0.78665925  0.72029810  1
  Te  Te81  1  0.43272521  0.06691600  0.08539458  1
  Te  Te82  1  0.41044803  0.07604999  0.42971309  1
  Te  Te83  1  0.42663618  0.09032062  0.75209381  1
  Te  Te84  1  0.37205762  0.44337855  0.05320164  1
  Te  Te85  1  0.43084665  0.40696698  0.40721208  1
  Te  Te86  1  0.41960676  0.39219108  0.74054389  1
  Te  Te87  1  0.41091128  0.74412168  0.07679293  1
  Te  Te88  1  0.41196269  0.74574675  0.43216236  1
  Te  Te89  1  0.41160744  0.74961348  0.76416633  1
  Te  Te90  1  0.75903140  0.14001320  0.10976740  1
  Te  Te91  1  0.77543210  0.07165515  0.43852760  1
  Te  Te92  1  0.74364165  0.13457357  0.72665509  1
  Te  Te93  1  0.76510207  0.41951087  0.08832601  1
  Te  Te94  1  0.75343103  0.40488419  0.38754848  1
  Te  Te95  1  0.76953228  0.40839411  0.77709921  1
  Te  Te96  1  0.72977838  0.73114164  0.08028493  1
  Te  Te97  1  0.76151641  0.75475640  0.43022376  1
  Te  Te98  1  0.74608958  0.74165686  0.75400856  1
  Te  Te99  1  0.08720800  0.23544679  0.25680022  1
  Te  Te100  1  0.07677013  0.26025574  0.60468112  1
  Te  Te101  1  0.04642597  0.27644764  0.92204301  1
  Te  Te102  1  0.08341357  0.56144184  0.23333687  1
  Te  Te103  1  0.06123882  0.60331794  0.61663916  1
  Te  Te104  1  0.08977321  0.62084661  0.87330249  1
  Te  Te105  1  0.07431593  0.92968071  0.25585422  1
  Te  Te106  1  0.05141822  0.86974502  0.60495677  1
  Te  Te107  1  0.09536826  0.90882868  0.92656299  1
  Te  Te108  1  0.41925193  0.24338647  0.22690390  1
  Te  Te109  1  0.39421734  0.25731040  0.59245327  1
  Te  Te110  1  0.43742787  0.25928537  0.92692087  1
  Te  Te111  1  0.38655696  0.56686357  0.22080558  1
  Te  Te112  1  0.41678511  0.58409535  0.59007597  1
  Te  Te113  1  0.43502695  0.57544876  0.89250525  1
  Te  Te114  1  0.40050248  0.92149509  0.27319633  1
  Te  Te115  1  0.41529410  0.92112878  0.58434517  1
  Te  Te116  1  0.40233882  0.90866572  0.90790444  1
  Te  Te117  1  0.77761559  0.25497807  0.21507530  1
  Te  Te118  1  0.74544942  0.27188495  0.57023064  1
  Te  Te119  1  0.76274458  0.22424183  0.94264092  1
  Te  Te120  1  0.75783531  0.59256797  0.26043685  1
  Te  Te121  1  0.76276229  0.58589069  0.57656830  1
  Te  Te122  1  0.74214397  0.57389065  0.93352290  1
  Te  Te123  1  0.74728344  0.90904633  0.24361483  1
  Te  Te124  1  0.75535694  0.91803894  0.59608581  1
  Te  Te125  1  0.75407081  0.94045992  0.90221547  1
  Te  Te126  1  0.23365125  0.27589107  0.02401337  1
  Te  Te127  1  0.25968639  0.24975684  0.39568774  1
  Te  Te128  1  0.23310042  0.27744306  0.79305429  1
  Te  Te129  1  0.17606044  0.54093943  0.04189361  1
  Te  Te130  1  0.24865379  0.57387734  0.39945195  1
  Te  Te131  1  0.22938757  0.54144399  0.75866631  1
  Te  Te132  1  0.26182323  0.90467743  0.07399662  1
  Te  Te133  1  0.24492664  0.90909092  0.45741401  1
  Te  Te134  1  0.22082678  0.90066793  0.76684367  1
  Te  Te135  1  0.58349685  0.27078157  0.09838977  1
  Te  Te136  1  0.59827879  0.24540878  0.38855048  1
  Te  Te137  1  0.58299104  0.28312177  0.76200780  1
  Te  Te138  1  0.56468782  0.54168218  0.05397921  1
  Te  Te139  1  0.58139190  0.59281556  0.42178374  1
  Te  Te140  1  0.61300043  0.55632354  0.75933066  1
  Te  Te141  1  0.60704959  0.94231155  0.06224874  1
  Te  Te142  1  0.58400326  0.92603204  0.41639080  1
  Te  Te143  1  0.57660112  0.91939018  0.75076995  1
  Te  Te144  1  0.86964305  0.23457590  0.05129403  1
  Te  Te145  1  0.92755314  0.24172176  0.43289954  1
  Te  Te146  1  0.89015786  0.21007043  0.71354057  1
  Te  Te147  1  0.92330853  0.57761121  0.08698214  1
  Te  Te148  1  0.91054028  0.57482332  0.42692394  1
  Te  Te149  1  0.91829413  0.60119614  0.75489573  1
  Te  Te150  1  0.88726572  0.93922512  0.09095774  1
  Te  Te151  1  0.93465169  0.91917780  0.44453706  1
  Te  Te152  1  0.93035433  0.92429312  0.76756131  1
  Te  Te153  1  0.26415766  0.09241435  0.22246810  1
  Te  Te154  1  0.25177869  0.07836206  0.61937500  1
  Te  Te155  1  0.23760481  0.08492340  0.89021831  1
  Te  Te156  1  0.23840421  0.40410106  0.21101103  1
  Te  Te157  1  0.23122511  0.42840411  0.56415900  1
  Te  Te158  1  0.34206070  0.45274379  0.90247218  1
  Te  Te159  1  0.22682362  0.75361705  0.26268667  1
  Te  Te160  1  0.26008811  0.73679194  0.60712644  1
  Te  Te161  1  0.25763713  0.70268136  0.90726455  1
  Te  Te162  1  0.59342426  0.08506626  0.24246205  1
  Te  Te163  1  0.57289924  0.08360347  0.57636822  1
  Te  Te164  1  0.60788908  0.11140637  0.89034487  1
  Te  Te165  1  0.58058184  0.42275182  0.23894567  1
  Te  Te166  1  0.57832747  0.41246460  0.56123270  1
  Te  Te167  1  0.56070611  0.35960182  0.90178922  1
  Te  Te168  1  0.57393599  0.74841941  0.23050492  1
  Te  Te169  1  0.59204545  0.73114285  0.59439504  1
  Te  Te170  1  0.58226484  0.74762303  0.93030108  1
  Te  Te171  1  0.92204322  0.09482878  0.25120841  1
  Te  Te172  1  0.96107067  0.09929197  0.63289586  1
  Te  Te173  1  0.91081337  0.09223198  0.91308951  1
  Te  Te174  1  0.94172403  0.38873104  0.23888700  1
  Te  Te175  1  0.92880720  0.40933211  0.61174637  1
  Te  Te176  1  0.91048262  0.40150784  0.87232553  1
  Te  Te177  1  0.93054241  0.74978540  0.26911371  1
  Te  Te178  1  0.94827755  0.75293322  0.60249648  1
  Te  Te179  1  0.91678086  0.77164836  0.93273872  1
