# generated using pymatgen
data_In2Te3
_symmetry_space_group_name_H-M   'P 1'
_cell_length_a   18.94079477
_cell_length_b   18.92924902
_cell_length_c   18.94685616
_cell_angle_alpha   90.01625561
_cell_angle_beta   90.24133514
_cell_angle_gamma   90.07831460
_symmetry_Int_Tables_number   1
_chemical_formula_structural   In2Te3
_chemical_formula_sum   'In72 Te108'
_cell_volume   6793.04457770
_cell_formula_units_Z   36
loop_
 _symmetry_equiv_pos_site_id
 _symmetry_equiv_pos_as_xyz
  1  'x, y, z'
loop_
 _atom_site_type_symbol
 _atom_site_label
 _atom_site_symmetry_multiplicity
 _atom_site_fract_x
 _atom_site_fract_y
 _atom_site_fract_z
 _atom_site_occupancy
  In  In0  1  0.32033739  0.17496425  0.50035896  1
  In  In1  1  0.47638739  0.02139928  0.81300641  1
  In  In2  1  0.36089995  0.51241190  0.16492454  1
  In  In3  1  0.30215674  0.51158267  0.48633412  1
  In  In4  1  0.16995313  0.14276305  0.67623747  1
  In  In5  1  0.00537909  0.82080761  0.85228877  1
  In  In6  1  0.00406623  -0.01977952  0.00623481  1
  In  In7  1  0.02182818  0.81682717  0.14284611  1
  In  In8  1  0.50561567  -0.00841370  0.51574887  1
  In  In9  1  0.15621358  0.14717065  -0.01293652  1
  In  In10  1  0.65203362  -0.02843662  0.34849240  1
  In  In11  1  0.32825231  0.82113551  0.49015492  1
  In  In12  1  0.32382120  0.65917820  -0.01437918  1
  In  In13  1  0.86719543  0.19098395  0.35141770  1
  In  In14  1  0.71352293  0.32788780  0.36086332  1
  In  In15  1  0.80322377  0.19414533  -0.00648191  1
  In  In16  1  0.87455224  0.82247849  0.31646237  1
  In  In17  1  0.84039727  0.37462761  0.50720192  1
  In  In18  1  0.47789560  0.36643192  0.52926351  1
  In  In19  1  -0.00784796  0.17344549  0.49743013  1
  In  In20  1  0.47753657  0.82604762  0.66033399  1
  In  In21  1  0.67789981  0.80848197  0.83674580  1
  In  In22  1  0.69816273  0.50225634  0.17670385  1
  In  In23  1  0.85197907  0.01672437  0.46826921  1
  In  In24  1  0.83640109  0.66865579  0.51196840  1
  In  In25  1  0.65984092  0.17519513  0.16559563  1
  In  In26  1  0.46533172  -0.01582419  0.16101484  1
  In  In27  1  0.17725842  0.34671783  0.15241486  1
  In  In28  1  0.00847121  0.50621922  0.83553088  1
  In  In29  1  0.67538404  -0.01110078  0.68255314  1
  In  In30  1  0.32510470  0.66791018  0.66199989  1
  In  In31  1  -0.00328754  0.65214418  -0.00710605  1
  In  In32  1  0.12715302  0.79232410  0.33877132  1
  In  In33  1  0.51125988  0.50470900  0.32320138  1
  In  In34  1  0.66842559  0.65518073  0.00797281  1
  In  In35  1  0.32369683  0.31435025  0.31367752  1
  In  In36  1  0.00643164  0.66718637  0.66025640  1
  In  In37  1  0.33540826  0.49106035  0.84401862  1
  In  In38  1  0.30786267  0.82554583  0.82258200  1
  In  In39  1  0.14464991  0.85416816  0.65573006  1
  In  In40  1  0.82319255  0.50804506  0.68147186  1
  In  In41  1  0.67185120  0.66674691  0.34489465  1
  In  In42  1  0.66030062  0.16009427  0.51663509  1
  In  In43  1  0.32721866  0.31969998  0.67671115  1
  In  In44  1  0.17775703  0.17679149  0.31335031  1
  In  In45  1  0.83417666  0.50615088  -0.00097499  1
  In  In46  1  0.85718620  0.15878823  0.65565258  1
  In  In47  1  0.33582475  0.30683770  -0.04412264  1
  In  In48  1  0.64489129  0.32143743  0.67866345  1
  In  In49  1  0.29369370  0.82708495  0.17251638  1
  In  In50  1  0.00594097  0.35501181  0.00706084  1
  In  In51  1  0.51901305  0.82940105  -0.00139706  1
  In  In52  1  -0.01059036  0.34357979  0.66007349  1
  In  In53  1  0.16609162  0.51165697  0.66349771  1
  In  In54  1  0.52412616  0.36644842  0.13741224  1
  In  In55  1  -0.00163489  0.16788617  0.16239846  1
  In  In56  1  0.00566349  0.16807893  0.82150782  1
  In  In57  1  0.66115400  0.82071116  0.52855201  1
  In  In58  1  0.33413185  0.00164410  -0.00328073  1
  In  In59  1  0.51809028  0.52425171  0.68415162  1
  In  In60  1  0.64260292  0.36142499  -0.03341483  1
  In  In61  1  0.83060616  0.00426093  0.86190473  1
  In  In62  1  0.00747832  -0.00076044  0.32334283  1
  In  In63  1  0.64810409  0.00655326  -0.01481131  1
  In  In64  1  0.50410403  0.67256758  0.16317153  1
  In  In65  1  0.71202077  0.81635926  0.16449969  1
  In  In66  1  0.33308685  -0.02694179  0.35863960  1
  In  In67  1  0.52732167  0.17911384  0.33983684  1
  In  In68  1  0.11116263  0.53009760  0.33557244  1
  In  In69  1  0.35025012  0.14364936  0.15806374  1
  In  In70  1  0.87036277  0.50206966  0.32376125  1
  In  In71  1  0.82970821  0.83982616  0.68876327  1
  Te  Te72  1  0.09230714  0.06867383  0.09926205  1
  Te  Te73  1  0.08776587  0.09669448  0.40717597  1
  Te  Te74  1  0.08673263  0.05861981  0.76719236  1
  Te  Te75  1  0.07973927  0.44517331  0.09886484  1
  Te  Te76  1  0.06071624  0.41617595  0.40896580  1
  Te  Te77  1  0.09163991  0.41194115  0.74984983  1
  Te  Te78  1  0.10549947  0.74472012  0.04419566  1
  Te  Te79  1  0.06310084  0.69070690  0.42905287  1
  Te  Te80  1  0.09460517  0.74746891  0.75367173  1
  Te  Te81  1  0.44549410  0.09102287  0.05315971  1
  Te  Te82  1  0.43116680  0.08687139  0.41300493  1
  Te  Te83  1  0.37147157  0.12558912  0.78818870  1
  Te  Te84  1  0.39527350  0.39700437  0.07035950  1
  Te  Te85  1  0.40757979  0.41260273  0.40310607  1
  Te  Te86  1  0.42216857  0.42041150  0.74161163  1
  Te  Te87  1  0.41117068  0.76110691  0.08121838  1
  Te  Te88  1  0.45536492  0.75702883  0.45875833  1
  Te  Te89  1  0.41478535  0.73437456  0.76532984  1
  Te  Te90  1  0.74356828  0.08301303  0.07887725  1
  Te  Te91  1  0.73812357  0.09925300  0.40057983  1
  Te  Te92  1  0.76300732  0.08952386  0.75386203  1
  Te  Te93  1  0.74601200  0.40515715  0.07196113  1
  Te  Te94  1  0.75178993  0.45980486  0.41955402  1
  Te  Te95  1  0.73805133  0.40990445  0.75567175  1
  Te  Te96  1  0.78055150  0.72940932  0.07092156  1
  Te  Te97  1  0.76181677  0.77304415  0.41808454  1
  Te  Te98  1  0.73678644  0.73210128  0.72493351  1
  Te  Te99  1  0.08053692  0.26796381  0.24178920  1
  Te  Te100  1  0.08312512  0.24595196  0.59431757  1
  Te  Te101  1  0.08378937  0.25942970  0.91630950  1
  Te  Te102  1  0.03838883  0.57834063  0.21455510  1
  Te  Te103  1  0.09551627  0.59671600  0.56304007  1
  Te  Te104  1  0.10240207  0.57963859  0.91970290  1
  Te  Te105  1  0.09526309  0.90846054  0.24341240  1
  Te  Te106  1  0.04857303  0.91897073  0.56737088  1
  Te  Te107  1  0.08958668  0.93642433  0.89571595  1
  Te  Te108  1  0.43740599  0.24812558  0.23715205  1
  Te  Te109  1  0.42517242  0.23871529  0.59080949  1
  Te  Te110  1  0.43721810  0.24699465  0.86508738  1
  Te  Te111  1  0.41705264  0.61130705  0.27058014  1
  Te  Te112  1  0.40577343  0.56849431  0.58214697  1
  Te  Te113  1  0.42902255  0.56634906  0.93492139  1
  Te  Te114  1  0.41043760  0.88637317  0.26133026  1
  Te  Te115  1  0.39131111  0.92787154  0.59043845  1
  Te  Te116  1  0.42541513  0.91091198  0.91002729  1
  Te  Te117  1  0.76946547  0.25619462  0.23806517  1
  Te  Te118  1  0.76842525  0.25296680  0.57418059  1
  Te  Te119  1  0.72003266  0.25974568  0.89064023  1
  Te  Te120  1  0.77530646  0.60605963  0.25258449  1
  Te  Te121  1  0.74054608  0.59900394  0.59801537  1
  Te  Te122  1  0.74401966  0.57825940  0.90540198  1
  Te  Te123  1  0.76708795  0.91907428  0.26190092  1
  Te  Te124  1  0.75129511  0.94082099  0.56074960  1
  Te  Te125  1  0.74676195  0.90125296  0.93524893  1
  Te  Te126  1  0.25065979  0.23015046  0.08236617  1
  Te  Te127  1  0.22976396  0.26933250  0.42361927  1
  Te  Te128  1  0.23718838  0.24366900  0.76385431  1
  Te  Te129  1  0.25911340  0.59529550  0.10106798  1
  Te  Te130  1  0.23393227  0.59898325  0.38967015  1
  Te  Te131  1  0.24657725  0.58962606  0.76518171  1
  Te  Te132  1  0.24081366  0.93040706  0.08339100  1
  Te  Te133  1  0.21805281  0.89517412  0.41577226  1
  Te  Te134  1  0.25443877  0.92245674  0.72823047  1
  Te  Te135  1  0.57988406  0.25041601  0.06117713  1
  Te  Te136  1  0.58369801  0.27535468  0.44266187  1
  Te  Te137  1  0.57192081  0.24949101  0.78372219  1
  Te  Te138  1  0.58312085  0.56307868  0.09542883  1
  Te  Te139  1  0.57630176  0.58890894  0.42359445  1
  Te  Te140  1  0.61979260  0.52311519  0.79740186  1
  Te  Te141  1  0.59336826  0.91316369  0.10126150  1
  Te  Te142  1  0.55214321  0.87668636  0.42488452  1
  Te  Te143  1  0.57820655  0.90005876  0.75650331  1
  Te  Te144  1  0.91200150  0.26067875  0.08028355  1
  Te  Te145  1  0.95162329  0.30478914  0.41996596  1
  Te  Te146  1  0.90480949  0.26236745  0.75600810  1
  Te  Te147  1  0.93046332  0.56445733  0.09947217  1
  Te  Te148  1  0.93318880  0.60656705  0.41524684  1
  Te  Te149  1  0.91548464  0.60065881  0.76103071  1
  Te  Te150  1  0.91478127  0.90592399  0.09310639  1
  Te  Te151  1  0.94931572  0.90225056  0.42714167  1
  Te  Te152  1  0.92043988  0.92625692  0.76935134  1
  Te  Te153  1  0.26513899  0.06693255  0.25667072  1
  Te  Te154  1  0.24148528  0.07330531  0.56746537  1
  Te  Te155  1  0.25991139  0.08725763  0.89804665  1
  Te  Te156  1  0.25520104  0.43271500  0.25046806  1
  Te  Te157  1  0.24406394  0.41020909  0.58137151  1
  Te  Te158  1  0.24116973  0.41471508  0.92788346  1
  Te  Te159  1  0.22590896  0.72360409  0.25237997  1
  Te  Te160  1  0.23037356  0.74674405  0.57703227  1
  Te  Te161  1  0.23221642  0.76644643  0.93456421  1
  Te  Te162  1  0.57511935  0.06814741  0.24448363  1
  Te  Te163  1  0.57460420  0.08517647  0.61566517  1
  Te  Te164  1  0.59111190  0.08979530  0.87792847  1
  Te  Te165  1  0.60610950  0.40044161  0.26111134  1
  Te  Te166  1  0.59890294  0.43433281  0.58692476  1
  Te  Te167  1  0.53991128  0.44768987  0.90232469  1
  Te  Te168  1  0.59855542  0.75785959  0.24666489  1
  Te  Te169  1  0.56532936  0.72718940  0.59220361  1
  Te  Te170  1  0.57349206  0.72345069  0.90709690  1
  Te  Te171  1  0.90616004  0.08415158  0.24879843  1
  Te  Te172  1  0.94619440  0.05627163  0.58854791  1
  Te  Te173  1  0.91914414  0.10353193  0.93662017  1
  Te  Te174  1  0.86942110  0.37879146  0.24627322  1
  Te  Te175  1  0.93404100  0.46333740  0.58626633  1
  Te  Te176  1  0.90972345  0.41338506  0.90532003  1
  Te  Te177  1  0.95837818  0.72370764  0.24364701  1
  Te  Te178  1  0.91989273  0.77102444  0.58911987  1
  Te  Te179  1  0.90306040  0.73785579  0.91567696  1
