# generated using pymatgen
data_In2Te3
_symmetry_space_group_name_H-M   'P 1'
_cell_length_a   18.75755584
_cell_length_b   18.76131742
_cell_length_c   18.76316421
_cell_angle_alpha   90.17206925
_cell_angle_beta   90.00274815
_cell_angle_gamma   90.02219226
_symmetry_Int_Tables_number   1
_chemical_formula_structural   In2Te3
_chemical_formula_sum   'In72 Te108'
_cell_volume   6603.03603016
_cell_formula_units_Z   36
loop_
 _symmetry_equiv_pos_site_id
 _symmetry_equiv_pos_as_xyz
  1  'x, y, z'
loop_
 _atom_site_type_symbol
 _atom_site_label
 _atom_site_symmetry_multiplicity
 _atom_site_fract_x
 _atom_site_fract_y
 _atom_site_fract_z
 _atom_site_occupancy
  In  In0  1  0.84982637  0.49099552  0.01405647  1
  In  In1  1  0.33238083  0.68047404  0.68625943  1
  In  In2  1  0.14819970  -0.00771785  0.48963919  1
  In  In3  1  0.33050017  0.01216495  0.31636081  1
  In  In4  1  0.00925355  0.64687928  0.33303371  1
  In  In5  1  0.17691769  0.15301006  -0.00291517  1
  In  In6  1  0.00740563  0.84649999  0.13831816  1
  In  In7  1  0.50955420  0.15225365  0.31884469  1
  In  In8  1  0.15938307  0.33110122  0.83998329  1
  In  In9  1  0.01401786  0.85097614  0.85103985  1
  In  In10  1  0.67965432  0.65482432  0.68006178  1
  In  In11  1  0.51827243  0.50159348  0.65810071  1
  In  In12  1  0.65865615  0.50586297  0.82988470  1
  In  In13  1  0.68659158  0.84955155  0.87604729  1
  In  In14  1  -0.00176059  -0.00747739  0.68239297  1
  In  In15  1  0.50409099  0.84796729  -0.01344826  1
  In  In16  1  0.30942772  0.86024571  0.14739121  1
  In  In17  1  0.48444180  0.84435820  0.34313749  1
  In  In18  1  0.02252345  0.31714320  0.28845440  1
  In  In19  1  0.16755830  0.32897678  0.48609919  1
  In  In20  1  0.30398824  0.53584385  0.46491975  1
  In  In21  1  0.31284363  0.35055607  0.32957790  1
  In  In22  1  0.00518685  0.81435630  0.51397510  1
  In  In23  1  0.82105236  -0.00214575  0.48401844  1
  In  In24  1  0.02305550  0.16059607  0.83469907  1
  In  In25  1  0.01290536  0.66027834  -0.00534918  1
  In  In26  1  0.65478882  0.15348611  0.49580014  1
  In  In27  1  0.85759344  0.32345955  0.85617237  1
  In  In28  1  0.82855248  0.68691191  0.15850422  1
  In  In29  1  0.13446573  0.48198848  0.02661337  1
  In  In30  1  0.17027601  0.48509689  0.67137487  1
  In  In31  1  0.67745817  0.33746883  0.31622853  1
  In  In32  1  0.50649703  0.66460446  0.49430087  1
  In  In33  1  0.33565610  0.19111244  0.48799685  1
  In  In34  1  0.48570842  0.34703505  0.51504017  1
  In  In35  1  0.65306146  -0.01068000  0.30563117  1
  In  In36  1  0.49427697  0.65781305  0.17300950  1
  In  In37  1  0.47744552  0.83534686  0.68516125  1
  In  In38  1  0.85273203  0.16599139  0.03292308  1
  In  In39  1  0.31348419  0.69129987  -0.01974766  1
  In  In40  1  0.65283045  0.33640238  0.68567855  1
  In  In41  1  0.01865256  0.17168630  0.50783555  1
  In  In42  1  0.67227939  0.84781139  0.14552577  1
  In  In43  1  0.00073131  0.49944177  0.49968206  1
  In  In44  1  0.31279445  0.32137929  0.68707262  1
  In  In45  1  0.66881968  0.65955211  0.32903566  1
  In  In46  1  0.84446350  0.52210050  0.65753019  1
  In  In47  1  0.50383318  0.31570592  0.85480546  1
  In  In48  1  0.33137419  0.49567035  0.84594444  1
  In  In49  1  -0.01143285  0.00011197  0.30394509  1
  In  In50  1  0.83899481  0.66692599  0.83472484  1
  In  In51  1  0.50452578  0.50137520  0.01814491  1
  In  In52  1  0.15711855  0.66614489  0.17432558  1
  In  In53  1  0.32403409  0.15826385  0.14559822  1
  In  In54  1  0.84406031  0.19201523  0.28980633  1
  In  In55  1  0.83213682  0.34925392  0.49089976  1
  In  In56  1  0.67943523  0.15371795  0.84366010  1
  In  In57  1  0.34020422  0.49303740  0.16902787  1
  In  In58  1  0.67093422  0.83378813  0.48982922  1
  In  In59  1  0.48911316  0.16504749  0.00548750  1
  In  In60  1  -0.00301218  0.01587300  0.00274584  1
  In  In61  1  0.16913914  0.15885310  0.67511977  1
  In  In62  1  0.15083402  0.82545827  0.31752674  1
  In  In63  1  0.67687391  0.49673973  0.16164782  1
  In  In64  1  0.80844836  0.82904468  0.32025461  1
  In  In65  1  0.33198261  0.81963864  0.51879835  1
  In  In66  1  0.00975555  0.67787969  0.67717639  1
  In  In67  1  0.31923038  -0.01558173  0.69556982  1
  In  In68  1  0.51049410  0.32574069  0.16176402  1
  In  In69  1  0.81764739  0.16201385  0.68886905  1
  In  In70  1  0.47841493  0.00145325  0.84159932  1
  In  In71  1  0.66678633  0.00239016  0.65693388  1
  Te  Te72  1  0.07094604  0.10726059  0.09984730  1
  Te  Te73  1  0.07872966  0.08885120  0.39364772  1
  Te  Te74  1  0.10995366  0.05366748  0.76872993  1
  Te  Te75  1  0.03558198  0.39973528  0.10688134  1
  Te  Te76  1  0.08047020  0.41513825  0.39946442  1
  Te  Te77  1  0.07202470  0.41271348  0.75367976  1
  Te  Te78  1  0.10817501  0.76030771  0.06464724  1
  Te  Te79  1  0.10823567  0.73042704  0.43025038  1
  Te  Te80  1  0.09917095  0.75419556  0.77213517  1
  Te  Te81  1  0.41830710  0.06101773  0.08569635  1
  Te  Te82  1  0.41963173  0.08159634  0.42025988  1
  Te  Te83  1  0.40194311  0.09235946  0.75356233  1
  Te  Te84  1  0.40868134  0.39556447  0.07159645  1
  Te  Te85  1  0.41050357  0.43355377  0.41403105  1
  Te  Te86  1  0.42601934  0.41402580  0.75156743  1
  Te  Te87  1  0.41236056  0.75455317  0.08729835  1
  Te  Te88  1  0.40045048  0.73604806  0.40976817  1
  Te  Te89  1  0.39848762  0.76606489  0.79131163  1
  Te  Te90  1  0.75677209  0.05794646  0.06897403  1
  Te  Te91  1  0.75310699  0.09727080  0.39082989  1
  Te  Te92  1  0.76233673  0.04688734  0.76991537  1
  Te  Te93  1  0.75847370  0.39810155  0.08716488  1
  Te  Te94  1  0.76758470  0.43140808  0.38808606  1
  Te  Te95  1  0.76206274  0.41540660  0.75722136  1
  Te  Te96  1  0.74697026  0.75499390  0.05651219  1
  Te  Te97  1  0.76612786  0.73217225  0.42755955  1
  Te  Te98  1  0.75129720  0.76375110  0.75713750  1
  Te  Te99  1  0.10287482  0.23086814  0.19620656  1
  Te  Te100  1  0.08990897  0.26780074  0.60307662  1
  Te  Te101  1  0.07357131  0.25512902  0.94127330  1
  Te  Te102  1  0.08666555  0.55545438  0.24413519  1
  Te  Te103  1  0.09356530  0.58512425  0.58575049  1
  Te  Te104  1  0.10077081  0.57186822  0.91501770  1
  Te  Te105  1  0.10147980  0.93357151  0.22252561  1
  Te  Te106  1  0.09498331  0.90380162  0.60179730  1
  Te  Te107  1  0.10575281  0.92997278  0.94217016  1
  Te  Te108  1  0.40938055  0.25037200  0.25481660  1
  Te  Te109  1  0.41893818  0.24420434  0.60558082  1
  Te  Te110  1  0.39463345  0.24398618  0.92149869  1
  Te  Te111  1  0.41150833  0.58051629  0.26604426  1
  Te  Te112  1  0.40723928  0.58042080  0.58719070  1
  Te  Te113  1  0.42040273  0.59014212  0.92643372  1
  Te  Te114  1  0.42491865  0.92724412  0.23106787  1
  Te  Te115  1  0.41543335  0.92922641  0.58256080  1
  Te  Te116  1  0.38450023  0.92781010  0.93525053  1
  Te  Te117  1  0.73064590  0.24733570  0.20979954  1
  Te  Te118  1  0.74749592  0.24546158  0.58087640  1
  Te  Te119  1  0.75248623  0.24962165  0.93560113  1
  Te  Te120  1  0.77246512  0.57818053  0.25050693  1
  Te  Te121  1  0.73943307  0.57688902  0.57061741  1
  Te  Te122  1  0.75334171  0.57887490  0.92438151  1
  Te  Te123  1  0.77472341  0.94046811  0.22597720  1
  Te  Te124  1  0.76523731  0.90384798  0.58903460  1
  Te  Te125  1  0.76210743  0.94551635  0.96993467  1
  Te  Te126  1  0.22788704  0.26142679  0.09256204  1
  Te  Te127  1  0.23062955  0.23263055  0.38600452  1
  Te  Te128  1  0.25497171  0.22214357  0.78663068  1
  Te  Te129  1  0.25297207  0.58696777  0.07414650  1
  Te  Te130  1  0.20308852  0.60893545  0.39067642  1
  Te  Te131  1  0.23918653  0.58458568  0.76477458  1
  Te  Te132  1  0.23300605  0.94672980  0.04889469  1
  Te  Te133  1  0.25158290  0.90969532  0.40959411  1
  Te  Te134  1  0.25328055  0.87161759  0.76362028  1
  Te  Te135  1  0.59739886  0.23665195  0.08230463  1
  Te  Te136  1  0.57488571  0.26068759  0.41593462  1
  Te  Te137  1  0.57742845  0.22452114  0.75302154  1
  Te  Te138  1  0.60184257  0.60305025  0.07998904  1
  Te  Te139  1  0.58365703  0.57118419  0.41093854  1
  Te  Te140  1  0.56129392  0.60421111  0.76322470  1
  Te  Te141  1  0.56974629  0.93681279  0.08656678  1
  Te  Te142  1  0.57707732  0.93537117  0.42622566  1
  Te  Te143  1  0.58635777  0.91388146  0.76072726  1
  Te  Te144  1  0.92469505  0.28757576  0.09648716  1
  Te  Te145  1  0.92571014  0.25106891  0.41431857  1
  Te  Te146  1  0.93064766  0.24611610  0.74400965  1
  Te  Te147  1  0.93114783  0.58823487  0.10220269  1
  Te  Te148  1  0.90799823  0.57900056  0.41587734  1
  Te  Te149  1  0.93829165  0.57412045  0.76559263  1
  Te  Te150  1  0.89938419  0.91529928  0.06013077  1
  Te  Te151  1  0.92760636  0.91007989  0.41490473  1
  Te  Te152  1  0.90973361  0.90855576  0.76415256  1
  Te  Te153  1  0.23083774  0.08168686  0.23428936  1
  Te  Te154  1  0.24675163  0.08536918  0.56541814  1
  Te  Te155  1  0.26766277  0.04812617  0.93683279  1
  Te  Te156  1  0.22587983  0.42619716  0.23743743  1
  Te  Te157  1  0.26844012  0.41229243  0.56963664  1
  Te  Te158  1  0.24531339  0.41198978  0.93745731  1
  Te  Te159  1  0.26408865  0.75183365  0.24496445  1
  Te  Te160  1  0.23289343  0.74663447  0.59855658  1
  Te  Te161  1  0.23260993  0.76489016  0.87806687  1
  Te  Te162  1  0.59579183  0.09162197  0.21573054  1
  Te  Te163  1  0.56513624  0.08386787  0.58917050  1
  Te  Te164  1  0.58546211  0.06966483  0.92793188  1
  Te  Te165  1  0.57171308  0.43167736  0.25233016  1
  Te  Te166  1  0.61053433  0.42184586  0.56575624  1
  Te  Te167  1  0.59501311  0.41086884  0.93195210  1
  Te  Te168  1  0.58756203  0.76744079  0.25566078  1
  Te  Te169  1  0.58023834  0.75883549  0.59026127  1
  Te  Te170  1  0.59054600  0.74748655  0.91984900  1
  Te  Te171  1  0.92112134  0.09299171  0.20866218  1
  Te  Te172  1  0.91622059  0.08165498  0.57961079  1
  Te  Te173  1  0.90803406  0.09251333  0.90602088  1
  Te  Te174  1  0.91066862  0.38506306  0.21738897  1
  Te  Te175  1  0.92502819  0.40667339  0.59717769  1
  Te  Te176  1  0.94268562  0.42849578  0.91529709  1
  Te  Te177  1  0.93481377  0.76283378  0.25240324  1
  Te  Te178  1  0.90542554  0.74039392  0.59252549  1
  Te  Te179  1  0.91639710  0.75812942  0.92903981  1
