# generated using pymatgen
data_In2Te3
_symmetry_space_group_name_H-M   'P 1'
_cell_length_a   18.78148000
_cell_length_b   18.79064672
_cell_length_c   18.77858321
_cell_angle_alpha   89.99336693
_cell_angle_beta   90.03118001
_cell_angle_gamma   89.96276182
_symmetry_Int_Tables_number   1
_chemical_formula_structural   In2Te3
_chemical_formula_sum   'In72 Te108'
_cell_volume   6627.26296958
_cell_formula_units_Z   36
loop_
 _symmetry_equiv_pos_site_id
 _symmetry_equiv_pos_as_xyz
  1  'x, y, z'
loop_
 _atom_site_type_symbol
 _atom_site_label
 _atom_site_symmetry_multiplicity
 _atom_site_fract_x
 _atom_site_fract_y
 _atom_site_fract_z
 _atom_site_occupancy
  In  In0  1  0.81920208  0.66230304  0.16776600  1
  In  In1  1  0.18841705  0.48321987  0.00257318  1
  In  In2  1  0.33297412  0.64940382  0.67187437  1
  In  In3  1  0.84038056  0.31624941  0.18418374  1
  In  In4  1  0.15761241  0.84142644  0.68068541  1
  In  In5  1  0.03148289  0.34744806  0.65923260  1
  In  In6  1  0.65756958  0.84004353  0.52982080  1
  In  In7  1  0.01203902  0.83868110  0.15014696  1
  In  In8  1  0.20656167  0.15639838  0.64254672  1
  In  In9  1  0.64525517  0.01173279  0.65715679  1
  In  In10  1  0.01150077  0.18432298  0.20169539  1
  In  In11  1  0.49017395  0.82298436  0.67003455  1
  In  In12  1  0.50445642  0.82600521  -0.01134837  1
  In  In13  1  0.82108469  0.17567338  0.65493048  1
  In  In14  1  0.47142266  0.49055464  0.66449237  1
  In  In15  1  0.47504636  0.49681763  -0.00124699  1
  In  In16  1  0.32077209  0.64753978  -0.00556397  1
  In  In17  1  0.84373391  0.67458496  0.49277103  1
  In  In18  1  0.66011134  0.47645932  0.18373068  1
  In  In19  1  0.47646791  0.35657657  0.48257575  1
  In  In20  1  0.65715548  0.30592691  0.66144221  1
  In  In21  1  0.49837484  0.16611127  0.35083905  1
  In  In22  1  0.64955027  0.66738863  0.65154517  1
  In  In23  1  -0.00752066  0.67861693  0.00149949  1
  In  In24  1  -0.00017566  -0.00980267  0.01506518  1
  In  In25  1  0.02099717  0.51674521  0.17446675  1
  In  In26  1  0.34005821  0.83519159  0.49281276  1
  In  In27  1  0.51743149  0.02010757  0.18850443  1
  In  In28  1  0.49377642  0.82607797  0.34297062  1
  In  In29  1  0.18553902  0.19750131  -0.00053426  1
  In  In30  1  0.84625269  0.83240515  0.32308994  1
  In  In31  1  0.01878691  0.17445521  0.50141026  1
  In  In32  1  0.84199020  0.32147947  0.83591457  1
  In  In33  1  0.00762544  0.50325779  0.51718273  1
  In  In34  1  0.31129656  0.36253655  0.65542860  1
  In  In35  1  0.01994375  0.64080007  0.35162277  1
  In  In36  1  0.01087088  0.01809027  0.34868905  1
  In  In37  1  0.65443007  0.50428226  0.83404449  1
  In  In38  1  0.48681195  0.16825454  0.65802929  1
  In  In39  1  0.49897657  0.01049252  0.81400247  1
  In  In40  1  0.01719055  0.16797360  0.85863644  1
  In  In41  1  0.65251883  0.67050151  0.00156385  1
  In  In42  1  0.01954284  0.35068436  -0.00306397  1
  In  In43  1  0.83701880  0.66667043  0.84413327  1
  In  In44  1  0.33064646  0.00223163  -0.00478271  1
  In  In45  1  0.15462231  0.00166641  0.17481081  1
  In  In46  1  0.01611321  0.84096891  0.50552203  1
  In  In47  1  -0.00153751  -0.00254185  0.65474893  1
  In  In48  1  0.31942765  0.17559364  0.17248979  1
  In  In49  1  0.83416629  0.82503382  0.65020847  1
  In  In50  1  0.49529426  0.00469966  0.49230283  1
  In  In51  1  0.81707075  0.17531733  -0.00008716  1
  In  In52  1  0.67029652  0.01018301  -0.02131607  1
  In  In53  1  0.66330586  0.48112883  0.46026655  1
  In  In54  1  0.85239888  0.49387006  0.65831151  1
  In  In55  1  0.65795921  0.33351133  0.01682399  1
  In  In56  1  0.17648839  0.66201176  0.81847330  1
  In  In57  1  0.64971937  0.65408072  0.33236259  1
  In  In58  1  0.35380413  -0.00783633  0.34682583  1
  In  In59  1  0.30905928  0.78702179  0.19768676  1
  In  In60  1  0.67978985  0.18655058  0.17836364  1
  In  In61  1  0.68137069  0.83607862  0.17727914  1
  In  In62  1  0.45375423  0.62966066  0.18991807  1
  In  In63  1  0.03878337  0.34274923  0.34422518  1
  In  In64  1  0.81409811  -0.00909116  0.80890240  1
  In  In65  1  0.83166145  0.14430606  0.34163002  1
  In  In66  1  0.18235708  0.63217611  0.49968870  1
  In  In67  1  0.16469625  0.81958664  -0.00114215  1
  In  In68  1  0.17449862  0.00102663  0.83480278  1
  In  In69  1  0.01042975  0.48664066  0.82779433  1
  In  In70  1  0.47844258  0.36937659  0.18718020  1
  In  In71  1  0.46124226  0.20916711  -0.02440360  1
  Te  Te72  1  0.08908351  0.10124203  0.07571723  1
  Te  Te73  1  0.11511766  0.09568795  0.41940086  1
  Te  Te74  1  0.08341747  0.09402730  0.74071526  1
  Te  Te75  1  0.10341077  0.40468923  0.11006511  1
  Te  Te76  1  0.11653215  0.43933263  0.42946095  1
  Te  Te77  1  0.12063561  0.43615111  0.74045390  1
  Te  Te78  1  0.10133917  0.72564960  0.09942228  1
  Te  Te79  1  0.10263972  0.74614650  0.42423923  1
  Te  Te80  1  0.07407685  0.75384998  0.76547435  1
  Te  Te81  1  0.41870826  0.08748946  0.08812439  1
  Te  Te82  1  0.38349997  0.10949267  0.44683788  1
  Te  Te83  1  0.39518473  0.08566634  0.74103301  1
  Te  Te84  1  0.38040646  0.41319749  0.08049583  1
  Te  Te85  1  0.36763155  0.43918272  0.41549440  1
  Te  Te86  1  0.41205204  0.39813467  0.76627242  1
  Te  Te87  1  0.41208039  0.74523102  0.08333489  1
  Te  Te88  1  0.39587404  0.73175244  0.39879452  1
  Te  Te89  1  0.40686066  0.74264258  0.76059814  1
  Te  Te90  1  0.74934986  0.07721345  0.09347589  1
  Te  Te91  1  0.72711160  0.06207227  0.40011641  1
  Te  Te92  1  0.72741290  0.10195135  0.75100844  1
  Te  Te93  1  0.76519799  0.41185071  0.08997959  1
  Te  Te94  1  0.75930749  0.40608805  0.38175375  1
  Te  Te95  1  0.75486529  0.41772782  0.75075444  1
  Te  Te96  1  0.75821612  0.76078106  0.06879904  1
  Te  Te97  1  0.73895824  0.75630276  0.41691480  1
  Te  Te98  1  0.74553322  0.74310381  0.74300302  1
  Te  Te99  1  0.12997710  0.25089555  0.26426738  1
  Te  Te100  1  0.12307202  0.26959226  0.56349847  1
  Te  Te101  1  0.11052469  0.28287537  0.89493268  1
  Te  Te102  1  0.12638188  0.57449245  0.26725487  1
  Te  Te103  1  0.08568093  0.59279111  0.60425460  1
  Te  Te104  1  0.08824834  0.57980558  0.92762352  1
  Te  Te105  1  0.08346534  0.90428787  0.26698849  1
  Te  Te106  1  0.11092246  0.94084687  0.56960536  1
  Te  Te107  1  0.07794965  0.91004582  0.91123978  1
  Te  Te108  1  0.40862931  0.25709047  0.26758470  1
  Te  Te109  1  0.39854390  0.26440957  0.57477712  1
  Te  Te110  1  0.37321517  0.29033820  0.88601355  1
  Te  Te111  1  0.38090278  0.52813256  0.26947386  1
  Te  Te112  1  0.39777871  0.57097338  0.56304642  1
  Te  Te113  1  0.41361514  0.58515938  0.89793864  1
  Te  Te114  1  0.41772877  0.91063885  0.23108007  1
  Te  Te115  1  0.41073005  0.92919332  0.59315290  1
  Te  Te116  1  0.41410382  0.91570735  0.90307276  1
  Te  Te117  1  0.73236691  0.28184981  0.28683349  1
  Te  Te118  1  0.75217700  0.26179040  0.55723205  1
  Te  Te119  1  0.72538093  0.24991498  0.90499724  1
  Te  Te120  1  0.75660309  0.56596316  0.26684785  1
  Te  Te121  1  0.75294081  0.58082943  0.57568689  1
  Te  Te122  1  0.74966223  0.57426827  0.93053917  1
  Te  Te123  1  0.75034328  0.93126373  0.26672570  1
  Te  Te124  1  0.75990261  0.93969051  0.58196564  1
  Te  Te125  1  0.74272644  0.90577662  0.90550049  1
  Te  Te126  1  0.27361176  0.28580653  0.08111634  1
  Te  Te127  1  0.24498831  0.29279537  0.37005008  1
  Te  Te128  1  0.25258916  0.25482508  0.74306326  1
  Te  Te129  1  0.25572410  0.57084306  0.10196679  1
  Te  Te130  1  0.29331876  0.58136747  0.41281897  1
  Te  Te131  1  0.24584461  0.55153648  0.74608706  1
  Te  Te132  1  0.24871085  0.91234710  0.09050323  1
  Te  Te133  1  0.24795044  0.90556631  0.40068985  1
  Te  Te134  1  0.26210925  0.92495844  0.74515990  1
  Te  Te135  1  0.56100285  0.25278577  0.10352824  1
  Te  Te136  1  0.57812946  0.26029581  0.43314186  1
  Te  Te137  1  0.56414084  0.24764851  0.75762584  1
  Te  Te138  1  0.57633213  0.57303629  0.09567124  1
  Te  Te139  1  0.56088787  0.57913837  0.42248296  1
  Te  Te140  1  0.56170299  0.58707527  0.74640503  1
  Te  Te141  1  0.58225098  0.92320668  0.08437498  1
  Te  Te142  1  0.59205782  0.91679690  0.41243473  1
  Te  Te143  1  0.59168858  0.90501771  0.75091103  1
  Te  Te144  1  0.93164296  0.24610752  0.07296218  1
  Te  Te145  1  0.92841390  0.24467882  0.39877165  1
  Te  Te146  1  0.93724686  0.24714688  0.74212953  1
  Te  Te147  1  0.91306751  0.57587596  0.08306710  1
  Te  Te148  1  0.90735070  0.56066648  0.41426171  1
  Te  Te149  1  0.93006589  0.58914414  0.74787272  1
  Te  Te150  1  0.90037917  0.91610205  0.09359076  1
  Te  Te151  1  0.91609154  0.92281979  0.42521825  1
  Te  Te152  1  0.92379503  0.90366697  0.74787729  1
  Te  Te153  1  0.24992568  0.07766656  0.26533840  1
  Te  Te154  1  0.26386537  0.06902327  0.54050623  1
  Te  Te155  1  0.26308633  0.10487514  0.90517436  1
  Te  Te156  1  0.27991216  0.39978905  0.27720297  1
  Te  Te157  1  0.21530468  0.40623780  0.54787529  1
  Te  Te158  1  0.28752684  0.41799257  0.91450239  1
  Te  Te159  1  0.21909089  0.70264658  0.27434535  1
  Te  Te160  1  0.24527350  0.75128430  0.58720118  1
  Te  Te161  1  0.26234797  0.75810075  0.90215421  1
  Te  Te162  1  0.61566463  0.08688999  0.28458067  1
  Te  Te163  1  0.58794406  0.10852148  0.55598749  1
  Te  Te164  1  0.56024349  0.09960057  0.92273995  1
  Te  Te165  1  0.57161486  0.42282236  0.29019886  1
  Te  Te166  1  0.58727855  0.42290579  0.58947266  1
  Te  Te167  1  0.56956023  0.40745533  0.91640315  1
  Te  Te168  1  0.57326052  0.74261440  0.23168655  1
  Te  Te169  1  0.54983163  0.73614743  0.55805396  1
  Te  Te170  1  0.57624598  0.73751214  0.89518268  1
  Te  Te171  1  0.91743054  0.07143115  0.23731013  1
  Te  Te172  1  0.91130943  0.08718132  0.56751653  1
  Te  Te173  1  0.90364597  0.07868827  0.91129306  1
  Te  Te174  1  0.93654254  0.41418656  0.25250293  1
  Te  Te175  1  0.91522136  0.38926400  0.56789210  1
  Te  Te176  1  0.90791007  0.42647829  0.92496502  1
  Te  Te177  1  0.93305492  0.72843173  0.25120117  1
  Te  Te178  1  0.94328819  0.73640385  0.58977104  1
  Te  Te179  1  0.91311494  0.76997147  0.91837993  1
