# generated using pymatgen
data_In2Te3
_symmetry_space_group_name_H-M   'P 1'
_cell_length_a   18.75540207
_cell_length_b   18.76586390
_cell_length_c   18.76051232
_cell_angle_alpha   89.89315771
_cell_angle_beta   90.07209465
_cell_angle_gamma   90.06130675
_symmetry_Int_Tables_number   1
_chemical_formula_structural   In2Te3
_chemical_formula_sum   'In72 Te108'
_cell_volume   6602.95426195
_cell_formula_units_Z   36
loop_
 _symmetry_equiv_pos_site_id
 _symmetry_equiv_pos_as_xyz
  1  'x, y, z'
loop_
 _atom_site_type_symbol
 _atom_site_label
 _atom_site_symmetry_multiplicity
 _atom_site_fract_x
 _atom_site_fract_y
 _atom_site_fract_z
 _atom_site_occupancy
  In  In0  1  0.82644147  0.68854602  0.14484403  1
  In  In1  1  0.65276756  -0.01407422  0.71110598  1
  In  In2  1  0.66534687  0.49190746  0.15726943  1
  In  In3  1  0.33134083  0.17595659  0.15185106  1
  In  In4  1  -0.00955918  0.19429200  0.15906445  1
  In  In5  1  0.49596073  0.49993150  0.32283475  1
  In  In6  1  0.86427968  0.87912130  0.68196061  1
  In  In7  1  0.19405121  0.14445716  -0.01492718  1
  In  In8  1  0.66458809  0.50907773  0.83973655  1
  In  In9  1  0.33243364  0.16590334  0.51117170  1
  In  In10  1  0.14519441  0.32399900  0.49305780  1
  In  In11  1  0.34556506  0.02724420  0.67586892  1
  In  In12  1  0.32466484  0.83391206  0.14871477  1
  In  In13  1  0.67088346  0.80990219  0.50849246  1
  In  In14  1  0.82724730  0.31917453  0.48988779  1
  In  In15  1  0.02305621  0.64787185  0.29919177  1
  In  In16  1  0.17905552  0.49166718  0.67347185  1
  In  In17  1  0.30894508  0.67100035  0.32756594  1
  In  In18  1  0.16935657  0.32411388  0.82891626  1
  In  In19  1  0.51674879  0.84826454  -0.00776392  1
  In  In20  1  0.16784603  0.49763051  0.02934821  1
  In  In21  1  -0.00728942  0.17404081  0.51528482  1
  In  In22  1  0.18038966  -0.01089423  0.14963047  1
  In  In23  1  0.50056629  0.15315129  0.36487425  1
  In  In24  1  0.84845624  0.50639999  0.65227600  1
  In  In25  1  0.67943706  0.00334501  0.31242755  1
  In  In26  1  0.16194176  0.64768063  0.49316348  1
  In  In27  1  0.50469138  0.82657018  0.32162910  1
  In  In28  1  0.65069943  0.67712269  0.31663698  1
  In  In29  1  0.83760000  0.30044266  0.83524679  1
  In  In30  1  0.69617295  0.17573158  0.17344611  1
  In  In31  1  0.49481314  -0.00462808  0.51246727  1
  In  In32  1  -0.00351875  0.67920485  -0.00407838  1
  In  In33  1  0.83044640  0.50131738  0.02773161  1
  In  In34  1  0.87946885  0.49424569  0.29557578  1
  In  In35  1  -0.00016423  0.82807170  0.49746285  1
  In  In36  1  0.48232149  0.31845274  0.49045186  1
  In  In37  1  0.49715872  -0.01639373  0.14726201  1
  In  In38  1  0.50303779  0.66007528  0.53424177  1
  In  In39  1  0.02388396  0.70380760  0.69404561  1
  In  In40  1  0.83577617  0.00744761  0.15235672  1
  In  In41  1  0.33390470  0.30774867  0.01722631  1
  In  In42  1  0.00370013  0.48323111  0.48716561  1
  In  In43  1  0.15577295  0.83961586  0.68462052  1
  In  In44  1  0.01097772  0.82344259  0.15059158  1
  In  In45  1  0.14789238  0.16348070  0.31947614  1
  In  In46  1  0.30912557  0.35907097  0.30258817  1
  In  In47  1  -0.00098317  0.00800699  0.31897843  1
  In  In48  1  0.50918331  0.34200532  0.84692344  1
  In  In49  1  0.68001996  0.14842743  0.84637828  1
  In  In50  1  0.84623270  0.01204771  0.49720669  1
  In  In51  1  0.66757819  0.32143349  0.66628758  1
  In  In52  1  0.01955560  0.50218606  0.83305155  1
  In  In53  1  0.50253126  0.68470954  0.16526897  1
  In  In54  1  0.31601662  0.31204440  0.67447858  1
  In  In55  1  0.50501361  0.51720617  0.66189734  1
  In  In56  1  0.49234097  0.51341743  -0.01489602  1
  In  In57  1  0.32173947  0.82900178  0.85884258  1
  In  In58  1  -0.00720947  0.01097776  -0.02103844  1
  In  In59  1  0.66290689  0.14645671  0.51098024  1
  In  In60  1  0.32931093  0.84655729  0.49584364  1
  In  In61  1  0.49318689  0.33351860  0.15511156  1
  In  In62  1  0.82573130  0.69668696  0.84241738  1
  In  In63  1  0.81079967  0.67513225  0.49561454  1
  In  In64  1  0.35072932  0.68898138  0.68548101  1
  In  In65  1  -0.01377191  0.33102401  0.00229719  1
  In  In66  1  0.33251247  0.51991923  0.83648927  1
  In  In67  1  0.66763865  0.67868674  0.70440616  1
  In  In68  1  -0.01779226  0.14333504  0.83490719  1
  In  In69  1  0.18343018  -0.03289563  0.51040711  1
  In  In70  1  0.51058742  0.14493082  -0.01420733  1
  In  In71  1  0.69575514  0.47352689  0.47346662  1
  Te  Te72  1  0.07779741  0.08686484  0.08754336  1
  Te  Te73  1  0.08957579  0.07034081  0.42693420  1
  Te  Te74  1  0.07296921  0.03754081  0.77863066  1
  Te  Te75  1  0.05012143  0.42969029  0.09786747  1
  Te  Te76  1  0.09391703  0.41895773  0.39105790  1
  Te  Te77  1  0.07357271  0.39910410  0.73534738  1
  Te  Te78  1  0.11061746  0.75322190  0.06281130  1
  Te  Te79  1  0.08568409  0.74541919  0.40297829  1
  Te  Te80  1  0.10631855  0.76246054  0.80798292  1
  Te  Te81  1  0.40093637  0.07144194  0.06534968  1
  Te  Te82  1  0.39261312  0.05884992  0.41850554  1
  Te  Te83  1  0.39922165  0.09077897  0.79841551  1
  Te  Te84  1  0.40356435  0.42959991  0.07984396  1
  Te  Te85  1  0.40061618  0.42153369  0.41263603  1
  Te  Te86  1  0.41372008  0.41891697  0.75014980  1
  Te  Te87  1  0.41434217  0.74796770  0.05947238  1
  Te  Te88  1  0.42571278  0.74093541  0.42176807  1
  Te  Te89  1  0.43560185  0.77851888  0.77088750  1
  Te  Te90  1  0.73798571  0.08168565  0.06717619  1
  Te  Te91  1  0.75927246  0.09702870  0.40323836  1
  Te  Te92  1  0.76943387  0.06077797  0.76381693  1
  Te  Te93  1  0.76737638  0.39445269  0.10872587  1
  Te  Te94  1  0.77286874  0.39763504  0.35985432  1
  Te  Te95  1  0.75228740  0.42300856  0.74640267  1
  Te  Te96  1  0.74164557  0.75370960  0.04250498  1
  Te  Te97  1  0.75428657  0.76787888  0.38838762  1
  Te  Te98  1  0.75420505  0.79899067  0.75212719  1
  Te  Te99  1  0.07787824  0.27660288  0.25119204  1
  Te  Te100  1  0.09776068  0.23621243  0.60129455  1
  Te  Te101  1  0.08163575  0.23992382  0.92478755  1
  Te  Te102  1  0.13283859  0.57199293  0.23102062  1
  Te  Te103  1  0.06873531  0.58130476  0.59684346  1
  Te  Te104  1  0.10354245  0.58760976  0.92291769  1
  Te  Te105  1  0.09170570  0.91088872  0.24765400  1
  Te  Te106  1  0.06294821  0.92520381  0.59586287  1
  Te  Te107  1  0.08413657  0.93116931  0.89091537  1
  Te  Te108  1  0.41792382  0.24926428  0.26219460  1
  Te  Te109  1  0.43086970  0.23411530  0.60668514  1
  Te  Te110  1  0.41048486  0.23968989  0.90537406  1
  Te  Te111  1  0.40880506  0.58944737  0.23802252  1
  Te  Te112  1  0.38710249  0.57499061  0.58367671  1
  Te  Te113  1  0.40089323  0.61477032  0.92624944  1
  Te  Te114  1  0.40627747  0.91795156  0.25209631  1
  Te  Te115  1  0.41389678  0.90760295  0.60685360  1
  Te  Te116  1  0.40654452  0.93055329  0.93096766  1
  Te  Te117  1  0.75054836  0.26652898  0.27332872  1
  Te  Te118  1  0.76282070  0.22669517  0.59587443  1
  Te  Te119  1  0.73356636  0.26011254  0.92914979  1
  Te  Te120  1  0.75427270  0.58529470  0.24988630  1
  Te  Te121  1  0.72529488  0.58499452  0.59133127  1
  Te  Te122  1  0.75296539  0.59456902  0.93059414  1
  Te  Te123  1  0.75884028  0.90830597  0.23410844  1
  Te  Te124  1  0.74857664  0.92112200  0.57960298  1
  Te  Te125  1  0.71829442  0.87670185  0.94887561  1
  Te  Te126  1  0.21581216  0.25793514  0.09644947  1
  Te  Te127  1  0.25794002  0.24718295  0.40461513  1
  Te  Te128  1  0.23570037  0.21502110  0.75347126  1
  Te  Te129  1  0.24391844  0.58980123  0.11960017  1
  Te  Te130  1  0.24631280  0.56293363  0.40749622  1
  Te  Te131  1  0.23823968  0.60681071  0.75341269  1
  Te  Te132  1  0.25271322  0.91501998  0.04449053  1
  Te  Te133  1  0.24063381  0.90114872  0.39148351  1
  Te  Te134  1  0.25529038  0.92900369  0.75696196  1
  Te  Te135  1  0.58497428  0.24102392  0.07993086  1
  Te  Te136  1  0.60090464  0.25460598  0.41851335  1
  Te  Te137  1  0.58213771  0.24026237  0.75990723  1
  Te  Te138  1  0.58780413  0.59487169  0.07506872  1
  Te  Te139  1  0.58429908  0.58296661  0.42097419  1
  Te  Te140  1  0.55722820  0.59993155  0.77875013  1
  Te  Te141  1  0.61608130  0.94193914  0.06435482  1
  Te  Te142  1  0.58892397  0.91911923  0.41909982  1
  Te  Te143  1  0.57051151  0.88118464  0.77542786  1
  Te  Te144  1  0.88335825  0.24914294  0.07094006  1
  Te  Te145  1  0.92940427  0.25212913  0.40746048  1
  Te  Te146  1  0.92953206  0.24304045  0.73762622  1
  Te  Te147  1  0.93317231  0.58709798  0.10091218  1
  Te  Te148  1  0.91381237  0.59027077  0.41868966  1
  Te  Te149  1  0.91726127  0.59578677  0.75737625  1
  Te  Te150  1  0.91636259  0.90836051  0.06613517  1
  Te  Te151  1  0.91292660  0.91182615  0.40292314  1
  Te  Te152  1  0.95886015  0.92510987  0.78895767  1
  Te  Te153  1  0.25487039  0.08191560  0.24703294  1
  Te  Te154  1  0.23058556  0.08705809  0.59355434  1
  Te  Te155  1  0.26898501  0.07104995  0.88065480  1
  Te  Te156  1  0.23777727  0.45239976  0.21026129  1
  Te  Te157  1  0.25250972  0.40618894  0.57202353  1
  Te  Te158  1  0.25286963  0.41530613  0.91940193  1
  Te  Te159  1  0.23044038  0.75230360  0.23185479  1
  Te  Te160  1  0.23999327  0.74977593  0.58326703  1
  Te  Te161  1  0.21213503  0.75032105  0.92388041  1
  Te  Te162  1  0.56789289  0.08755602  0.24384343  1
  Te  Te163  1  0.57145241  0.07949454  0.61315080  1
  Te  Te164  1  0.58454927  0.04752241  0.90172609  1
  Te  Te165  1  0.58779865  0.40094632  0.25488850  1
  Te  Te166  1  0.58063851  0.41326895  0.57601427  1
  Te  Te167  1  0.60330309  0.41360170  0.94305627  1
  Te  Te168  1  0.60654969  0.78463761  0.21559336  1
  Te  Te169  1  0.57273151  0.76679050  0.61638180  1
  Te  Te170  1  0.61787083  0.77214329  0.90707723  1
  Te  Te171  1  0.90511719  0.10481789  0.25056801  1
  Te  Te172  1  0.91760134  0.08189384  0.60528432  1
  Te  Te173  1  0.87464010  0.07866661  0.91682839  1
  Te  Te174  1  0.95477294  0.39338872  0.21851272  1
  Te  Te175  1  0.92455962  0.39497875  0.58444024  1
  Te  Te176  1  0.90525503  0.43015053  0.90462637  1
  Te  Te177  1  0.91991740  0.75065119  0.25053087  1
  Te  Te178  1  0.90217644  0.74798036  0.59626732  1
  Te  Te179  1  0.92028119  0.78172970  0.91841647  1
