# generated using pymatgen
data_In2Te3
_symmetry_space_group_name_H-M   'P 1'
_cell_length_a   18.92541387
_cell_length_b   18.92941487
_cell_length_c   18.92961074
_cell_angle_alpha   89.89841704
_cell_angle_beta   90.03116456
_cell_angle_gamma   89.93270061
_symmetry_Int_Tables_number   1
_chemical_formula_structural   In2Te3
_chemical_formula_sum   'In72 Te108'
_cell_volume   6781.46011360
_cell_formula_units_Z   36
loop_
 _symmetry_equiv_pos_site_id
 _symmetry_equiv_pos_as_xyz
  1  'x, y, z'
loop_
 _atom_site_type_symbol
 _atom_site_label
 _atom_site_symmetry_multiplicity
 _atom_site_fract_x
 _atom_site_fract_y
 _atom_site_fract_z
 _atom_site_occupancy
  In  In0  1  0.34409220  0.64334118  0.33623643  1
  In  In1  1  0.51769115  0.83203737  0.63061347  1
  In  In2  1  -0.02131157  0.85140951  0.19061928  1
  In  In3  1  0.66903753  0.82914521  0.17382395  1
  In  In4  1  0.17933935  0.15397537  0.35612189  1
  In  In5  1  0.34073358  0.82550251  0.50796139  1
  In  In6  1  0.33928689  0.66925612  0.01114597  1
  In  In7  1  0.68645051  0.67569006  0.33068094  1
  In  In8  1  0.66839717  -0.01276495  0.64518891  1
  In  In9  1  0.85800956  0.35134762  0.51480137  1
  In  In10  1  0.51276208  0.32037188  0.48433149  1
  In  In11  1  0.53198040  0.71154199  0.49492463  1
  In  In12  1  0.67513947  0.30555639  -0.00389259  1
  In  In13  1  -0.01432754  0.68499638  0.04279227  1
  In  In14  1  0.79476525  0.14727421  0.32158057  1
  In  In15  1  -0.03018052  0.32740823  0.00935516  1
  In  In16  1  0.15425772  0.51214131  0.33598973  1
  In  In17  1  0.34505365  -0.01787613  0.65645196  1
  In  In18  1  0.80474033  0.01495671  0.16324830  1
  In  In19  1  -0.02996559  0.18019357  0.82765000  1
  In  In20  1  0.51710858  0.48408952  0.31035561  1
  In  In21  1  0.80583892  0.50891646  -0.05607227  1
  In  In22  1  0.37546820  0.04880574  0.03794753  1
  In  In23  1  0.51203593  0.64594334  0.81492502  1
  In  In24  1  0.15205357  0.82476187  -0.01138050  1
  In  In25  1  0.31586435  0.65580596  0.66557661  1
  In  In26  1  0.32750229  0.49491453  0.51312038  1
  In  In27  1  0.34422441  0.49360490  0.14524378  1
  In  In28  1  0.34292197  0.83310065  0.83248344  1
  In  In29  1  0.81286595  0.83928911  0.00209092  1
  In  In30  1  0.51363575  0.50803521  -0.01723117  1
  In  In31  1  0.34438616  0.32866277  0.68436709  1
  In  In32  1  0.33690673  0.85679261  0.18311118  1
  In  In33  1  0.18455096  0.35718956  0.17375298  1
  In  In34  1  0.00761667  0.51955532  0.17658021  1
  In  In35  1  -0.00743617  0.83510882  0.81257131  1
  In  In36  1  0.51303941  0.85972824  0.01228618  1
  In  In37  1  0.16504397  0.16727924  0.01094755  1
  In  In38  1  0.80184827  0.33713627  0.74261893  1
  In  In39  1  0.52540518  0.16958323  0.33110055  1
  In  In40  1  0.84016901  0.66397745  0.18078917  1
  In  In41  1  -0.02408294  0.85392015  0.48841065  1
  In  In42  1  0.86140741  0.49793759  0.37243156  1
  In  In43  1  0.50772415  0.14737069  0.65787470  1
  In  In44  1  0.66313487  0.16926965  0.83237266  1
  In  In45  1  0.81792051  0.01030842  0.84972048  1
  In  In46  1  0.15152213  0.35275690  0.81715821  1
  In  In47  1  0.66529171  0.49950485  0.14625440  1
  In  In48  1  0.15587077  -0.00027380  0.50660754  1
  In  In49  1  -0.01323019  0.66243895  0.65646347  1
  In  In50  1  0.18071913  0.50838097  -0.00749267  1
  In  In51  1  0.82275457  0.31859186  0.18813015  1
  In  In52  1  0.16661799  0.81797656  0.35803812  1
  In  In53  1  0.51231115  0.03278837  0.84216659  1
  In  In54  1  -0.01840314  0.15292287  0.51198786  1
  In  In55  1  0.65714435  -0.02633724  0.36919824  1
  In  In56  1  0.15846924  0.17672523  0.66215112  1
  In  In57  1  0.00013097  0.17551710  0.17542260  1
  In  In58  1  -0.02993467  0.01270656  0.66832276  1
  In  In59  1  0.35288491  0.25437169  0.36631485  1
  In  In60  1  0.01139418  0.33484768  0.36854974  1
  In  In61  1  0.15202797  0.62632425  0.81289159  1
  In  In62  1  0.35518449  0.01885091  0.32152588  1
  In  In63  1  0.16976594  -0.01388599  0.17048611  1
  In  In64  1  0.49860529  0.50036509  0.64777693  1
  In  In65  1  0.17624415  -0.00401489  0.84249501  1
  In  In66  1  0.00440519  0.50719899  0.80782711  1
  In  In67  1  0.83200631  0.66836441  0.49999313  1
  In  In68  1  0.66008988  0.80702537  0.80868835  1
  In  In69  1  0.35276937  0.32180605  -0.00364817  1
  In  In70  1  0.50740381  0.32673031  0.84665801  1
  In  In71  1  0.67762416  0.49683771  0.50217985  1
  Te  Te72  1  0.07523125  0.07371057  0.08873617  1
  Te  Te73  1  0.06423618  0.07319032  0.40987777  1
  Te  Te74  1  0.07941517  0.08340021  0.75821564  1
  Te  Te75  1  0.08322518  0.41287440  0.07607125  1
  Te  Te76  1  0.07577891  0.44358978  0.44286604  1
  Te  Te77  1  0.05390395  0.40043908  0.71868779  1
  Te  Te78  1  0.08747682  0.76969272  0.11436791  1
  Te  Te79  1  0.07422785  0.75064095  0.44886413  1
  Te  Te80  1  0.09201771  0.74474641  0.74184485  1
  Te  Te81  1  0.45243918  0.14064612  0.12092824  1
  Te  Te82  1  0.40738774  0.11993753  0.41928958  1
  Te  Te83  1  0.40226941  0.08649759  0.75121742  1
  Te  Te84  1  0.44784750  0.40699009  0.07794756  1
  Te  Te85  1  0.42310119  0.42507285  0.41738207  1
  Te  Te86  1  0.42774023  0.42746391  0.76175998  1
  Te  Te87  1  0.42167873  0.76563027  0.09098168  1
  Te  Te88  1  0.42176888  0.75830135  0.39880201  1
  Te  Te89  1  0.42400451  0.75170983  0.73145491  1
  Te  Te90  1  0.71087382  0.07190445  0.06523588  1
  Te  Te91  1  0.75967999  0.05873133  0.43615429  1
  Te  Te92  1  0.74451990  0.08289257  0.73763124  1
  Te  Te93  1  0.76444614  0.40837629  0.07014372  1
  Te  Te94  1  0.75175215  0.40201195  0.40953540  1
  Te  Te95  1  0.74902375  0.47493818  0.72575031  1
  Te  Te96  1  0.74412633  0.73096120  0.08376512  1
  Te  Te97  1  0.73894607  0.76875969  0.43669877  1
  Te  Te98  1  0.76998490  0.70972380  0.78968522  1
  Te  Te99  1  0.09946141  0.26032704  0.25638205  1
  Te  Te100  1  0.08435889  0.24968822  0.55641549  1
  Te  Te101  1  0.07820686  0.25445741  0.92001036  1
  Te  Te102  1  0.08201364  0.61395473  0.25709942  1
  Te  Te103  1  0.04978219  0.55153678  0.58418317  1
  Te  Te104  1  0.07023072  0.59823361  0.93937304  1
  Te  Te105  1  0.08455326  0.91989533  0.27609256  1
  Te  Te106  1  0.06772872  0.92081134  0.59755175  1
  Te  Te107  1  0.06390314  0.92466324  0.91597417  1
  Te  Te108  1  0.43516344  0.25650573  0.24500225  1
  Te  Te109  1  0.41968317  0.24742817  0.58257521  1
  Te  Te110  1  0.42551514  0.22378112  0.91343323  1
  Te  Te111  1  0.43433055  0.58295924  0.22938837  1
  Te  Te112  1  0.42750159  0.60822159  0.56653275  1
  Te  Te113  1  0.40268479  0.58197579  0.90612848  1
  Te  Te114  1  0.44840414  0.93538007  0.24164604  1
  Te  Te115  1  0.44161633  0.93926780  0.54834675  1
  Te  Te116  1  0.41479246  0.93394789  0.92046797  1
  Te  Te117  1  0.71363182  0.23024638  0.22970328  1
  Te  Te118  1  0.77714417  0.26904674  0.60938574  1
  Te  Te119  1  0.76638620  0.26751028  0.87989057  1
  Te  Te120  1  0.76279615  0.55948685  0.26230563  1
  Te  Te121  1  0.78611752  0.55238259  0.59659661  1
  Te  Te122  1  0.72666142  0.62578450  0.90841238  1
  Te  Te123  1  0.76069278  0.90964299  0.26501462  1
  Te  Te124  1  0.69961378  0.86380189  0.56658964  1
  Te  Te125  1  0.71891491  0.90906529  0.90613362  1
  Te  Te126  1  0.25950024  0.25175209  0.09503864  1
  Te  Te127  1  0.22596162  0.26664111  0.43894946  1
  Te  Te128  1  0.24611094  0.24440965  0.76622841  1
  Te  Te129  1  0.23919409  0.59645153  0.10054086  1
  Te  Te130  1  0.24209636  0.59438917  0.43631484  1
  Te  Te131  1  0.23828215  0.54452709  0.72573538  1
  Te  Te132  1  0.25333942  0.91236149  0.06650535  1
  Te  Te133  1  0.26241808  0.93092534  0.41456168  1
  Te  Te134  1  0.24412012  0.90534677  0.74117982  1
  Te  Te135  1  0.55922865  0.22246942  0.04212137  1
  Te  Te136  1  0.61672368  0.23536673  0.42722512  1
  Te  Te137  1  0.58254204  0.25468489  0.73612158  1
  Te  Te138  1  0.58317457  0.59707906  0.07587123  1
  Te  Te139  1  0.58565069  0.58336627  0.41608586  1
  Te  Te140  1  0.60547300  0.56062639  0.73643347  1
  Te  Te141  1  0.60944852  0.94009185  0.09065814  1
  Te  Te142  1  0.57169771  0.88277138  0.45073754  1
  Te  Te143  1  0.56287401  0.92387533  0.74917839  1
  Te  Te144  1  0.88865666  0.22541378  0.08382785  1
  Te  Te145  1  0.89889149  0.24059131  0.40554819  1
  Te  Te146  1  0.91123802  0.23601003  0.70456728  1
  Te  Te147  1  0.90082274  0.56322741  0.07333565  1
  Te  Te148  1  0.93517457  0.62024136  0.40381764  1
  Te  Te149  1  0.90727908  0.61514860  0.77450271  1
  Te  Te150  1  0.90478290  0.92845685  0.08349609  1
  Te  Te151  1  0.88752691  0.88108473  0.37372725  1
  Te  Te152  1  0.88238044  0.91539839  0.74697005  1
  Te  Te153  1  0.25366018  0.09344152  0.23671595  1
  Te  Te154  1  0.25364315  0.08328642  0.58619707  1
  Te  Te155  1  0.26145457  0.08198164  0.93238057  1
  Te  Te156  1  0.27011410  0.43751688  0.26696664  1
  Te  Te157  1  0.24910457  0.41495405  0.60820563  1
  Te  Te158  1  0.25880367  0.41121444  0.91080183  1
  Te  Te159  1  0.26163336  0.75014210  0.25993190  1
  Te  Te160  1  0.24063115  0.75320901  0.58515179  1
  Te  Te161  1  0.24481485  0.73791393  0.90258853  1
  Te  Te162  1  0.57807802  0.04595762  0.26592706  1
  Te  Te163  1  0.60334229  0.08989202  0.56256373  1
  Te  Te164  1  0.60400132  0.09039931  0.95015310  1
  Te  Te165  1  0.60465356  0.39654388  0.23373776  1
  Te  Te166  1  0.59417626  0.40032536  0.58455463  1
  Te  Te167  1  0.61004005  0.41827438  0.90921600  1
  Te  Te168  1  0.58204381  0.73909223  0.25064400  1
  Te  Te169  1  0.62466435  0.72697788  0.61177314  1
  Te  Te170  1  0.56104845  0.75202347  0.91094857  1
  Te  Te171  1  0.91339532  0.07917248  0.25334272  1
  Te  Te172  1  0.88229692  0.04994932  0.55388028  1
  Te  Te173  1  0.91274570  0.09064979  0.92695707  1
  Te  Te174  1  0.93390666  0.40879887  0.25057698  1
  Te  Te175  1  0.92210495  0.46376022  0.58830947  1
  Te  Te176  1  0.91746126  0.41474940  0.89713503  1
  Te  Te177  1  0.90402666  0.75485302  0.28114231  1
  Te  Te178  1  0.89970594  0.76887323  0.59165330  1
  Te  Te179  1  0.92209217  0.76205747  0.92963522  1
