# generated using pymatgen
data_In2Te3
_symmetry_space_group_name_H-M   'P 1'
_cell_length_a   18.78357963
_cell_length_b   18.77588017
_cell_length_c   18.77847696
_cell_angle_alpha   90.00788137
_cell_angle_beta   89.92966072
_cell_angle_gamma   89.95852715
_symmetry_Int_Tables_number   1
_chemical_formula_structural   In2Te3
_chemical_formula_sum   'In72 Te108'
_cell_volume   6622.75342219
_cell_formula_units_Z   36
loop_
 _symmetry_equiv_pos_site_id
 _symmetry_equiv_pos_as_xyz
  1  'x, y, z'
loop_
 _atom_site_type_symbol
 _atom_site_label
 _atom_site_symmetry_multiplicity
 _atom_site_fract_x
 _atom_site_fract_y
 _atom_site_fract_z
 _atom_site_occupancy
  In  In0  1  -0.00447805  0.00340107  -0.00800682  1
  In  In1  1  0.65817947  0.83409590  0.16765135  1
  In  In2  1  0.82666141  0.14280510  0.67287961  1
  In  In3  1  0.18707179  0.49641385  0.66758591  1
  In  In4  1  0.81655739  0.50848586  0.66967043  1
  In  In5  1  0.16717095  0.49984653  0.00266496  1
  In  In6  1  0.66334301  0.68579915  0.36435532  1
  In  In7  1  0.00704173  -0.01652833  0.66797231  1
  In  In8  1  0.80363915  0.68957919  0.80698730  1
  In  In9  1  -0.00546931  0.66880666  0.34066168  1
  In  In10  1  0.35349788  0.35909633  0.36930225  1
  In  In11  1  0.35097892  0.52653936  0.84145520  1
  In  In12  1  0.79955093  -0.04023572  0.83889058  1
  In  In13  1  -0.00185700  0.51320506  0.48854622  1
  In  In14  1  0.49100091  0.01076834  0.79530950  1
  In  In15  1  0.51628895  0.83286025  0.01000754  1
  In  In16  1  0.49104826  0.35297586  0.17877057  1
  In  In17  1  0.17119349  0.51757484  0.32508878  1
  In  In18  1  0.83427693  0.67283196  0.16646492  1
  In  In19  1  0.51137258  0.68420466  0.82749415  1
  In  In20  1  0.34499975  -0.00239523  0.35549759  1
  In  In21  1  0.33683768  0.14838833  0.17008441  1
  In  In22  1  -0.02245901  0.33420378  0.00287728  1
  In  In23  1  0.50451155  0.82573628  0.35172093  1
  In  In24  1  0.16568642  0.36271582  0.52205180  1
  In  In25  1  0.33399633  0.32368069  0.66662731  1
  In  In26  1  0.67456155  0.14780916  0.81929981  1
  In  In27  1  0.16939511  0.66734071  0.16941340  1
  In  In28  1  0.66778921  0.35350455  -0.00549020  1
  In  In29  1  0.35398230  0.83118146  0.15057555  1
  In  In30  1  0.32686447  0.51361863  0.18003536  1
  In  In31  1  0.64537486  0.65826427  0.01225318  1
  In  In32  1  -0.01506131  -0.01323572  0.34153425  1
  In  In33  1  0.18728263  0.16867005  0.65796861  1
  In  In34  1  0.49306880  0.52189493  0.64833897  1
  In  In35  1  0.18540042  0.16974783  0.31916866  1
  In  In36  1  0.62899561  0.34989209  0.33247760  1
  In  In37  1  0.82613487  0.35045408  0.16232523  1
  In  In38  1  -0.00603404  0.66805436  0.67930967  1
  In  In39  1  -0.00040008  0.17739053  0.14420311  1
  In  In40  1  0.82393889  -0.00309088  0.15791770  1
  In  In41  1  0.83683849  0.50625225  0.32539231  1
  In  In42  1  -0.01624403  0.66293985  0.00152424  1
  In  In43  1  0.66182387  0.51797756  0.51089911  1
  In  In44  1  0.34334117  0.66574450  0.36239764  1
  In  In45  1  0.35525035  0.33373548  -0.00845086  1
  In  In46  1  0.18595419  0.01337300  0.50023869  1
  In  In47  1  0.66288384  0.00547719  0.34958057  1
  In  In48  1  0.16337764  0.32181731  0.14849021  1
  In  In49  1  -0.01991499  0.83076587  0.49910205  1
  In  In50  1  0.33424171  0.82007056  0.82597347  1
  In  In51  1  0.48649814  0.14801019  0.36043213  1
  In  In52  1  0.16367854  0.84585882  0.35029693  1
  In  In53  1  0.01438980  0.35321270  0.66887553  1
  In  In54  1  0.17654461  0.67757853  0.84058969  1
  In  In55  1  0.67208652  0.15547828  0.16237352  1
  In  In56  1  0.32563451  -0.00655285  -0.00191742  1
  In  In57  1  0.34625036  0.14973121  0.49067245  1
  In  In58  1  0.00076489  0.17197234  0.85635365  1
  In  In59  1  0.52553759  0.32443594  0.83293730  1
  In  In60  1  -0.00814915  0.80887569  0.16835022  1
  In  In61  1  0.50410057  0.16000826  -0.01511913  1
  In  In62  1  0.83458163  0.34273473  0.83782642  1
  In  In63  1  0.81219821  0.30462164  0.50731738  1
  In  In64  1  0.48960638  0.33995740  0.49492374  1
  In  In65  1  0.80886971  0.15308073  0.35403008  1
  In  In66  1  0.19000409  -0.02023050  0.81447851  1
  In  In67  1  0.67159244  0.50671692  0.83061735  1
  In  In68  1  -0.03555604  0.15902856  0.50202912  1
  In  In69  1  0.52591744  0.83433134  0.63603180  1
  In  In70  1  0.00497191  0.83484222  0.82717124  1
  In  In71  1  0.15137208  0.14250717  -0.03066824  1
  Te  Te72  1  0.09491697  0.07123849  0.09106274  1
  Te  Te73  1  0.08276238  0.08578249  0.41141549  1
  Te  Te74  1  0.08332670  0.08599363  0.75150619  1
  Te  Te75  1  0.06818524  0.42397641  0.09118190  1
  Te  Te76  1  0.08324081  0.41715338  0.40550201  1
  Te  Te77  1  0.09098681  0.43393657  0.76314297  1
  Te  Te78  1  0.09112230  0.75110915  0.06805580  1
  Te  Te79  1  0.09085152  0.74066984  0.43294863  1
  Te  Te80  1  0.10173787  0.76141826  0.73487368  1
  Te  Te81  1  0.43090828  0.06693798  0.08357967  1
  Te  Te82  1  0.45380268  0.03502284  0.46556847  1
  Te  Te83  1  0.40782538  0.09402168  0.70779337  1
  Te  Te84  1  0.41851351  0.44130519  0.07729496  1
  Te  Te85  1  0.45355507  0.46022085  0.41179965  1
  Te  Te86  1  0.42612496  0.42125109  0.75100393  1
  Te  Te87  1  0.43616133  0.72937758  0.08044625  1
  Te  Te88  1  0.42044256  0.75803103  0.45946002  1
  Te  Te89  1  0.42357373  0.75083615  0.72236908  1
  Te  Te90  1  0.73943017  0.07128767  0.06237122  1
  Te  Te91  1  0.74122615  0.07118943  0.46541386  1
  Te  Te92  1  0.72819078  0.03785712  0.72481609  1
  Te  Te93  1  0.73856682  0.44730605  0.08755427  1
  Te  Te94  1  0.74428521  0.41454621  0.41999429  1
  Te  Te95  1  0.73378700  0.40074151  0.73892505  1
  Te  Te96  1  0.75142348  0.75869646  0.07046585  1
  Te  Te97  1  0.72981139  0.79417231  0.44443071  1
  Te  Te98  1  0.71698940  0.78096416  0.72241070  1
  Te  Te99  1  0.07508682  0.25341773  0.25371638  1
  Te  Te100  1  0.07488475  0.23974809  0.57211148  1
  Te  Te101  1  0.09378128  0.27406157  0.91912706  1
  Te  Te102  1  0.06304514  0.58111246  0.23680865  1
  Te  Te103  1  0.08655092  0.58462356  0.58826090  1
  Te  Te104  1  0.07882515  0.58277945  0.90957627  1
  Te  Te105  1  0.07627451  0.91273645  0.24405082  1
  Te  Te106  1  0.09579747  0.90988210  0.57011404  1
  Te  Te107  1  0.09712865  0.91514487  0.91815666  1
  Te  Te108  1  0.40833360  0.24756113  0.26424893  1
  Te  Te109  1  0.43073368  0.23322057  0.59039187  1
  Te  Te110  1  0.41283866  0.23591931  0.88881363  1
  Te  Te111  1  0.42085899  0.59745725  0.25548593  1
  Te  Te112  1  0.41992205  0.62829381  0.57207762  1
  Te  Te113  1  0.43142319  0.61254292  0.93126589  1
  Te  Te114  1  0.42871482  0.91723979  0.25542946  1
  Te  Te115  1  0.43414070  0.94410991  0.59147897  1
  Te  Te116  1  0.42522727  0.91529241  0.90736055  1
  Te  Te117  1  0.73553023  0.25846297  0.25749284  1
  Te  Te118  1  0.72400011  0.23257236  0.60388408  1
  Te  Te119  1  0.74416405  0.24715121  0.91593804  1
  Te  Te120  1  0.73746283  0.59896803  0.25820172  1
  Te  Te121  1  0.75008639  0.61271310  0.58617520  1
  Te  Te122  1  0.75317405  0.59633560  0.92039070  1
  Te  Te123  1  0.74977748  0.91379881  0.26137256  1
  Te  Te124  1  0.71726128  0.86130204  0.58740117  1
  Te  Te125  1  0.73008761  0.87562527  0.93828453  1
  Te  Te126  1  0.25944515  0.23347157  0.06798143  1
  Te  Te127  1  0.24709729  0.25363894  0.43284130  1
  Te  Te128  1  0.23022832  0.26896117  0.75604987  1
  Te  Te129  1  0.26215753  0.59826495  0.06959617  1
  Te  Te130  1  0.24370933  0.57911957  0.43950611  1
  Te  Te131  1  0.26809163  0.60412326  0.73998529  1
  Te  Te132  1  0.24513230  0.90532005  0.08402845  1
  Te  Te133  1  0.27156410  0.89801722  0.44523273  1
  Te  Te134  1  0.25422379  0.88782335  0.71944945  1
  Te  Te135  1  0.57225042  0.25898579  0.08414969  1
  Te  Te136  1  0.59478566  0.23460733  0.42993837  1
  Te  Te137  1  0.58230481  0.22898608  0.73643846  1
  Te  Te138  1  0.60400258  0.54843717  0.10069245  1
  Te  Te139  1  0.56502337  0.58578983  0.41921955  1
  Te  Te140  1  0.59574075  0.59667324  0.73416372  1
  Te  Te141  1  0.58791487  0.93696734  0.08745236  1
  Te  Te142  1  0.60449406  0.89827147  0.44007932  1
  Te  Te143  1  0.59189335  0.90963225  0.74960010  1
  Te  Te144  1  0.88119171  0.23704545  0.07149568  1
  Te  Te145  1  0.91335372  0.25986035  0.40070531  1
  Te  Te146  1  0.92023426  0.24595117  0.74093519  1
  Te  Te147  1  0.91385212  0.57159635  0.09375464  1
  Te  Te148  1  0.88939701  0.60396588  0.43218224  1
  Te  Te149  1  0.90890768  0.57677777  0.76742829  1
  Te  Te150  1  0.91432605  0.90476610  0.07539340  1
  Te  Te151  1  0.88443069  0.91630496  0.42180165  1
  Te  Te152  1  0.90059795  0.89836384  0.73633584  1
  Te  Te153  1  0.24808703  0.05103728  0.24776033  1
  Te  Te154  1  0.28495848  0.05907580  0.61454404  1
  Te  Te155  1  0.26906805  0.08692532  0.88979631  1
  Te  Te156  1  0.24992307  0.39795354  0.25131119  1
  Te  Te157  1  0.29041395  0.43438727  0.56973487  1
  Te  Te158  1  0.26076545  0.42185342  0.90954819  1
  Te  Te159  1  0.25422515  0.75416690  0.26270553  1
  Te  Te160  1  0.28835154  0.70074201  0.53587874  1
  Te  Te161  1  0.25880874  0.75509661  0.93497363  1
  Te  Te162  1  0.57235377  0.07983849  0.25093193  1
  Te  Te163  1  0.61974246  0.12134734  0.54089180  1
  Te  Te164  1  0.58848696  0.05988285  0.90951752  1
  Te  Te165  1  0.58835807  0.45449214  0.23338590  1
  Te  Te166  1  0.58478530  0.41214018  0.59150939  1
  Te  Te167  1  0.56671536  0.44180535  0.92096442  1
  Te  Te168  1  0.57276951  0.73701012  0.24745409  1
  Te  Te169  1  0.62495610  0.73356996  0.57915792  1
  Te  Te170  1  0.61595611  0.77296241  0.90407954  1
  Te  Te171  1  0.91243860  0.09291974  0.24819463  1
  Te  Te172  1  0.89952347  0.04533342  0.57709417  1
  Te  Te173  1  0.89521515  0.07188227  0.89997436  1
  Te  Te174  1  0.92501981  0.41431982  0.25135524  1
  Te  Te175  1  0.90832431  0.41423120  0.57631754  1
  Te  Te176  1  0.90575213  0.43655669  0.92495523  1
  Te  Te177  1  0.89416985  0.76346592  0.27604585  1
  Te  Te178  1  0.90272881  0.74443585  0.59149872  1
  Te  Te179  1  0.90451018  0.75302490  0.90628743  1
