# generated using pymatgen
data_In2Te3
_symmetry_space_group_name_H-M   'P 1'
_cell_length_a   18.96071089
_cell_length_b   18.95654457
_cell_length_c   18.95753165
_cell_angle_alpha   89.88305190
_cell_angle_beta   89.99516144
_cell_angle_gamma   89.91388275
_symmetry_Int_Tables_number   1
_chemical_formula_structural   In2Te3
_chemical_formula_sum   'In72 Te108'
_cell_volume   6813.87536891
_cell_formula_units_Z   36
loop_
 _symmetry_equiv_pos_site_id
 _symmetry_equiv_pos_as_xyz
  1  'x, y, z'
loop_
 _atom_site_type_symbol
 _atom_site_label
 _atom_site_symmetry_multiplicity
 _atom_site_fract_x
 _atom_site_fract_y
 _atom_site_fract_z
 _atom_site_occupancy
  In  In0  1  0.32273402  -0.00214673  0.66038242  1
  In  In1  1  0.51684374  0.00210201  0.84128884  1
  In  In2  1  0.83712580  0.15715767  0.33145954  1
  In  In3  1  0.51118611  0.81268477  0.66232138  1
  In  In4  1  0.82731205  -0.00773685  0.47849503  1
  In  In5  1  0.32018445  0.31304035  0.31866627  1
  In  In6  1  0.68650797  0.00134013  0.64461668  1
  In  In7  1  0.15882469  0.17820451  0.01696637  1
  In  In8  1  0.80358521  0.82719911  0.00175142  1
  In  In9  1  0.83713207  0.20846145  -0.01518931  1
  In  In10  1  0.51480561  0.15349648  0.32463966  1
  In  In11  1  -0.01653054  0.83449650  0.50310593  1
  In  In12  1  0.51703797  0.33881950  0.84561955  1
  In  In13  1  0.33290368  0.81056733  0.49656095  1
  In  In14  1  0.52098697  -0.00008856  0.48606705  1
  In  In15  1  0.01124452  0.51661852  0.83736559  1
  In  In16  1  0.15244196  0.33314304  0.16093225  1
  In  In17  1  0.48695017  0.85209576  0.32763562  1
  In  In18  1  0.15075948  -0.01942683  0.48071053  1
  In  In19  1  0.66720136  0.47971878  0.51169092  1
  In  In20  1  0.84305301  0.65400013  0.51959098  1
  In  In21  1  0.01919930  0.01461386  0.01715503  1
  In  In22  1  -0.00654589  0.33133618  0.66157868  1
  In  In23  1  0.83533892  0.66670491  0.81769815  1
  In  In24  1  0.68950429  0.16106306  0.48856954  1
  In  In25  1  0.31189082  0.67164611  0.01069488  1
  In  In26  1  0.16239338  0.81653714  0.31826938  1
  In  In27  1  0.66359599  0.16429167  0.16149746  1
  In  In28  1  -0.00011454  0.17019675  0.48477817  1
  In  In29  1  0.17715526  0.66861676  0.17019555  1
  In  In30  1  0.51570890  0.21208931  0.68298421  1
  In  In31  1  0.82801834  0.01298760  0.16138456  1
  In  In32  1  0.35430440  0.17818657  0.83280451  1
  In  In33  1  0.66924558  0.49246695  0.81960131  1
  In  In34  1  0.33131634  0.36027331  0.67262101  1
  In  In35  1  0.68497651  0.65001818  0.33010467  1
  In  In36  1  0.83131393  0.32344210  0.48597757  1
  In  In37  1  0.31415176  0.67345147  0.33432916  1
  In  In38  1  0.84067159  0.49852572  0.01210724  1
  In  In39  1  0.47888461  0.16435038  0.00403189  1
  In  In40  1  0.83719656  -0.02022163  0.84902987  1
  In  In41  1  0.53462972  0.86347171  0.02331644  1
  In  In42  1  -0.00531755  0.33812676  0.00344471  1
  In  In43  1  0.03399558  0.17746966  0.84713329  1
  In  In44  1  0.30993614  0.01015719  0.28585659  1
  In  In45  1  0.82646305  0.17195847  0.66987597  1
  In  In46  1  0.33356093  0.50516447  0.50254762  1
  In  In47  1  0.15111777  0.80762587  0.68190486  1
  In  In48  1  0.68182225  0.68940122  0.66706571  1
  In  In49  1  0.82491248  0.84209982  0.31975703  1
  In  In50  1  -0.00185227  0.84274460  0.83715238  1
  In  In51  1  0.50609659  0.67117426  0.85803480  1
  In  In52  1  0.34451627  0.63063586  0.68435845  1
  In  In53  1  0.15799785  0.49368901  0.34517544  1
  In  In54  1  0.47958487  0.68860675  0.18219240  1
  In  In55  1  0.47805162  0.50203895  0.01041886  1
  In  In56  1  0.66552615  0.48138561  0.15312307  1
  In  In57  1  0.15303077  0.01378514  0.83767104  1
  In  In58  1  0.29794206  -0.00709322  0.03837034  1
  In  In59  1  0.00424202  0.50099934  0.50712212  1
  In  In60  1  0.50649709  0.51289124  0.31881132  1
  In  In61  1  0.00477826  0.83272630  0.17486943  1
  In  In62  1  0.32282026  0.18659030  0.45846058  1
  In  In63  1  0.49926806  0.33476475  0.15477025  1
  In  In64  1  0.32685462  0.82983733  0.87216801  1
  In  In65  1  0.15283566  0.49975349  0.65730719  1
  In  In66  1  0.01060375  0.64359660  0.00406430  1
  In  In67  1  0.85274643  0.32900152  0.17450566  1
  In  In68  1  0.16099566  0.14736333  0.67507250  1
  In  In69  1  -0.00485382  0.66594905  0.36464851  1
  In  In70  1  0.49458572  0.33595322  0.50784541  1
  In  In71  1  0.65432586  0.68330760  -0.00059879  1
  Te  Te72  1  0.11674859  0.07189449  0.11349673  1
  Te  Te73  1  0.08149526  0.08095768  0.40065071  1
  Te  Te74  1  0.05082797  0.06688116  0.73988820  1
  Te  Te75  1  0.05327550  0.42815858  0.10404780  1
  Te  Te76  1  0.06176993  0.40572355  0.41095562  1
  Te  Te77  1  0.08451429  0.40624698  0.75424055  1
  Te  Te78  1  0.08940950  0.75169694  0.07909203  1
  Te  Te79  1  0.09582621  0.75287271  0.43722976  1
  Te  Te80  1  0.08550927  0.73235434  0.78961124  1
  Te  Te81  1  0.40619408  0.07386298  0.09635480  1
  Te  Te82  1  0.40837078  0.07252252  0.40489203  1
  Te  Te83  1  0.42347771  0.07985074  0.73900753  1
  Te  Te84  1  0.39436539  0.41837069  0.09557897  1
  Te  Te85  1  0.41350109  0.41169063  0.40252494  1
  Te  Te86  1  0.45479581  0.42713810  0.73934224  1
  Te  Te87  1  0.43065182  0.75890915  0.05891198  1
  Te  Te88  1  0.42904374  0.73293731  0.41196743  1
  Te  Te89  1  0.40934887  0.75821510  0.76421011  1
  Te  Te90  1  0.75814312  0.10214310  0.06004700  1
  Te  Te91  1  0.73073529  0.06111792  0.38408855  1
  Te  Te92  1  0.75188045  0.07557275  0.75854766  1
  Te  Te93  1  0.75405108  0.38931687  0.07267389  1
  Te  Te94  1  0.73230452  0.39865549  0.40858965  1
  Te  Te95  1  0.75336916  0.38350148  0.77295079  1
  Te  Te96  1  0.74255310  0.73889875  0.10136044  1
  Te  Te97  1  0.76675640  0.74221505  0.41800140  1
  Te  Te98  1  0.75048506  0.77346026  0.76561795  1
  Te  Te99  1  0.12550144  0.22595669  0.26161547  1
  Te  Te100  1  0.08932739  0.24523483  0.58285783  1
  Te  Te101  1  0.11045113  0.28526026  0.91785710  1
  Te  Te102  1  0.08103594  0.59458450  0.26047507  1
  Te  Te103  1  0.07303907  0.60104545  0.58810622  1
  Te  Te104  1  0.09855845  0.53450460  0.95575393  1
  Te  Te105  1  0.09319751  0.92421108  0.24845477  1
  Te  Te106  1  0.08124921  0.91352651  0.59619262  1
  Te  Te107  1  0.09552786  0.91417153  0.93349670  1
  Te  Te108  1  0.42013944  0.23315903  0.23711978  1
  Te  Te109  1  0.39532984  0.24210891  0.58539924  1
  Te  Te110  1  0.40494836  0.28056837  0.92976821  1
  Te  Te111  1  0.39421587  0.57975933  0.24349152  1
  Te  Te112  1  0.43134232  0.58115183  0.57917467  1
  Te  Te113  1  0.39691437  0.58422206  0.91312649  1
  Te  Te114  1  0.42027564  0.93441462  0.22336562  1
  Te  Te115  1  0.41699652  0.91427918  0.57518926  1
  Te  Te116  1  0.41611172  0.93499567  0.93505269  1
  Te  Te117  1  0.74688324  0.25115771  0.25310000  1
  Te  Te118  1  0.73528410  0.26251214  0.59076326  1
  Te  Te119  1  0.75286811  0.27964586  0.88438836  1
  Te  Te120  1  0.76253330  0.55571017  0.24099710  1
  Te  Te121  1  0.74988504  0.56867639  0.60336624  1
  Te  Te122  1  0.74377500  0.58749358  0.92354614  1
  Te  Te123  1  0.73692501  0.90514452  0.21385112  1
  Te  Te124  1  0.75341641  0.90031577  0.56440943  1
  Te  Te125  1  0.72690540  0.93130617  0.93239205  1
  Te  Te126  1  0.25622678  0.26825646  0.07727962  1
  Te  Te127  1  0.20660290  0.25752187  0.39988476  1
  Te  Te128  1  0.24635498  0.24404193  0.75094362  1
  Te  Te129  1  0.24336924  0.56705456  0.08784074  1
  Te  Te130  1  0.23243940  0.59368674  0.43263306  1
  Te  Te131  1  0.23020072  0.57568595  0.76261125  1
  Te  Te132  1  0.24214107  0.88093416  0.11187273  1
  Te  Te133  1  0.26579740  0.91011320  0.40314017  1
  Te  Te134  1  0.24552016  0.91473752  0.76056115  1
  Te  Te135  1  0.58925812  0.25423368  0.06466907  1
  Te  Te136  1  0.58383822  0.24766871  0.41999802  1
  Te  Te137  1  0.61309248  0.23723488  0.79162958  1
  Te  Te138  1  0.57155917  0.59144934  0.09999917  1
  Te  Te139  1  0.58841282  0.57988617  0.42441113  1
  Te  Te140  1  0.58589311  0.60099724  0.75315557  1
  Te  Te141  1  0.61451971  0.93845076  0.11999124  1
  Te  Te142  1  0.59751822  0.90192611  0.41172713  1
  Te  Te143  1  0.58721960  0.92302280  0.73323601  1
  Te  Te144  1  0.93896444  0.23097746  0.09599620  1
  Te  Te145  1  0.93028070  0.26514847  0.38707728  1
  Te  Te146  1  0.92411847  0.24263484  0.76188961  1
  Te  Te147  1  0.91422629  0.58855493  0.10326935  1
  Te  Te148  1  0.89827420  0.56117499  0.41381545  1
  Te  Te149  1  0.91092118  0.56717143  0.74350324  1
  Te  Te150  1  0.91812289  0.91389505  0.07395301  1
  Te  Te151  1  0.93079880  0.92322788  0.39173365  1
  Te  Te152  1  0.90516626  0.90617684  0.74309453  1
  Te  Te153  1  0.23239824  0.11897236  0.22454097  1
  Te  Te154  1  0.24426231  0.08144155  0.56102444  1
  Te  Te155  1  0.25522619  0.09136059  0.91725595  1
  Te  Te156  1  0.24750882  0.42428086  0.24663893  1
  Te  Te157  1  0.23550485  0.40957572  0.56502557  1
  Te  Te158  1  0.30898806  0.44242307  0.79526996  1
  Te  Te159  1  0.28112834  0.77889570  0.22234316  1
  Te  Te160  1  0.25991614  0.73527126  0.60367784  1
  Te  Te161  1  0.22181280  0.73698803  0.91200421  1
  Te  Te162  1  0.58406831  0.05949222  0.23218791  1
  Te  Te163  1  0.57771680  0.10195095  0.58347900  1
  Te  Te164  1  0.58558954  0.09807225  0.92625252  1
  Te  Te165  1  0.58875677  0.40206646  0.25791404  1
  Te  Te166  1  0.57201905  0.41307819  0.60605807  1
  Te  Te167  1  0.59058383  0.43324258  0.93826148  1
  Te  Te168  1  0.58864557  0.74938266  0.26325131  1
  Te  Te169  1  0.60014825  0.75560394  0.56323117  1
  Te  Te170  1  0.59316190  0.78542820  0.90519432  1
  Te  Te171  1  0.92619875  0.08588149  0.24017959  1
  Te  Te172  1  0.90361230  0.08775898  0.56884150  1
  Te  Te173  1  0.92846857  0.09071448  0.92214603  1
  Te  Te174  1  0.88625174  0.46175244  0.22694965  1
  Te  Te175  1  0.89984575  0.41780057  0.58290304  1
  Te  Te176  1  0.91264158  0.41963154  0.90601884  1
  Te  Te177  1  0.91689807  0.73958658  0.25546372  1
  Te  Te178  1  0.92519864  0.74358480  0.60105630  1
  Te  Te179  1  0.91569299  0.74345026  0.92918727  1
