# generated using pymatgen
data_In2Te3
_symmetry_space_group_name_H-M   'P 1'
_cell_length_a   18.78487698
_cell_length_b   18.78002694
_cell_length_c   18.77709560
_cell_angle_alpha   90.07086239
_cell_angle_beta   89.94278760
_cell_angle_gamma   90.01974531
_symmetry_Int_Tables_number   1
_chemical_formula_structural   In2Te3
_chemical_formula_sum   'In72 Te108'
_cell_volume   6624.18433845
_cell_formula_units_Z   36
loop_
 _symmetry_equiv_pos_site_id
 _symmetry_equiv_pos_as_xyz
  1  'x, y, z'
loop_
 _atom_site_type_symbol
 _atom_site_label
 _atom_site_symmetry_multiplicity
 _atom_site_fract_x
 _atom_site_fract_y
 _atom_site_fract_z
 _atom_site_occupancy
  In  In0  1  0.67639659  0.85372609  0.84069403  1
  In  In1  1  0.48228708  0.32619898  0.82690295  1
  In  In2  1  -0.03016851  0.32452611  0.35470969  1
  In  In3  1  0.17267601  0.50117768  -0.02497099  1
  In  In4  1  0.48232066  0.49604674  0.67127441  1
  In  In5  1  0.16305737  0.33713026  0.51098105  1
  In  In6  1  0.84847173  -0.01425499  0.50444481  1
  In  In7  1  0.17569745  0.69482600  0.17531496  1
  In  In8  1  0.83634710  0.67957973  0.17215701  1
  In  In9  1  0.65187528  0.31900266  -0.01246003  1
  In  In10  1  0.02852229  0.83581236  0.50855847  1
  In  In11  1  0.19424670  -0.04064988  0.14779870  1
  In  In12  1  0.83217160  0.51003068  -0.00009423  1
  In  In13  1  0.18468195  0.53719255  0.33897627  1
  In  In14  1  0.48561328  0.12279461  0.34418285  1
  In  In15  1  0.84357926  0.52819876  0.67666570  1
  In  In16  1  0.02385851  0.31868524  0.01125738  1
  In  In17  1  0.51249340  0.33669653  0.16249839  1
  In  In18  1  0.32513047  0.84149650  0.50641705  1
  In  In19  1  0.17994547  0.51988102  0.67087768  1
  In  In20  1  0.64513829  0.15834398  0.83412703  1
  In  In21  1  0.47749951  -0.01596265  0.49354161  1
  In  In22  1  0.31187797  0.53193282  0.49930399  1
  In  In23  1  -0.00034344  0.52924725  0.84943233  1
  In  In24  1  -0.00411619  -0.02115331  -0.00437136  1
  In  In25  1  0.17436363  0.13680573  0.65381043  1
  In  In26  1  0.00651646  0.68650293  0.00227835  1
  In  In27  1  0.65984758  0.51440000  0.50106998  1
  In  In28  1  0.84968626  -0.01862517  0.84288079  1
  In  In29  1  0.48153853  0.53419361  -0.00392421  1
  In  In30  1  0.64891978  0.69930118  0.64908357  1
  In  In31  1  0.48356046  0.82119561  0.01253108  1
  In  In32  1  0.48692716  0.16195558  0.68418046  1
  In  In33  1  0.67663051  0.82854337  0.15630785  1
  In  In34  1  0.68132044  -0.02442404  0.64908713  1
  In  In35  1  0.68718710  0.51524943  0.84539723  1
  In  In36  1  0.85581669  0.50320925  0.33463633  1
  In  In37  1  0.65639687  0.52817142  0.13380202  1
  In  In38  1  0.64741743  -0.02277740  0.34240377  1
  In  In39  1  0.83872534  -0.01049830  0.15917939  1
  In  In40  1  0.01975345  0.81292464  0.82421494  1
  In  In41  1  0.84051064  0.32204163  0.17421336  1
  In  In42  1  0.01274933  0.69287408  0.33710982  1
  In  In43  1  0.17051097  0.33395188  0.84035344  1
  In  In44  1  0.48088735  0.32151796  0.51671395  1
  In  In45  1  0.16919283  0.15788941  -0.00412075  1
  In  In46  1  0.00047662  0.17005127  0.17295318  1
  In  In47  1  0.32112128  0.16055319  0.83282083  1
  In  In48  1  0.83538939  0.15448366  0.64457528  1
  In  In49  1  -0.00006469  0.32713216  0.66285151  1
  In  In50  1  0.82170497  0.33106687  0.82716577  1
  In  In51  1  0.17214087  -0.00716358  0.81772344  1
  In  In52  1  0.16333208  0.33198149  0.14161005  1
  In  In53  1  0.68869163  0.70120088  0.34285309  1
  In  In54  1  0.47094074  -0.02544407  0.16875324  1
  In  In55  1  0.49847319  0.00467774  0.82188567  1
  In  In56  1  0.31155599  0.82063920  0.83035107  1
  In  In57  1  0.02138289  -0.02566160  0.32187446  1
  In  In58  1  0.34218437  0.52118168  0.15762604  1
  In  In59  1  0.48352952  0.54081283  0.33553791  1
  In  In60  1  0.68826847  0.17251263  0.15578917  1
  In  In61  1  0.85495527  0.83274749  0.67532390  1
  In  In62  1  0.15149765  0.14691900  0.35434155  1
  In  In63  1  0.47707879  0.82771673  0.33398027  1
  In  In64  1  0.48847113  0.67242013  0.83682566  1
  In  In65  1  0.67236380  0.16681102  0.50208723  1
  In  In66  1  0.85292105  0.31138063  0.49299872  1
  In  In67  1  0.32416432  0.15638759  0.16090150  1
  In  In68  1  0.32267786  0.32881845  0.33811277  1
  In  In69  1  0.32126569  0.67269674  0.65808580  1
  In  In70  1  0.66964082  0.32829372  0.31698039  1
  In  In71  1  0.01999838  0.53009361  0.49825333  1
  Te  Te72  1  0.09149478  0.07278527  0.09792600  1
  Te  Te73  1  0.08073209  0.04697197  0.44168861  1
  Te  Te74  1  0.08125529  0.09401048  0.76050451  1
  Te  Te75  1  0.07789743  0.44231155  0.08050041  1
  Te  Te76  1  0.08953767  0.42468059  0.40960199  1
  Te  Te77  1  0.07467346  0.42878750  0.75047794  1
  Te  Te78  1  0.07105192  0.77741313  0.10432984  1
  Te  Te79  1  0.12098651  0.76068130  0.41578352  1
  Te  Te80  1  0.06400241  0.71774035  0.71649423  1
  Te  Te81  1  0.40222986  0.06550296  0.07569321  1
  Te  Te82  1  0.37279715  0.06985058  0.42620179  1
  Te  Te83  1  0.38483100  0.05970592  0.73520585  1
  Te  Te84  1  0.41767614  0.41639331  0.07484470  1
  Te  Te85  1  0.41148446  0.42735632  0.41725693  1
  Te  Te86  1  0.39133315  0.41333245  0.75164482  1
  Te  Te87  1  0.38772384  0.76900256  0.11834177  1
  Te  Te88  1  0.39605998  0.73792241  0.42284332  1
  Te  Te89  1  0.42063307  0.76191029  0.73642208  1
  Te  Te90  1  0.75617478  0.07430338  0.06938177  1
  Te  Te91  1  0.74863378  0.06692131  0.41766399  1
  Te  Te92  1  0.74661531  0.07393047  0.74638839  1
  Te  Te93  1  0.73937134  0.40265930  0.08993062  1
  Te  Te94  1  0.75208332  0.41657977  0.41790366  1
  Te  Te95  1  0.74576976  0.42596347  0.73569913  1
  Te  Te96  1  0.75117586  0.73706283  0.06553881  1
  Te  Te97  1  0.77243516  0.77805251  0.43405391  1
  Te  Te98  1  0.74960374  0.75173763  0.75186880  1
  Te  Te99  1  0.09305103  0.25933971  0.25808183  1
  Te  Te100  1  0.07506737  0.23030809  0.57359391  1
  Te  Te101  1  0.07512904  0.22930036  0.89866945  1
  Te  Te102  1  0.07985271  0.59000805  0.24482720  1
  Te  Te103  1  0.09581196  0.61875116  0.59282973  1
  Te  Te104  1  0.10821940  0.61989916  0.90438296  1
  Te  Te105  1  0.10750349  0.88016216  0.24322060  1
  Te  Te106  1  0.10055453  0.95055619  0.57401783  1
  Te  Te107  1  0.10223176  0.90027079  0.92048254  1
  Te  Te108  1  0.42010452  0.24755323  0.25227188  1
  Te  Te109  1  0.39528366  0.22673604  0.58769280  1
  Te  Te110  1  0.42673583  0.22361913  0.91529625  1
  Te  Te111  1  0.39565933  0.62393045  0.25104469  1
  Te  Te112  1  0.42766869  0.59871128  0.57378262  1
  Te  Te113  1  0.38064630  0.59589624  0.90539601  1
  Te  Te114  1  0.37652884  0.91943508  0.27079142  1
  Te  Te115  1  0.42746801  0.89627155  0.60395445  1
  Te  Te116  1  0.41443704  0.90652193  0.90588400  1
  Te  Te117  1  0.77353487  0.22643565  0.27278358  1
  Te  Te118  1  0.74474836  0.26660497  0.59175976  1
  Te  Te119  1  0.75368908  0.23000997  0.91870186  1
  Te  Te120  1  0.74429832  0.57331759  0.25496289  1
  Te  Te121  1  0.75342427  0.60594138  0.57974969  1
  Te  Te122  1  0.75803918  0.61525014  0.92755650  1
  Te  Te123  1  0.75516184  0.90660525  0.26085218  1
  Te  Te124  1  0.75121143  0.87284660  0.55871690  1
  Te  Te125  1  0.75278216  0.92959183  0.94214868  1
  Te  Te126  1  0.26691452  0.25768874  0.05964125  1
  Te  Te127  1  0.25058513  0.23594129  0.43392517  1
  Te  Te128  1  0.24340913  0.24961209  0.73581344  1
  Te  Te129  1  0.24216238  0.59831677  0.07398713  1
  Te  Te130  1  0.24479889  0.64404888  0.42447079  1
  Te  Te131  1  0.26700287  0.58914393  0.76992604  1
  Te  Te132  1  0.27714084  0.86462017  0.05650911  1
  Te  Te133  1  0.25425804  0.95190735  0.43224229  1
  Te  Te134  1  0.21994296  0.88264298  0.72687143  1
  Te  Te135  1  0.56779757  0.22552962  0.07432204  1
  Te  Te136  1  0.57626534  0.24695252  0.41094864  1
  Te  Te137  1  0.58943531  0.26319676  0.73861956  1
  Te  Te138  1  0.55874510  0.62472961  0.08356655  1
  Te  Te139  1  0.58181117  0.61788856  0.42258504  1
  Te  Te140  1  0.58856766  0.58569356  0.74739814  1
  Te  Te141  1  0.58192973  0.92041056  0.07913588  1
  Te  Te142  1  0.58356936  0.87820669  0.44194323  1
  Te  Te143  1  0.57853868  0.90510354  0.73602465  1
  Te  Te144  1  0.90950897  0.23485827  0.06910974  1
  Te  Te145  1  0.92743587  0.20339405  0.42660875  1
  Te  Te146  1  0.91390163  0.23704909  0.75027830  1
  Te  Te147  1  0.92625491  0.58490804  0.09063599  1
  Te  Te148  1  0.91183221  0.60973775  0.42510945  1
  Te  Te149  1  0.92971979  0.62231680  0.75485141  1
  Te  Te150  1  0.92750017  0.88861512  0.09251271  1
  Te  Te151  1  0.92212113  0.89260520  0.40842589  1
  Te  Te152  1  0.95234802  0.92695484  0.74335166  1
  Te  Te153  1  0.23443918  0.07140436  0.24934452  1
  Te  Te154  1  0.23824234  0.02859670  0.56956986  1
  Te  Te155  1  0.25852721  0.05636860  0.92797994  1
  Te  Te156  1  0.24839329  0.42383180  0.24427297  1
  Te  Te157  1  0.26353521  0.41872309  0.59051744  1
  Te  Te158  1  0.27075283  0.40523365  0.92078329  1
  Te  Te159  1  0.28524635  0.77869192  0.23767181  1
  Te  Te160  1  0.22711171  0.77867762  0.60624722  1
  Te  Te161  1  0.24323429  0.76367353  0.94847561  1
  Te  Te162  1  0.59002246  0.07791086  0.24128146  1
  Te  Te163  1  0.57736746  0.07624766  0.58117210  1
  Te  Te164  1  0.58086697  0.06589446  0.92796741  1
  Te  Te165  1  0.57726629  0.43830107  0.25680094  1
  Te  Te166  1  0.58128918  0.41395534  0.58588616  1
  Te  Te167  1  0.57844486  0.43330318  0.91763181  1
  Te  Te168  1  0.58012010  0.75184854  0.24816380  1
  Te  Te169  1  0.56064557  0.78406115  0.56713279  1
  Te  Te170  1  0.58561466  0.75479383  0.91898671  1
  Te  Te171  1  0.92161315  0.07384134  0.25906940  1
  Te  Te172  1  0.93683652  0.05850979  0.59802907  1
  Te  Te173  1  0.92607639  0.08299552  0.91912101  1
  Te  Te174  1  0.93814352  0.42022446  0.23655243  1
  Te  Te175  1  0.92232332  0.43108782  0.57591209  1
  Te  Te176  1  0.91871390  0.41094242  0.91751637  1
  Te  Te177  1  0.92017567  0.77189159  0.25092315  1
  Te  Te178  1  0.93837158  0.74548064  0.58777136  1
  Te  Te179  1  0.91414165  0.76010801  0.91373838  1
