# generated using pymatgen
data_In2Te3
_symmetry_space_group_name_H-M   'P 1'
_cell_length_a   18.75082537
_cell_length_b   18.76030472
_cell_length_c   18.74698002
_cell_angle_alpha   89.99057321
_cell_angle_beta   89.95760275
_cell_angle_gamma   89.94979247
_symmetry_Int_Tables_number   1
_chemical_formula_structural   In2Te3
_chemical_formula_sum   'In72 Te108'
_cell_volume   6594.64319056
_cell_formula_units_Z   36
loop_
 _symmetry_equiv_pos_site_id
 _symmetry_equiv_pos_as_xyz
  1  'x, y, z'
loop_
 _atom_site_type_symbol
 _atom_site_label
 _atom_site_symmetry_multiplicity
 _atom_site_fract_x
 _atom_site_fract_y
 _atom_site_fract_z
 _atom_site_occupancy
  In  In0  1  0.86148322  0.31502483  0.82650501  1
  In  In1  1  0.48192054  0.64127631  0.83371345  1
  In  In2  1  0.64480568  0.68681772  0.67966311  1
  In  In3  1  -0.00931765  0.66122023  0.68025737  1
  In  In4  1  0.85718629  -0.00240407  0.51953411  1
  In  In5  1  0.49810251  0.49977837  0.32948380  1
  In  In6  1  0.65960203  0.50654072  0.83131166  1
  In  In7  1  0.15903699  -0.00409800  0.15469854  1
  In  In8  1  0.49016116  0.30607630  0.51125853  1
  In  In9  1  0.49623380  0.34239513  0.14864606  1
  In  In10  1  0.47744840  0.34097360  0.80789588  1
  In  In11  1  0.31481521  -0.00529693  0.32945151  1
  In  In12  1  0.17274619  0.85548263  0.32717242  1
  In  In13  1  0.32520961  0.17200088  0.52653072  1
  In  In14  1  0.65443104  0.65918577  0.02748080  1
  In  In15  1  0.68821177  0.03853962  0.68595584  1
  In  In16  1  0.16705740  0.31977951  0.83218146  1
  In  In17  1  0.51052252  0.03089190  0.84784398  1
  In  In18  1  0.32582969  0.65409872  -0.02759653  1
  In  In19  1  0.85572174  0.01754483  0.16096088  1
  In  In20  1  0.45926465  0.79186957  0.35656928  1
  In  In21  1  0.68685038  0.18234825  0.16357579  1
  In  In22  1  0.86229604  0.51432587  0.66724212  1
  In  In23  1  0.01192585  0.01864597  0.70026176  1
  In  In24  1  0.01477331  0.83987377  0.51050032  1
  In  In25  1  0.50875294  0.17194492  0.33923622  1
  In  In26  1  0.64009449  0.84582016  0.16081459  1
  In  In27  1  -0.00040879  0.18280555  0.16460485  1
  In  In28  1  0.30387011  0.81949059  0.83646524  1
  In  In29  1  0.65947595  0.49966647  0.48862965  1
  In  In30  1  0.14324247  0.49308107  -0.02339049  1
  In  In31  1  0.00543911  0.01435744  -0.02314414  1
  In  In32  1  0.33603090  0.33694463  0.34870076  1
  In  In33  1  0.86150933  0.48729954  -0.01463455  1
  In  In34  1  0.31910438  0.18472961  0.82898669  1
  In  In35  1  0.66191879  0.17213398  0.50637910  1
  In  In36  1  0.51137067  0.65685622  0.16931061  1
  In  In37  1  0.48616274  -0.01340696  0.12859088  1
  In  In38  1  0.83830972  0.64985313  0.15576713  1
  In  In39  1  0.31298810  0.83098797  0.17578897  1
  In  In40  1  0.85872793  0.47154364  0.29021572  1
  In  In41  1  0.85018559  0.84045018  -0.02397732  1
  In  In42  1  0.17245312  0.52101412  0.35044307  1
  In  In43  1  -0.00595533  0.65392909  0.32163171  1
  In  In44  1  0.18824750  0.48091667  0.68911699  1
  In  In45  1  0.65317772  0.32930066  0.68133140  1
  In  In46  1  0.83772505  0.33613068  0.51089293  1
  In  In47  1  -0.00368482  0.47890235  0.50826881  1
  In  In48  1  0.66049905  0.51923425  0.16441309  1
  In  In49  1  0.15455292  0.83563771  0.66351839  1
  In  In50  1  0.84730639  0.83039637  0.35162135  1
  In  In51  1  0.32195423  -0.00396640  0.66382396  1
  In  In52  1  0.14641262  0.68585640  0.16114563  1
  In  In53  1  0.00836169  0.83716520  0.82302753  1
  In  In54  1  0.34498658  0.49247813  0.14695723  1
  In  In55  1  0.84088863  0.67910141  0.51248927  1
  In  In56  1  0.50079780  0.82944649  0.66364455  1
  In  In57  1  0.65404738  0.82552296  0.51946767  1
  In  In58  1  0.84625401  0.18149765  0.31735893  1
  In  In59  1  0.51790696  0.00264326  0.51535940  1
  In  In60  1  0.85851514  0.67966541  0.83795968  1
  In  In61  1  0.18901558  0.66275819  0.51154496  1
  In  In62  1  0.67635206  0.84313878  0.84347463  1
  In  In63  1  0.86370495  0.18599401  -0.01839374  1
  In  In64  1  0.15879247  0.33922402  0.50966220  1
  In  In65  1  0.16272028  0.32220319  0.15554466  1
  In  In66  1  0.49933597  0.84457340  0.01051461  1
  In  In67  1  0.30340531  0.15569629  0.15932687  1
  In  In68  1  0.31098278  0.01692506  -0.01705332  1
  In  In69  1  0.03361928  0.15500632  0.48815992  1
  In  In70  1  0.67712943  0.33526368  -0.00466873  1
  In  In71  1  0.67006059  0.00384166  0.32802403  1
  Te  Te72  1  0.09072516  0.10386435  0.07045404  1
  Te  Te73  1  0.10714026  0.07635480  0.38736641  1
  Te  Te74  1  0.08553666  0.12466583  0.78775600  1
  Te  Te75  1  0.06632942  0.40809074  0.07736042  1
  Te  Te76  1  0.07703533  0.41154060  0.39887136  1
  Te  Te77  1  0.07594358  0.40418548  0.74719400  1
  Te  Te78  1  0.05923636  0.75583528  0.06764185  1
  Te  Te79  1  0.08013204  0.73529270  0.41978720  1
  Te  Te80  1  0.10203441  0.72837451  0.75930661  1
  Te  Te81  1  0.41054623  0.10086594  0.06162898  1
  Te  Te82  1  0.41716623  0.08340932  0.42339359  1
  Te  Te83  1  0.41143719  0.08695912  0.74910224  1
  Te  Te84  1  0.38386629  0.37883020  0.05753052  1
  Te  Te85  1  0.42108522  0.42400597  0.43890513  1
  Te  Te86  1  0.38318454  0.44745715  0.74537954  1
  Te  Te87  1  0.40937751  0.74369660  0.08428325  1
  Te  Te88  1  0.36531278  0.72106587  0.44469554  1
  Te  Te89  1  0.40565341  0.74446756  0.74886759  1
  Te  Te90  1  0.76790998  0.09609546  0.06689748  1
  Te  Te91  1  0.75825201  0.08351108  0.42402514  1
  Te  Te92  1  0.79237894  0.10954483  0.76653783  1
  Te  Te93  1  0.75596877  0.43029365  0.08324524  1
  Te  Te94  1  0.76600238  0.42364522  0.40914098  1
  Te  Te95  1  0.76317989  0.42314333  0.75371129  1
  Te  Te96  1  0.75289912  0.76522803  0.07866392  1
  Te  Te97  1  0.73989260  0.74518143  0.41880127  1
  Te  Te98  1  0.76012687  0.75838871  0.74646569  1
  Te  Te99  1  0.08374489  0.25631700  0.26285146  1
  Te  Te100  1  0.10193332  0.23418297  0.59728478  1
  Te  Te101  1  0.08303671  0.21791657  0.90714480  1
  Te  Te102  1  0.08094578  0.56526586  0.23515507  1
  Te  Te103  1  0.08294282  0.57613830  0.58847452  1
  Te  Te104  1  0.06504595  0.58717418  0.89324616  1
  Te  Te105  1  0.07290537  0.90080304  0.22918777  1
  Te  Te106  1  0.08945362  0.95025187  0.58444556  1
  Te  Te107  1  0.09784606  0.92295555  0.90408169  1
  Te  Te108  1  0.40910208  0.24458885  0.24639084  1
  Te  Te109  1  0.40014720  0.25943407  0.62187035  1
  Te  Te110  1  0.41565647  0.25795426  0.91599511  1
  Te  Te111  1  0.40195882  0.58980859  0.25160077  1
  Te  Te112  1  0.35404495  0.55003962  0.63300337  1
  Te  Te113  1  0.40054526  0.54148533  0.90975850  1
  Te  Te114  1  0.42485117  0.91085470  0.25020386  1
  Te  Te115  1  0.41024070  0.90985592  0.57060368  1
  Te  Te116  1  0.41167201  0.91703467  0.90707997  1
  Te  Te117  1  0.75098700  0.27649030  0.25692691  1
  Te  Te118  1  0.75591937  0.24537698  0.60201537  1
  Te  Te119  1  0.74356859  0.24231005  0.89601005  1
  Te  Te120  1  0.75323865  0.58621102  0.26527663  1
  Te  Te121  1  0.74616125  0.58683535  0.59578466  1
  Te  Te122  1  0.75117629  0.59592717  0.91924860  1
  Te  Te123  1  0.76284900  0.91701724  0.24291513  1
  Te  Te124  1  0.74298608  0.92736586  0.59245993  1
  Te  Te125  1  0.76918733  0.94141183  0.90274971  1
  Te  Te126  1  0.25096691  0.25077415  0.05897754  1
  Te  Te127  1  0.24186617  0.24273491  0.41950234  1
  Te  Te128  1  0.25231326  0.26174465  0.71878687  1
  Te  Te129  1  0.23721176  0.58014202  0.08270481  1
  Te  Te130  1  0.28657727  0.57937934  0.43075421  1
  Te  Te131  1  0.27317824  0.58194581  0.75796295  1
  Te  Te132  1  0.24185819  0.90405438  0.06363337  1
  Te  Te133  1  0.24851481  0.91809197  0.43634729  1
  Te  Te134  1  0.22643870  0.93022757  0.76412946  1
  Te  Te135  1  0.58010184  0.24144704  0.07058556  1
  Te  Te136  1  0.60109345  0.27139315  0.40774897  1
  Te  Te137  1  0.58059954  0.23806966  0.77047081  1
  Te  Te138  1  0.54979734  0.55413570  0.06258014  1
  Te  Te139  1  0.57415932  0.59493474  0.41458842  1
  Te  Te140  1  0.56397857  0.56613115  0.72772161  1
  Te  Te141  1  0.61717225  0.94462031  0.04251520  1
  Te  Te142  1  0.57937065  0.91043756  0.40821799  1
  Te  Te143  1  0.58496839  0.92592171  0.74723052  1
  Te  Te144  1  0.89683669  0.27560049  0.10121453  1
  Te  Te145  1  0.92999932  0.25531515  0.42063521  1
  Te  Te146  1  0.92767528  0.19789958  0.75899832  1
  Te  Te147  1  0.93780683  0.57681578  0.07581575  1
  Te  Te148  1  0.90878367  0.57456376  0.42332330  1
  Te  Te149  1  0.94712815  0.55555295  0.79227710  1
  Te  Te150  1  0.93644169  0.91842862  0.07801588  1
  Te  Te151  1  0.94313340  0.93287451  0.41082752  1
  Te  Te152  1  0.91360339  0.91431744  0.74011983  1
  Te  Te153  1  0.21185248  0.09510897  0.27087368  1
  Te  Te154  1  0.22508157  0.08638938  0.59481187  1
  Te  Te155  1  0.21448079  0.09948873  0.90049726  1
  Te  Te156  1  0.25221789  0.42087731  0.25191657  1
  Te  Te157  1  0.26327686  0.43176136  0.56549478  1
  Te  Te158  1  0.25124303  0.41730141  0.90878438  1
  Te  Te159  1  0.24545982  0.73260444  0.26879756  1
  Te  Te160  1  0.26427260  0.76347941  0.59070596  1
  Te  Te161  1  0.21665122  0.74311670  0.92897138  1
  Te  Te162  1  0.57907650  0.08300686  0.23414889  1
  Te  Te163  1  0.57089934  0.10786155  0.61092601  1
  Te  Te164  1  0.59726381  0.07513312  0.95461153  1
  Te  Te165  1  0.59037858  0.40979940  0.24762304  1
  Te  Te166  1  0.57304250  0.41618916  0.58450392  1
  Te  Te167  1  0.57428064  0.41108658  0.91196308  1
  Te  Te168  1  0.58387492  0.75117974  0.26349903  1
  Te  Te169  1  0.54892428  0.72266812  0.56436161  1
  Te  Te170  1  0.57907933  0.74385366  0.91482205  1
  Te  Te171  1  0.94658004  0.07756835  0.26685517  1
  Te  Te172  1  0.92967250  0.10491493  0.59385610  1
  Te  Te173  1  0.90095979  0.07412176  0.88120998  1
  Te  Te174  1  0.94493238  0.38964525  0.20085338  1
  Te  Te175  1  0.93702913  0.38843190  0.61619375  1
  Te  Te176  1  0.94973138  0.38321392  0.92442554  1
  Te  Te177  1  0.91867096  0.75609815  0.23842488  1
  Te  Te178  1  0.91495208  0.77379035  0.60556102  1
  Te  Te179  1  0.96138246  0.73180786  0.94612757  1
