# generated using pymatgen
data_In2Te3
_symmetry_space_group_name_H-M   'P 1'
_cell_length_a   18.75553381
_cell_length_b   18.74427349
_cell_length_c   18.76030259
_cell_angle_alpha   89.91494875
_cell_angle_beta   89.96565145
_cell_angle_gamma   90.02543327
_symmetry_Int_Tables_number   1
_chemical_formula_structural   In2Te3
_chemical_formula_sum   'In72 Te108'
_cell_volume   6595.34139956
_cell_formula_units_Z   36
loop_
 _symmetry_equiv_pos_site_id
 _symmetry_equiv_pos_as_xyz
  1  'x, y, z'
loop_
 _atom_site_type_symbol
 _atom_site_label
 _atom_site_symmetry_multiplicity
 _atom_site_fract_x
 _atom_site_fract_y
 _atom_site_fract_z
 _atom_site_occupancy
  In  In0  1  0.17967915  0.01086238  0.86027652  1
  In  In1  1  0.01687306  0.48481708  0.18084566  1
  In  In2  1  0.00574720  0.47853415  0.82077686  1
  In  In3  1  0.15273404  0.35873163  0.51066791  1
  In  In4  1  0.33672561  0.82550413  0.15992184  1
  In  In5  1  0.46010316  0.48582374  0.67496396  1
  In  In6  1  0.82573594  0.81659971  -0.01623812  1
  In  In7  1  0.33927467  0.80863131  0.83712779  1
  In  In8  1  0.69538460  0.82651201  0.47758816  1
  In  In9  1  0.15378092  0.01125485  0.48543007  1
  In  In10  1  0.00863894  0.01495599  0.65850460  1
  In  In11  1  0.51675566  0.49459273  0.01592996  1
  In  In12  1  0.69392901  0.04618302  0.69085029  1
  In  In13  1  0.66584720  0.33873072  0.68608419  1
  In  In14  1  0.49171627  0.33144651  0.17134921  1
  In  In15  1  0.49593170  0.64122698  0.50357582  1
  In  In16  1  0.01789074  0.34278125  -0.00061386  1
  In  In17  1  0.49625505  0.19302412  0.66730018  1
  In  In18  1  0.82982701  0.62893008  0.84172549  1
  In  In19  1  0.01872988  -0.01125796  0.35259313  1
  In  In20  1  0.81792678  0.83083616  0.34082011  1
  In  In21  1  0.02712584  0.82531118  0.80431573  1
  In  In22  1  0.01309344  0.34334686  0.34557710  1
  In  In23  1  0.15303179  0.62988146  0.50384784  1
  In  In24  1  0.02285429  0.17095293  0.17891273  1
  In  In25  1  0.33656493  0.62881483  0.31688062  1
  In  In26  1  0.18052109  0.82176979  -0.00285362  1
  In  In27  1  0.50139361  0.03579469  0.82652541  1
  In  In28  1  0.52145257  0.79692092  0.30097532  1
  In  In29  1  0.34537271  0.02528533  -0.00860252  1
  In  In30  1  0.85349020  0.00905189  0.50259004  1
  In  In31  1  0.49139143  0.00104175  0.15172500  1
  In  In32  1  -0.00678227  0.21798647  0.82375676  1
  In  In33  1  0.67119082  0.66959455  0.65841532  1
  In  In34  1  0.32063832  0.36548689  0.31408472  1
  In  In35  1  0.33876723  0.16599372  0.49620570  1
  In  In36  1  0.00898215  0.83498362  0.17634090  1
  In  In37  1  0.31456934  0.33534711  0.00149111  1
  In  In38  1  0.34848434  0.01079484  0.66806568  1
  In  In39  1  0.81805024  0.36739301  0.14738149  1
  In  In40  1  0.47945320  0.02254910  0.47128517  1
  In  In41  1  0.84726072  0.82273726  0.63587587  1
  In  In42  1  0.48694548  0.83756751  0.03245201  1
  In  In43  1  0.15858620  0.83550340  0.32706751  1
  In  In44  1  0.17067443  0.16264220  0.32807863  1
  In  In45  1  -0.00038341  0.64383064  0.33745302  1
  In  In46  1  0.31129821  0.48929998  0.82045000  1
  In  In47  1  0.82941023  -0.00215297  0.16787138  1
  In  In48  1  0.86114155  0.66730619  0.49487279  1
  In  In49  1  0.82333996  0.01994962  0.82792136  1
  In  In50  1  0.82678150  0.20093514  -0.01772953  1
  In  In51  1  0.65941297  0.19575941  0.51215744  1
  In  In52  1  0.01983949  0.03817507  0.02909074  1
  In  In53  1  0.02405482  0.64445157  -0.00754188  1
  In  In54  1  0.49905277  0.17505397  0.00327371  1
  In  In55  1  0.31118740  0.82918475  0.47996367  1
  In  In56  1  0.17979913  0.21154411  0.69014848  1
  In  In57  1  0.66132552  0.33722287  0.34437248  1
  In  In58  1  0.48002933  0.81544974  0.68942925  1
  In  In59  1  0.65238647  0.16917467  0.15711558  1
  In  In60  1  0.65838628  0.49563823  0.84164453  1
  In  In61  1  0.87191913  0.46977622  0.64834822  1
  In  In62  1  0.48172132  0.67613972  0.83844897  1
  In  In63  1  0.66836093  0.85035563  0.82871358  1
  In  In64  1  0.84828895  0.19122903  0.34976495  1
  In  In65  1  0.81897464  0.62929678  0.16750250  1
  In  In66  1  0.16015868  0.81472025  0.67456989  1
  In  In67  1  0.48790577  0.34507676  0.48487207  1
  In  In68  1  0.64475661  0.63770116  0.01300388  1
  In  In69  1  0.66465969  0.50491063  0.47816986  1
  In  In70  1  0.30454611  0.63693045  0.02081563  1
  In  In71  1  0.66154126  0.00351601  0.32066623  1
  Te  Te72  1  0.13546449  0.10681149  0.09773439  1
  Te  Te73  1  0.05875049  0.11478507  0.42823137  1
  Te  Te74  1  0.09343659  0.09200498  0.75990692  1
  Te  Te75  1  0.11561179  0.41505315  0.08985229  1
  Te  Te76  1  0.09913052  0.45150388  0.40502407  1
  Te  Te77  1  0.10980764  0.42022734  0.72438575  1
  Te  Te78  1  0.09352633  0.73921396  0.09232139  1
  Te  Te79  1  0.08284120  0.74395023  0.42072641  1
  Te  Te80  1  0.10384455  0.70690172  0.76105343  1
  Te  Te81  1  0.40028033  0.11350939  0.10398978  1
  Te  Te82  1  0.38571922  0.09041688  0.37471686  1
  Te  Te83  1  0.39196068  0.11952610  0.76298843  1
  Te  Te84  1  0.40078353  0.42607354  0.09050522  1
  Te  Te85  1  0.40493627  0.44299167  0.41051214  1
  Te  Te86  1  0.41014567  0.38181184  0.77413572  1
  Te  Te87  1  0.42153933  0.71385204  0.09341494  1
  Te  Te88  1  0.41395617  0.74253308  0.40681471  1
  Te  Te89  1  0.37979538  0.70703163  0.72718814  1
  Te  Te90  1  0.75744235  0.09442211  0.07529099  1
  Te  Te91  1  0.74617879  0.08755255  0.41719360  1
  Te  Te92  1  0.77188204  0.15568359  0.76997327  1
  Te  Te93  1  0.72240848  0.44307889  0.06831712  1
  Te  Te94  1  0.76277802  0.40758579  0.42587195  1
  Te  Te95  1  0.76727800  0.42785599  0.75872708  1
  Te  Te96  1  0.74453456  0.73712577  0.08270070  1
  Te  Te97  1  0.74354271  0.70329557  0.39992157  1
  Te  Te98  1  0.75931519  0.74889057  0.75686179  1
  Te  Te99  1  0.10974810  0.27691966  0.24647342  1
  Te  Te100  1  0.07429682  0.25618886  0.59244346  1
  Te  Te101  1  0.10255389  0.25253705  0.91537742  1
  Te  Te102  1  0.10467714  0.58896960  0.24574596  1
  Te  Te103  1  0.09901994  0.53111400  0.60860390  1
  Te  Te104  1  0.10482472  0.54458045  0.91701439  1
  Te  Te105  1  0.10027518  0.94316238  0.23090134  1
  Te  Te106  1  0.08421738  0.90949156  0.57784777  1
  Te  Te107  1  0.07777176  0.91435275  0.92554046  1
  Te  Te108  1  0.39506736  0.25353763  0.25349254  1
  Te  Te109  1  0.39627708  0.27523382  0.58640873  1
  Te  Te110  1  0.41672713  0.26471416  0.91680741  1
  Te  Te111  1  0.43337635  0.59133878  0.21235787  1
  Te  Te112  1  0.39013137  0.55988188  0.56762148  1
  Te  Te113  1  0.40985759  0.56855966  0.92073245  1
  Te  Te114  1  0.42490580  0.90651808  0.25404303  1
  Te  Te115  1  0.40907180  0.91047581  0.56922987  1
  Te  Te116  1  0.42446327  0.91543423  0.90704328  1
  Te  Te117  1  0.75466822  0.24913829  0.24345549  1
  Te  Te118  1  0.75894643  0.27047830  0.58960635  1
  Te  Te119  1  0.72558641  0.24953966  0.88685170  1
  Te  Te120  1  0.72676913  0.59207543  0.27687827  1
  Te  Te121  1  0.76161536  0.57210878  0.58713383  1
  Te  Te122  1  0.76042555  0.54820700  0.95496754  1
  Te  Te123  1  0.73176601  0.89941975  0.23318496  1
  Te  Te124  1  0.74407560  0.92759964  0.59031960  1
  Te  Te125  1  0.74366625  0.93509630  0.93098428  1
  Te  Te126  1  0.23207495  0.22869213  0.06670400  1
  Te  Te127  1  0.24349401  0.26559562  0.42583145  1
  Te  Te128  1  0.28206163  0.29051203  0.75918285  1
  Te  Te129  1  0.21863815  0.56245800  0.11769492  1
  Te  Te130  1  0.24447432  0.55425239  0.41138889  1
  Te  Te131  1  0.21826746  0.55274449  0.71796597  1
  Te  Te132  1  0.25890488  0.92604775  0.07516910  1
  Te  Te133  1  0.25415229  0.94077322  0.39175555  1
  Te  Te134  1  0.25455922  0.91627249  0.75477397  1
  Te  Te135  1  0.59552534  0.27733844  0.06945374  1
  Te  Te136  1  0.55976557  0.23645990  0.40522073  1
  Te  Te137  1  0.58760669  0.24510220  0.77388760  1
  Te  Te138  1  0.57301202  0.57672344  0.13608635  1
  Te  Te139  1  0.56541780  0.57290013  0.39184592  1
  Te  Te140  1  0.57259365  0.58674057  0.74185029  1
  Te  Te141  1  0.59606164  0.91965820  0.08591738  1
  Te  Te142  1  0.57884767  0.91146361  0.41271365  1
  Te  Te143  1  0.57673086  0.92918123  0.73486302  1
  Te  Te144  1  0.92220753  0.25266429  0.09739622  1
  Te  Te145  1  0.91792829  0.28124469  0.44652710  1
  Te  Te146  1  0.89411878  0.24061414  0.71834521  1
  Te  Te147  1  0.92867623  0.56412062  0.08157589  1
  Te  Te148  1  0.92724780  0.55255074  0.42880712  1
  Te  Te149  1  0.92790504  0.58512373  0.73488080  1
  Te  Te150  1  0.91813267  0.91052881  0.07736220  1
  Te  Te151  1  0.92462491  0.89465363  0.43122221  1
  Te  Te152  1  0.91130958  0.91882788  0.74927121  1
  Te  Te153  1  0.25943369  0.06271318  0.26865429  1
  Te  Te154  1  0.23905968  0.08811079  0.59198743  1
  Te  Te155  1  0.25166778  0.12397923  0.92682827  1
  Te  Te156  1  0.23713067  0.44358723  0.21928716  1
  Te  Te157  1  0.23412378  0.42960947  0.61938161  1
  Te  Te158  1  0.22086879  0.42798964  0.92348021  1
  Te  Te159  1  0.24900832  0.74003934  0.25055238  1
  Te  Te160  1  0.24592886  0.73273685  0.57616396  1
  Te  Te161  1  0.23809543  0.71468778  0.90493009  1
  Te  Te162  1  0.56096638  0.09556281  0.25363518  1
  Te  Te163  1  0.56963576  0.08569232  0.58339212  1
  Te  Te164  1  0.59315670  0.08517963  0.92892243  1
  Te  Te165  1  0.58141627  0.41977526  0.25233035  1
  Te  Te166  1  0.57913143  0.42321724  0.58697300  1
  Te  Te167  1  0.56275435  0.40438714  0.90685024  1
  Te  Te168  1  0.61846888  0.70477809  0.23785732  1
  Te  Te169  1  0.58009318  0.75813355  0.57481055  1
  Te  Te170  1  0.58737528  0.75446418  0.91851880  1
  Te  Te171  1  0.91866876  0.07820465  0.26233529  1
  Te  Te172  1  0.90659430  0.10708240  0.60027029  1
  Te  Te173  1  0.93059552  0.09489965  0.91822343  1
  Te  Te174  1  0.90326595  0.41910825  0.26027777  1
  Te  Te175  1  0.96520822  0.37909716  0.57535934  1
  Te  Te176  1  0.91472005  0.39734253  0.90726789  1
  Te  Te177  1  0.90992624  0.74172070  0.24625530  1
  Te  Te178  1  0.95267862  0.73034711  0.59336660  1
  Te  Te179  1  0.93152222  0.73799957  0.90639217  1
