# generated using pymatgen
data_In2Te3
_symmetry_space_group_name_H-M   'P 1'
_cell_length_a   18.81086613
_cell_length_b   18.81151441
_cell_length_c   18.80743786
_cell_angle_alpha   89.99372440
_cell_angle_beta   90.04310173
_cell_angle_gamma   89.98046430
_symmetry_Int_Tables_number   1
_chemical_formula_structural   In2Te3
_chemical_formula_sum   'In72 Te108'
_cell_volume   6655.21418695
_cell_formula_units_Z   36
loop_
 _symmetry_equiv_pos_site_id
 _symmetry_equiv_pos_as_xyz
  1  'x, y, z'
loop_
 _atom_site_type_symbol
 _atom_site_label
 _atom_site_symmetry_multiplicity
 _atom_site_fract_x
 _atom_site_fract_y
 _atom_site_fract_z
 _atom_site_occupancy
  In  In0  1  0.51428439  0.49335347  0.65273884  1
  In  In1  1  0.69956516  0.80447444  0.81037224  1
  In  In2  1  0.01526052  -0.01634719  0.03015127  1
  In  In3  1  0.85085624  0.50912097  -0.00600909  1
  In  In4  1  0.33243630  0.36284002  0.01699660  1
  In  In5  1  0.14590606  -0.02627743  0.17603451  1
  In  In6  1  -0.00818148  0.18224231  0.83815404  1
  In  In7  1  0.68294103  0.80175342  0.49957649  1
  In  In8  1  0.66561237  0.17789086  0.17577436  1
  In  In9  1  0.67529913  0.49002117  0.82797837  1
  In  In10  1  0.48187272  0.00466581  0.49327626  1
  In  In11  1  -0.00535457  0.81955397  0.81241671  1
  In  In12  1  0.32261667  0.51472529  0.83425511  1
  In  In13  1  0.16121905  0.34566981  0.49478715  1
  In  In14  1  -0.01190689  0.51076256  0.47877352  1
  In  In15  1  0.34161823  -0.00260542  0.32723784  1
  In  In16  1  0.16110276  0.00197337  0.49157153  1
  In  In17  1  0.51619889  0.66905607  0.83270827  1
  In  In18  1  0.30897742  0.64927171  0.03027588  1
  In  In19  1  0.01530400  0.50836145  0.18609925  1
  In  In20  1  0.17702658  -0.00767862  0.81626815  1
  In  In21  1  0.15987007  0.17865493  0.32923342  1
  In  In22  1  0.82651944  0.34484723  0.17086583  1
  In  In23  1  0.00730991  0.34849177  0.64936012  1
  In  In24  1  -0.01604613  0.32385922  0.00956349  1
  In  In25  1  0.52331642  0.16828511  0.00545217  1
  In  In26  1  0.33026693  0.65764338  0.67059339  1
  In  In27  1  0.49475893  0.68932713  0.17183275  1
  In  In28  1  0.65824046  0.86362955  0.14145145  1
  In  In29  1  0.67188512  0.30913143  0.00035637  1
  In  In30  1  -0.00384247  0.33625389  0.35093390  1
  In  In31  1  0.33246666  0.49526365  0.49655847  1
  In  In32  1  -0.00758679  0.66404795  0.66574934  1
  In  In33  1  0.83956168  -0.01933724  0.85242968  1
  In  In34  1  0.34096278  0.16095507  0.80841993  1
  In  In35  1  0.65417552  0.50589895  0.19059377  1
  In  In36  1  0.01057965  0.50777239  0.83002725  1
  In  In37  1  0.65519041  0.01633036  0.33044304  1
  In  In38  1  0.68558767  0.51743924  0.52142109  1
  In  In39  1  0.14518689  0.81451686  0.34161102  1
  In  In40  1  0.01348705  -0.00951516  0.65228259  1
  In  In41  1  0.15208783  0.66735768  0.50064751  1
  In  In42  1  0.67658159  0.67911975  0.00813917  1
  In  In43  1  0.00498417  0.66604250  -0.00480751  1
  In  In44  1  0.16955476  0.35453845  0.16528755  1
  In  In45  1  0.17816220  0.18328180  0.64135549  1
  In  In46  1  0.65389352  0.34404038  0.67085502  1
  In  In47  1  0.66857669  0.00518880  0.67410340  1
  In  In48  1  0.65518115  0.18353622  0.45931234  1
  In  In49  1  0.17878000  0.80982292  -0.00934813  1
  In  In50  1  0.80087112  0.17040834  0.00206544  1
  In  In51  1  0.84000053  0.83104961  0.00947543  1
  In  In52  1  0.82640499  0.34137283  0.48437696  1
  In  In53  1  0.83268915  0.15019123  0.65801221  1
  In  In54  1  0.35603168  0.00821737  -0.00880358  1
  In  In55  1  0.35269657  0.19111135  0.18663882  1
  In  In56  1  0.49748401  0.01363924  0.85038975  1
  In  In57  1  0.49984720  0.18314470  0.66366764  1
  In  In58  1  0.16522779  0.83351938  0.66947258  1
  In  In59  1  0.81340182  -0.00441363  0.48493892  1
  In  In60  1  0.50521930  0.83803129  0.64102742  1
  In  In61  1  0.49948405  0.32724969  0.83958906  1
  In  In62  1  0.13490751  0.16540163  0.00627219  1
  In  In63  1  0.83037646  0.82078245  0.33394099  1
  In  In64  1  -0.02309904  0.83336950  0.16861464  1
  In  In65  1  0.33478968  0.67518217  0.34303484  1
  In  In66  1  0.50492670  0.48366324  0.34718664  1
  In  In67  1  0.46427607  0.48084318  0.03414931  1
  In  In68  1  0.68546319  0.65415282  0.34302211  1
  In  In69  1  0.34484666  0.83382131  0.17488397  1
  In  In70  1  0.49249702  0.82350675  0.34451269  1
  In  In71  1  0.33449410  0.31972727  0.64499277  1
  Te  Te72  1  0.06310104  0.09729596  0.12188458  1
  Te  Te73  1  0.06655939  0.08508289  0.40515970  1
  Te  Te74  1  0.08209634  0.09241769  0.74623208  1
  Te  Te75  1  0.07692598  0.42841187  0.06910154  1
  Te  Te76  1  0.09687658  0.44136867  0.39488469  1
  Te  Te77  1  0.09346541  0.41535372  0.74755424  1
  Te  Te78  1  0.08552334  0.75162990  0.09464052  1
  Te  Te79  1  0.04631796  0.72669432  0.41250648  1
  Te  Te80  1  0.10286281  0.72930454  0.76111988  1
  Te  Te81  1  0.42792592  0.09106334  0.09644023  1
  Te  Te82  1  0.41276898  0.10216449  0.40516255  1
  Te  Te83  1  0.42287530  0.06649785  0.72461182  1
  Te  Te84  1  0.40423939  0.39968503  0.14511639  1
  Te  Te85  1  0.39757828  0.39709817  0.40571623  1
  Te  Te86  1  0.41748327  0.41560641  0.74592031  1
  Te  Te87  1  0.41408159  0.75674810  0.06208432  1
  Te  Te88  1  0.41245655  0.75156407  0.44366575  1
  Te  Te89  1  0.42295860  0.75133692  0.74649376  1
  Te  Te90  1  0.72682293  0.07591374  0.08653286  1
  Te  Te91  1  0.76701222  0.10468607  0.38848951  1
  Te  Te92  1  0.75651305  0.08253581  0.77150405  1
  Te  Te93  1  0.74208345  0.43034296  0.07315942  1
  Te  Te94  1  0.74409734  0.43882789  0.41048600  1
  Te  Te95  1  0.76242645  0.42133700  0.73189132  1
  Te  Te96  1  0.75995416  0.75050433  0.11173263  1
  Te  Te97  1  0.79727400  0.70548385  0.44460261  1
  Te  Te98  1  0.77735270  0.72398823  0.70804151  1
  Te  Te99  1  0.07133187  0.26478709  0.23836143  1
  Te  Te100  1  0.06708616  0.24201550  0.55687180  1
  Te  Te101  1  0.09096436  0.27322223  0.90838886  1
  Te  Te102  1  0.13169517  0.58846176  0.22820086  1
  Te  Te103  1  0.07991707  0.56634321  0.58792498  1
  Te  Te104  1  0.09998858  0.57620065  0.92828269  1
  Te  Te105  1  0.04318800  0.92429769  0.28273756  1
  Te  Te106  1  0.07726374  0.89022600  0.55811568  1
  Te  Te107  1  0.08021526  0.90903264  0.91182293  1
  Te  Te108  1  0.42239930  0.25187221  0.30261366  1
  Te  Te109  1  0.42474143  0.24716103  0.55534539  1
  Te  Te110  1  0.40550206  0.24159706  0.92295529  1
  Te  Te111  1  0.42666858  0.58699538  0.25810126  1
  Te  Te112  1  0.42567635  0.58769218  0.57310896  1
  Te  Te113  1  0.42542740  0.58600412  0.92453370  1
  Te  Te114  1  0.45209966  0.92668753  0.23613051  1
  Te  Te115  1  0.39803808  0.91164733  0.56983884  1
  Te  Te116  1  0.40642794  0.90763257  0.89724636  1
  Te  Te117  1  0.76401270  0.24773936  0.26257522  1
  Te  Te118  1  0.73906913  0.24311921  0.57908088  1
  Te  Te119  1  0.76402687  0.26479499  0.89522960  1
  Te  Te120  1  0.76794199  0.57993397  0.24592637  1
  Te  Te121  1  0.77358902  0.60564356  0.60322971  1
  Te  Te122  1  0.75490978  0.59400802  0.90960093  1
  Te  Te123  1  0.74674682  0.92211588  0.25279593  1
  Te  Te124  1  0.74963380  0.90696961  0.59154480  1
  Te  Te125  1  0.73361029  0.90425236  0.92826712  1
  Te  Te126  1  0.24584962  0.24059417  0.08140426  1
  Te  Te127  1  0.24999820  0.26525360  0.40803630  1
  Te  Te128  1  0.24247460  0.26329843  0.75528110  1
  Te  Te129  1  0.24342571  0.55681885  0.12674903  1
  Te  Te130  1  0.23808098  0.57849599  0.40988146  1
  Te  Te131  1  0.22827709  0.57585360  0.73887687  1
  Te  Te132  1  0.25419016  0.92121459  0.07688048  1
  Te  Te133  1  0.24903578  0.90672477  0.40741488  1
  Te  Te134  1  0.27060549  0.90726089  0.74374153  1
  Te  Te135  1  0.56553750  0.27724622  0.10164513  1
  Te  Te136  1  0.57040107  0.25197136  0.35726110  1
  Te  Te137  1  0.59674179  0.23604542  0.76768435  1
  Te  Te138  1  0.57755651  0.58627983  0.08143546  1
  Te  Te139  1  0.57926472  0.58992523  0.42863706  1
  Te  Te140  1  0.60061346  0.58784671  0.73560398  1
  Te  Te141  1  0.53295479  0.92064357  0.09582674  1
  Te  Te142  1  0.59509111  0.91361657  0.42871361  1
  Te  Te143  1  0.59127574  0.90396156  0.75671850  1
  Te  Te144  1  0.90241188  0.23170875  0.09842785  1
  Te  Te145  1  0.91170958  0.23882702  0.42138506  1
  Te  Te146  1  0.91286949  0.25687650  0.73224092  1
  Te  Te147  1  0.91791575  0.59483227  0.09862308  1
  Te  Te148  1  0.91408803  0.61099427  0.39862532  1
  Te  Te149  1  0.90627483  0.58675042  0.75993007  1
  Te  Te150  1  0.88946158  0.94167815  0.10403304  1
  Te  Te151  1  0.91161306  0.90116911  0.42799747  1
  Te  Te152  1  0.90689654  0.91408669  0.73214154  1
  Te  Te153  1  0.24711687  0.08084909  0.23690753  1
  Te  Te154  1  0.25581870  0.07915939  0.57436966  1
  Te  Te155  1  0.23920939  0.09019273  0.91678475  1
  Te  Te156  1  0.27146129  0.43944159  0.23054491  1
  Te  Te157  1  0.23957810  0.42797638  0.59709585  1
  Te  Te158  1  0.24029853  0.43578255  0.92877904  1
  Te  Te159  1  0.24157028  0.74604980  0.24249938  1
  Te  Te160  1  0.25382390  0.75116138  0.57490276  1
  Te  Te161  1  0.26255354  0.72199109  0.90934843  1
  Te  Te162  1  0.56239868  0.10611409  0.25877332  1
  Te  Te163  1  0.59631777  0.08842261  0.56838092  1
  Te  Te164  1  0.60692671  0.08092760  0.92176841  1
  Te  Te165  1  0.60131435  0.39407259  0.27273410  1
  Te  Te166  1  0.57908891  0.40071781  0.55225243  1
  Te  Te167  1  0.57465294  0.42604143  0.92683581  1
  Te  Te168  1  0.60255630  0.75609529  0.25902559  1
  Te  Te169  1  0.58615321  0.72899420  0.58316880  1
  Te  Te170  1  0.59010038  0.76819673  0.92104124  1
  Te  Te171  1  0.98417392  0.06671243  0.27529186  1
  Te  Te172  1  0.92374186  0.07547052  0.56351000  1
  Te  Te173  1  0.93132613  0.07631661  0.93074341  1
  Te  Te174  1  0.91023018  0.43057420  0.26562568  1
  Te  Te175  1  0.90237586  0.43440756  0.57919718  1
  Te  Te176  1  0.91104722  0.40509862  0.90394209  1
  Te  Te177  1  0.92639329  0.72893112  0.26195825  1
  Te  Te178  1  0.88703169  0.74369610  0.59794736  1
  Te  Te179  1  0.90447059  0.74001109  0.90552005  1
