# generated using pymatgen
data_In2Te3
_symmetry_space_group_name_H-M   'P 1'
_cell_length_a   18.76634929
_cell_length_b   18.77161457
_cell_length_c   18.76903125
_cell_angle_alpha   90.01015842
_cell_angle_beta   90.02595363
_cell_angle_gamma   90.03123660
_symmetry_Int_Tables_number   1
_chemical_formula_structural   In2Te3
_chemical_formula_sum   'In72 Te108'
_cell_volume   6611.85262864
_cell_formula_units_Z   36
loop_
 _symmetry_equiv_pos_site_id
 _symmetry_equiv_pos_as_xyz
  1  'x, y, z'
loop_
 _atom_site_type_symbol
 _atom_site_label
 _atom_site_symmetry_multiplicity
 _atom_site_fract_x
 _atom_site_fract_y
 _atom_site_fract_z
 _atom_site_occupancy
  In  In0  1  0.82160889  0.68818258  0.49432435  1
  In  In1  1  0.50372059  0.68318826  0.83809562  1
  In  In2  1  0.33825252  0.34398095  0.01855237  1
  In  In3  1  0.82848672  0.68733392  0.83216916  1
  In  In4  1  0.49759389  0.33299415  0.17889253  1
  In  In5  1  -0.00398373  -0.01702207  0.33974698  1
  In  In6  1  0.16239873  0.67805353  0.18559190  1
  In  In7  1  0.00847716  0.50921799  0.50003326  1
  In  In8  1  0.15336546  -0.01842844  0.50437192  1
  In  In9  1  0.17452992  -0.02525336  0.14881985  1
  In  In10  1  0.17156090  0.49798898  -0.01144083  1
  In  In11  1  0.84191552  0.65897893  0.17743997  1
  In  In12  1  0.35259611  0.19081028  0.49701253  1
  In  In13  1  0.32542811  -0.00531452  0.67745968  1
  In  In14  1  0.15936710  0.66395073  0.81363775  1
  In  In15  1  0.66494018  0.14701791  0.81956836  1
  In  In16  1  0.66129563  0.52706867  0.17176546  1
  In  In17  1  0.82582360  0.50504703  0.32910027  1
  In  In18  1  0.36820860  0.53064417  0.18818764  1
  In  In19  1  0.80984990  0.51007664  0.66718074  1
  In  In20  1  0.47328605  0.17765952  0.64166105  1
  In  In21  1  0.68698229  -0.03091305  0.65546781  1
  In  In22  1  0.02495133  0.32435109  -0.00456881  1
  In  In23  1  0.48904600  -0.03815742  0.86766670  1
  In  In24  1  0.00858371  0.32962100  0.66284228  1
  In  In25  1  0.66451350  0.16996993  0.50350287  1
  In  In26  1  0.15854776  0.00495123  0.80912653  1
  In  In27  1  -0.02108389  0.50347111  0.83012272  1
  In  In28  1  0.52412903  0.36328077  0.85352872  1
  In  In29  1  0.82824191  0.14253232  0.35793862  1
  In  In30  1  0.81816060  0.83841037  0.33207032  1
  In  In31  1  0.16099395  0.16673791  -0.02941518  1
  In  In32  1  0.32609987  0.49559825  0.84562563  1
  In  In33  1  0.35525564  0.66818341  0.00856937  1
  In  In34  1  0.51095099  0.66379970  0.49371088  1
  In  In35  1  0.81751677  0.32587100  0.48750794  1
  In  In36  1  0.34574916  0.82023654  0.49563642  1
  In  In37  1  0.65653165  0.33593101  0.64717323  1
  In  In38  1  0.52023548  -0.00379796  0.17174333  1
  In  In39  1  0.33645394  0.00082738  0.34731101  1
  In  In40  1  -0.00392237  0.83709786  0.16317262  1
  In  In41  1  -0.00803535  -0.01338185  -0.01016138  1
  In  In42  1  0.67128073  0.68342437  0.67362296  1
  In  In43  1  0.49103000  0.82706837  0.67202132  1
  In  In44  1  0.65869799  0.66788055  -0.00746935  1
  In  In45  1  0.49536405  0.50947165  0.65331340  1
  In  In46  1  0.66541835  0.33525958  0.32037447  1
  In  In47  1  0.82214991  0.35893940  0.15501925  1
  In  In48  1  0.37305394  0.17045658  0.17518046  1
  In  In49  1  0.18299416  0.15867965  0.35537137  1
  In  In50  1  -0.00393642  0.80620228  0.50068459  1
  In  In51  1  0.64396421  0.82120839  0.19345891  1
  In  In52  1  0.66518787  0.15526712  0.16872735  1
  In  In53  1  0.80908147  0.15205435  0.00136241  1
  In  In54  1  0.17566428  0.65623333  0.49053879  1
  In  In55  1  0.16562604  0.49645224  0.65289685  1
  In  In56  1  0.85079091  -0.01574559  0.82886455  1
  In  In57  1  0.83180014  0.83432934  -0.01502615  1
  In  In58  1  -0.02322936  0.33820611  0.34562213  1
  In  In59  1  0.17439617  0.83952515  -0.01013817  1
  In  In60  1  0.50374106  0.16107126  -0.00285122  1
  In  In61  1  -0.00743388  0.16410772  0.18299927  1
  In  In62  1  0.32230491  0.15557175  0.82727195  1
  In  In63  1  0.16194014  0.83050864  0.66451722  1
  In  In64  1  0.53811829  -0.02313800  0.46915112  1
  In  In65  1  0.31405317  0.33669116  0.64686007  1
  In  In66  1  0.83071676  0.32422452  0.82314093  1
  In  In67  1  0.17772115  0.34858622  0.16745364  1
  In  In68  1  0.82195470  0.52554646  0.01345584  1
  In  In69  1  0.35604506  0.78991830  0.18305951  1
  In  In70  1  0.18202317  0.51566718  0.33095294  1
  In  In71  1  0.13137935  0.15308234  0.64520564  1
  Te  Te72  1  0.08014571  0.08119552  0.08511270  1
  Te  Te73  1  0.07044467  0.08528024  0.42671297  1
  Te  Te74  1  0.04607678  0.09376915  0.75752922  1
  Te  Te75  1  0.07631612  0.43249805  0.09046862  1
  Te  Te76  1  0.08945066  0.41613298  0.41296939  1
  Te  Te77  1  0.08631158  0.42003931  0.75981323  1
  Te  Te78  1  0.08347561  0.74955580  0.07445095  1
  Te  Te79  1  0.09202393  0.74611135  0.40701740  1
  Te  Te80  1  0.06449901  0.75496875  0.74626021  1
  Te  Te81  1  0.41310378  0.06638396  0.07549598  1
  Te  Te82  1  0.43701729  0.08692190  0.42090129  1
  Te  Te83  1  0.43310961  0.07356496  0.75984629  1
  Te  Te84  1  0.43667194  0.43750273  0.08416797  1
  Te  Te85  1  0.41260997  0.35476281  0.41532619  1
  Te  Te86  1  0.41304263  0.40719450  0.75120298  1
  Te  Te87  1  0.46123785  0.74165900  0.08595886  1
  Te  Te88  1  0.44805014  0.76767208  0.39884587  1
  Te  Te89  1  0.39977343  0.74370468  0.75134603  1
  Te  Te90  1  0.73889596  0.05662484  0.08784700  1
  Te  Te91  1  0.74862086  0.05420633  0.44966174  1
  Te  Te92  1  0.76560336  0.07587486  0.73195985  1
  Te  Te93  1  0.71190218  0.41915011  0.06614189  1
  Te  Te94  1  0.73135792  0.43196325  0.42305511  1
  Te  Te95  1  0.72882403  0.41718327  0.75619636  1
  Te  Te96  1  0.75100164  0.74953397  0.09366350  1
  Te  Te97  1  0.71749577  0.75994558  0.41214647  1
  Te  Te98  1  0.75365604  0.78285168  0.74581178  1
  Te  Te99  1  0.08702981  0.25760872  0.25864512  1
  Te  Te100  1  0.09905943  0.27074605  0.56222050  1
  Te  Te101  1  0.07058832  0.24213437  0.88221954  1
  Te  Te102  1  0.07416679  0.58281386  0.25591381  1
  Te  Te103  1  0.07472219  0.60527261  0.59664675  1
  Te  Te104  1  0.07267109  0.58851337  0.91690498  1
  Te  Te105  1  0.09789872  0.90175474  0.25884789  1
  Te  Te106  1  0.05280048  0.93222172  0.60922639  1
  Te  Te107  1  0.07458441  0.90460596  0.89313014  1
  Te  Te108  1  0.41333222  0.26367217  0.28518145  1
  Te  Te109  1  0.44746526  0.30793935  0.55629354  1
  Te  Te110  1  0.41257721  0.25204737  0.91332638  1
  Te  Te111  1  0.44985508  0.61332002  0.28383695  1
  Te  Te112  1  0.40386032  0.58495533  0.56373660  1
  Te  Te113  1  0.43401104  0.57065870  0.92060725  1
  Te  Te114  1  0.41796617  0.91461836  0.25364408  1
  Te  Te115  1  0.42131153  0.93248071  0.57195526  1
  Te  Te116  1  0.37509609  0.90583729  0.93776253  1
  Te  Te117  1  0.77721007  0.25007137  0.25580292  1
  Te  Te118  1  0.76337842  0.23680769  0.59948288  1
  Te  Te119  1  0.73100746  0.24931076  0.91390286  1
  Te  Te120  1  0.73272945  0.61328715  0.27562332  1
  Te  Te121  1  0.72767485  0.58817208  0.56658722  1
  Te  Te122  1  0.74050945  0.57976728  0.89727614  1
  Te  Te123  1  0.72383388  0.93396312  0.26179664  1
  Te  Te124  1  0.76735926  0.92512828  0.54019354  1
  Te  Te125  1  0.74251952  0.92328167  0.90826000  1
  Te  Te126  1  0.24776113  0.23741483  0.08587153  1
  Te  Te127  1  0.25603963  0.27277158  0.41770787  1
  Te  Te128  1  0.23590920  0.23845154  0.73491669  1
  Te  Te129  1  0.25412975  0.57902781  0.08930773  1
  Te  Te130  1  0.28352286  0.57616616  0.42344516  1
  Te  Te131  1  0.26344629  0.58150438  0.73742844  1
  Te  Te132  1  0.28597846  0.89393585  0.08219443  1
  Te  Te133  1  0.24249038  0.89925562  0.41299170  1
  Te  Te134  1  0.25941339  0.89406506  0.76660127  1
  Te  Te135  1  0.58792757  0.25479722  0.08242634  1
  Te  Te136  1  0.58299046  0.24967335  0.40923647  1
  Te  Te137  1  0.57201720  0.24882680  0.74903711  1
  Te  Te138  1  0.56365973  0.61221986  0.09605449  1
  Te  Te139  1  0.55268824  0.56378530  0.39022863  1
  Te  Te140  1  0.58477040  0.58391579  0.75171499  1
  Te  Te141  1  0.57882281  0.89415693  0.08099215  1
  Te  Te142  1  0.61804311  0.89439306  0.37365707  1
  Te  Te143  1  0.58524555  0.91295701  0.75524043  1
  Te  Te144  1  0.91470075  0.25117894  0.08300993  1
  Te  Te145  1  0.92557954  0.22810059  0.44025305  1
  Te  Te146  1  0.90852313  0.24208748  0.72924902  1
  Te  Te147  1  0.93295535  0.59322587  0.08169469  1
  Te  Te148  1  0.91633552  0.59466808  0.41420788  1
  Te  Te149  1  0.91222817  0.60024747  0.73392028  1
  Te  Te150  1  0.89614466  0.92646762  0.09228352  1
  Te  Te151  1  0.90321885  0.91889597  0.44267327  1
  Te  Te152  1  0.92903245  0.93889234  0.71063154  1
  Te  Te153  1  0.24804684  0.08046840  0.24112715  1
  Te  Te154  1  0.25608358  0.08213768  0.57188677  1
  Te  Te155  1  0.25533989  0.05753053  0.92365265  1
  Te  Te156  1  0.27916689  0.42257488  0.25262854  1
  Te  Te157  1  0.26180948  0.44070891  0.55447124  1
  Te  Te158  1  0.23866794  0.38668128  0.90902574  1
  Te  Te159  1  0.26014476  0.73469944  0.28061460  1
  Te  Te160  1  0.25968731  0.73982437  0.59114316  1
  Te  Te161  1  0.25509488  0.73338085  0.91482274  1
  Te  Te162  1  0.57338533  0.09674360  0.26768260  1
  Te  Te163  1  0.57959600  0.07547500  0.59279841  1
  Te  Te164  1  0.59372304  0.06230172  0.92563582  1
  Te  Te165  1  0.56987358  0.44069389  0.26413425  1
  Te  Te166  1  0.58966948  0.43712368  0.56233010  1
  Te  Te167  1  0.60558040  0.43519330  0.94869242  1
  Te  Te168  1  0.54994575  0.73722193  0.27683253  1
  Te  Te169  1  0.59159130  0.76934179  0.57437689  1
  Te  Te170  1  0.58958597  0.77530535  0.91656431  1
  Te  Te171  1  0.90079917  0.06192852  0.24912280  1
  Te  Te172  1  0.97100591  0.06874604  0.62226852  1
  Te  Te173  1  0.92041250  0.09792516  0.91396595  1
  Te  Te174  1  0.92596005  0.43498110  0.23756994  1
  Te  Te175  1  0.90427658  0.42383355  0.57828123  1
  Te  Te176  1  0.90536049  0.41281546  0.93132898  1
  Te  Te177  1  0.92580144  0.75087994  0.26781421  1
  Te  Te178  1  0.90016295  0.75574227  0.60046945  1
  Te  Te179  1  0.93252805  0.75320355  0.91513132  1
