# generated using pymatgen
data_In2Te3
_symmetry_space_group_name_H-M   'P 1'
_cell_length_a   18.95995321
_cell_length_b   18.93764977
_cell_length_c   18.91886901
_cell_angle_alpha   89.96913630
_cell_angle_beta   90.04143298
_cell_angle_gamma   90.19370158
_symmetry_Int_Tables_number   1
_chemical_formula_structural   In2Te3
_chemical_formula_sum   'In72 Te108'
_cell_volume   6792.90989656
_cell_formula_units_Z   36
loop_
 _symmetry_equiv_pos_site_id
 _symmetry_equiv_pos_as_xyz
  1  'x, y, z'
loop_
 _atom_site_type_symbol
 _atom_site_label
 _atom_site_symmetry_multiplicity
 _atom_site_fract_x
 _atom_site_fract_y
 _atom_site_fract_z
 _atom_site_occupancy
  In  In0  1  0.82283957  0.68680164  0.15864222  1
  In  In1  1  0.35655380  0.53318631  0.16193242  1
  In  In2  1  0.18986213  0.53769205  0.35616065  1
  In  In3  1  0.83842228  0.32849288  0.17088379  1
  In  In4  1  0.31913634  0.37925574  0.03038354  1
  In  In5  1  -0.01526880  -0.00777752  0.66178906  1
  In  In6  1  0.50030531  0.83836073  0.33521216  1
  In  In7  1  0.49471036  -0.02397263  0.86242430  1
  In  In8  1  0.49183434  0.15914629  0.64988987  1
  In  In9  1  0.33937323  0.80662008  0.50402667  1
  In  In10  1  0.14469541  -0.00572301  0.50692346  1
  In  In11  1  0.51004426  0.34721166  0.48411512  1
  In  In12  1  0.50716853  0.49483141  0.32891865  1
  In  In13  1  0.15726594  0.31156633  0.80668907  1
  In  In14  1  0.47057690  0.35075463  0.82277407  1
  In  In15  1  0.30627906  0.84110625  0.81864590  1
  In  In16  1  0.50614191  0.66964599  0.83482108  1
  In  In17  1  0.31621661  -0.01933176  -0.00214329  1
  In  In18  1  0.67898207  0.51293355  0.16528310  1
  In  In19  1  0.02575620  0.34292656  0.64541738  1
  In  In20  1  0.14732445  0.53425519  -0.03159774  1
  In  In21  1  0.67159328  0.34003262  0.70218442  1
  In  In22  1  0.34461638  -0.01164303  0.34298272  1
  In  In23  1  0.17202514  0.65469654  0.16293933  1
  In  In24  1  0.33112683  0.33142691  0.32492559  1
  In  In25  1  0.67697415  0.53153854  0.83083121  1
  In  In26  1  -0.02057804  0.82370689  0.83719934  1
  In  In27  1  0.30041320  0.34533652  0.65291950  1
  In  In28  1  0.82382262  0.14332531  0.04068429  1
  In  In29  1  -0.00928411  0.84656288  0.16634114  1
  In  In30  1  0.84099287  0.33853833  0.85304057  1
  In  In31  1  0.15767837  0.16753638  0.65380340  1
  In  In32  1  0.67380147  0.14390792  0.50519909  1
  In  In33  1  0.82011583  0.14367496  0.68449534  1
  In  In34  1  0.82510609  0.83981239  0.32250294  1
  In  In35  1  0.14644367  0.81322136  -0.02183822  1
  In  In36  1  0.82904013  -0.02239919  0.51501079  1
  In  In37  1  0.16546862  0.14148007  0.01035821  1
  In  In38  1  0.36247673  0.14521021  0.85416541  1
  In  In39  1  0.01377185  0.52081051  0.49629603  1
  In  In40  1  -0.01461460  -0.01087211  -0.00972652  1
  In  In41  1  0.69007309  0.49941187  0.50702807  1
  In  In42  1  0.37352922  0.78297247  0.15369022  1
  In  In43  1  0.85302767  0.51965883  -0.01690314  1
  In  In44  1  0.50872382  0.84115016  0.65627916  1
  In  In45  1  0.66034912  0.68286144  0.66388820  1
  In  In46  1  0.84992514  0.33303312  0.50941553  1
  In  In47  1  0.84684440  0.67559230  0.50640772  1
  In  In48  1  0.67081069  -0.01557326  0.31268931  1
  In  In49  1  0.32671750  0.65527652  0.64820706  1
  In  In50  1  0.66272071  0.31723955  -0.00121316  1
  In  In51  1  0.14704682  0.52706115  0.66694450  1
  In  In52  1  0.15302038  0.80936240  0.32775517  1
  In  In53  1  -0.00131153  0.82449849  0.49815181  1
  In  In54  1  0.83312183  0.67455221  0.84648878  1
  In  In55  1  0.14441288  -0.01059181  0.14499962  1
  In  In56  1  0.50730350  0.17142018  -0.00064668  1
  In  In57  1  0.00079763  0.35129795  0.32479641  1
  In  In58  1  0.67321837  0.12716618  0.80832491  1
  In  In59  1  0.15260636  0.36441451  0.16187985  1
  In  In60  1  0.53361844  -0.01496302  0.13553509  1
  In  In61  1  0.31627290  0.14431388  0.49582189  1
  In  In62  1  0.52714023  0.51197157  0.00974470  1
  In  In63  1  0.86263314  0.14776626  0.29737509  1
  In  In64  1  0.50266486  0.01198827  0.48751776  1
  In  In65  1  0.66583692  0.67932308  0.33422017  1
  In  In66  1  0.34026457  0.17266525  0.18214174  1
  In  In67  1  0.33251148  0.49021192  0.81698995  1
  In  In68  1  0.69206790  0.84293826  0.87979087  1
  In  In69  1  -0.01418641  0.17269580  0.84048279  1
  In  In70  1  0.70153019  0.32269181  0.34237672  1
  In  In71  1  0.15385145  0.15907175  0.33123598  1
  Te  Te72  1  0.04198413  0.09409630  0.09620122  1
  Te  Te73  1  0.06667960  0.08694335  0.42481306  1
  Te  Te74  1  0.06977233  0.08731419  0.74712891  1
  Te  Te75  1  0.07973349  0.43908960  0.05897351  1
  Te  Te76  1  0.09836687  0.42546099  0.41333580  1
  Te  Te77  1  0.07257435  0.42712961  0.76191430  1
  Te  Te78  1  0.07184637  0.74266335  0.08898525  1
  Te  Te79  1  0.08846380  0.72614044  0.43107564  1
  Te  Te80  1  0.05718854  0.71387224  0.77355294  1
  Te  Te81  1  0.40474375  0.07873225  0.07417217  1
  Te  Te82  1  0.42459005  0.10574311  0.39632716  1
  Te  Te83  1  0.42882707  0.05785261  0.74982236  1
  Te  Te84  1  0.44503666  0.42302441  0.10307159  1
  Te  Te85  1  0.39930592  0.42888715  0.42206408  1
  Te  Te86  1  0.41556836  0.43020327  0.70497961  1
  Te  Te87  1  0.46011114  0.70449166  0.06782890  1
  Te  Te88  1  0.41784874  0.73495847  0.40127588  1
  Te  Te89  1  0.41616374  0.75191836  0.74296095  1
  Te  Te90  1  0.73517138  0.03908047  0.09386990  1
  Te  Te91  1  0.76377536  0.07835362  0.40454098  1
  Te  Te92  1  0.76046560  0.02082225  0.74728505  1
  Te  Te93  1  0.75068439  0.42179602  0.06562891  1
  Te  Te94  1  0.78429612  0.42954133  0.41134354  1
  Te  Te95  1  0.77273258  0.43814551  0.75845627  1
  Te  Te96  1  0.71130567  0.77908835  0.12417359  1
  Te  Te97  1  0.74795298  0.76494951  0.42948396  1
  Te  Te98  1  0.74766079  0.76284557  0.75814904  1
  Te  Te99  1  0.08004115  0.25364500  0.23733683  1
  Te  Te100  1  0.08139286  0.24313133  0.55500935  1
  Te  Te101  1  0.08893901  0.24451428  0.92574171  1
  Te  Te102  1  0.09173356  0.57214082  0.25334191  1
  Te  Te103  1  0.07770462  0.62563492  0.58030794  1
  Te  Te104  1  0.04785582  0.61872652  0.89750705  1
  Te  Te105  1  0.07681062  0.92500596  0.26579344  1
  Te  Te106  1  0.08731836  0.89630419  0.60708245  1
  Te  Te107  1  0.08381838  0.92365558  0.89694755  1
  Te  Te108  1  0.43396377  0.26542999  0.24527532  1
  Te  Te109  1  0.41018799  0.25348587  0.56480407  1
  Te  Te110  1  0.40673278  0.27244269  0.93884993  1
  Te  Te111  1  0.42515215  0.60401468  0.27182611  1
  Te  Te112  1  0.37824208  0.57303868  0.53836877  1
  Te  Te113  1  0.42255514  0.56687462  0.91267812  1
  Te  Te114  1  0.41386887  0.91568101  0.22908721  1
  Te  Te115  1  0.41293710  0.92463622  0.57137361  1
  Te  Te116  1  0.40760164  0.87907065  0.93622599  1
  Te  Te117  1  0.74710119  0.22456029  0.23582794  1
  Te  Te118  1  0.74133911  0.25312910  0.59622380  1
  Te  Te119  1  0.74161833  0.23282124  0.89938806  1
  Te  Te120  1  0.76415527  0.58896497  0.26382674  1
  Te  Te121  1  0.76349220  0.58917873  0.60368166  1
  Te  Te122  1  0.73367097  0.60846027  0.94604882  1
  Te  Te123  1  0.78385913  0.94538024  0.22189099  1
  Te  Te124  1  0.72231253  0.94233691  0.60661435  1
  Te  Te125  1  0.75183695  0.94200496  0.97282415  1
  Te  Te126  1  0.24438618  0.24856429  0.08872083  1
  Te  Te127  1  0.24120023  0.24972787  0.41691506  1
  Te  Te128  1  0.27886858  0.23077674  0.75166570  1
  Te  Te129  1  0.25812563  0.58966677  0.05662849  1
  Te  Te130  1  0.26428394  0.61970053  0.45511441  1
  Te  Te131  1  0.24306762  0.59738784  0.76302762  1
  Te  Te132  1  0.23813637  0.88645593  0.08852589  1
  Te  Te133  1  0.24190508  0.90830899  0.41859715  1
  Te  Te134  1  0.26812780  0.96667154  0.75961030  1
  Te  Te135  1  0.59029792  0.23906962  0.09899049  1
  Te  Te136  1  0.59636515  0.24184879  0.41722328  1
  Te  Te137  1  0.56357008  0.23894733  0.75999667  1
  Te  Te138  1  0.57289075  0.60817344  0.11606769  1
  Te  Te139  1  0.59192937  0.57997470  0.42481038  1
  Te  Te140  1  0.57167376  0.57785876  0.73331183  1
  Te  Te141  1  0.59044635  0.86534813  0.07343967  1
  Te  Te142  1  0.59708520  0.91250476  0.42602275  1
  Te  Te143  1  0.58614221  0.89348899  0.77608336  1
  Te  Te144  1  0.90940563  0.25982938  0.06211290  1
  Te  Te145  1  0.91578322  0.25034910  0.40155423  1
  Te  Te146  1  0.91501862  0.25864620  0.73607978  1
  Te  Te147  1  0.91895681  0.60347698  0.08418080  1
  Te  Te148  1  0.91622803  0.58907944  0.41103979  1
  Te  Te149  1  0.94385744  0.60228396  0.77932372  1
  Te  Te150  1  0.89547623  0.88643508  0.05428758  1
  Te  Te151  1  0.92138934  0.92134334  0.40962823  1
  Te  Te152  1  0.89885779  0.92384528  0.76198881  1
  Te  Te153  1  0.24517962  0.06651406  0.24292429  1
  Te  Te154  1  0.25268149  0.05965440  0.60239490  1
  Te  Te155  1  0.23713815  0.06561247  0.89728621  1
  Te  Te156  1  0.25830189  0.43848225  0.24244736  1
  Te  Te157  1  0.21181509  0.42917588  0.57477178  1
  Te  Te158  1  0.23751721  0.40655098  0.90277896  1
  Te  Te159  1  0.26366294  0.73933155  0.25069852  1
  Te  Te160  1  0.24283054  0.76823700  0.60732122  1
  Te  Te161  1  0.25335227  0.73981769  0.91064325  1
  Te  Te162  1  0.56992897  0.06860065  0.24860425  1
  Te  Te163  1  0.59818107  0.05714429  0.60567041  1
  Te  Te164  1  0.59434144  0.07084411  0.92704774  1
  Te  Te165  1  0.61083774  0.41097651  0.25629681  1
  Te  Te166  1  0.59544517  0.41329178  0.59113892  1
  Te  Te167  1  0.58831280  0.41591289  0.89887115  1
  Te  Te168  1  0.60259761  0.77969969  0.24061512  1
  Te  Te169  1  0.56712272  0.74146124  0.56762583  1
  Te  Te170  1  0.59092089  0.74450709  0.93175359  1
  Te  Te171  1  0.93092677  0.06182532  0.20264324  1
  Te  Te172  1  0.91040852  0.09370784  0.57497141  1
  Te  Te173  1  0.89120781  0.08244654  0.91591698  1
  Te  Te174  1  0.92247775  0.43141666  0.23129314  1
  Te  Te175  1  0.92098732  0.43659576  0.59181142  1
  Te  Te176  1  0.94141944  0.41471456  0.92756038  1
  Te  Te177  1  0.92622410  0.74683145  0.26072219  1
  Te  Te178  1  0.90326122  0.77601857  0.59803894  1
  Te  Te179  1  0.89733249  0.76475247  0.94765066  1
