# generated using pymatgen
data_In2Te3
_symmetry_space_group_name_H-M   'P 1'
_cell_length_a   18.98606743
_cell_length_b   18.95888900
_cell_length_c   18.92405060
_cell_angle_alpha   89.96650225
_cell_angle_beta   90.00818561
_cell_angle_gamma   89.59206278
_symmetry_Int_Tables_number   1
_chemical_formula_structural   In2Te3
_chemical_formula_sum   'In72 Te108'
_cell_volume   6811.62791623
_cell_formula_units_Z   36
loop_
 _symmetry_equiv_pos_site_id
 _symmetry_equiv_pos_as_xyz
  1  'x, y, z'
loop_
 _atom_site_type_symbol
 _atom_site_label
 _atom_site_symmetry_multiplicity
 _atom_site_fract_x
 _atom_site_fract_y
 _atom_site_fract_z
 _atom_site_occupancy
  In  In0  1  0.83227257  0.33708116  0.83587588  1
  In  In1  1  0.83040849  0.70402738  0.86032728  1
  In  In2  1  0.32300010  0.65712210  0.34880669  1
  In  In3  1  0.20435855  0.18930218  -0.03680414  1
  In  In4  1  0.84768971  0.51781833  0.69954821  1
  In  In5  1  0.66156063  0.66761907  0.31960365  1
  In  In6  1  0.00550287  0.35183712  0.66076874  1
  In  In7  1  0.18679353  -0.01143165  0.50833582  1
  In  In8  1  0.51314944  0.69197645  0.18120260  1
  In  In9  1  0.50463513  0.33530539  0.50295590  1
  In  In10  1  0.14872732  0.65683866  0.86095062  1
  In  In11  1  0.34038541  0.86006352  0.51277367  1
  In  In12  1  0.00343620  0.19256753  0.47785366  1
  In  In13  1  0.14511411  0.78775093  0.29310310  1
  In  In14  1  0.66524332  0.50422616  0.82861528  1
  In  In15  1  0.84451106  0.50389065  0.33658893  1
  In  In16  1  0.80663672  -0.02909506  0.85957206  1
  In  In17  1  0.32608576  0.32488432  -0.00937291  1
  In  In18  1  -0.00922376  -0.01559367  0.70271781  1
  In  In19  1  -0.00295449  0.16238678  0.14277860  1
  In  In20  1  0.14095356  0.35153974  0.83786414  1
  In  In21  1  0.33650075  0.32664287  0.66112022  1
  In  In22  1  0.64180985  0.13071049  0.16306709  1
  In  In23  1  0.16943035  0.17864532  0.32632573  1
  In  In24  1  0.00044382  0.00400183  0.30914698  1
  In  In25  1  -0.03426305  0.34905745  0.30244404  1
  In  In26  1  0.34094583  0.32465308  0.31941008  1
  In  In27  1  0.85885371  0.74821655  0.13555019  1
  In  In28  1  0.47255698  0.67024784  0.50385245  1
  In  In29  1  0.00942420  0.84777522  0.46941411  1
  In  In30  1  0.17408094  0.34702578  0.50023353  1
  In  In31  1  0.33634532  0.84367875  0.83571695  1
  In  In32  1  0.53519964  0.83739327  0.32115972  1
  In  In33  1  0.29658770  0.65067012  0.68767934  1
  In  In34  1  0.51577982  0.85260217  0.68615883  1
  In  In35  1  0.53451915  0.29085357  0.71796325  1
  In  In36  1  0.81877508  -0.05225574  0.14088416  1
  In  In37  1  0.65429708  0.30367972  -0.00348619  1
  In  In38  1  0.47618221  0.49610132  0.67338904  1
  In  In39  1  0.33719219  0.65329208  0.02557222  1
  In  In40  1  0.66210638  0.51941644  0.15918500  1
  In  In41  1  0.14264893  0.81694684  0.01213913  1
  In  In42  1  0.83535443  0.65059730  0.51732518  1
  In  In43  1  0.82856063  0.01232911  0.50369243  1
  In  In44  1  0.16179205  -0.02490048  0.17329070  1
  In  In45  1  0.48214131  0.67339764  0.84990445  1
  In  In46  1  0.52721487  0.84779185  -0.03372916  1
  In  In47  1  -0.00490653  0.67393525  0.67003719  1
  In  In48  1  0.32929505  0.48655953  0.19052063  1
  In  In49  1  0.51283397  0.47684129  0.34306636  1
  In  In50  1  0.00474690  -0.01330670  0.00565285  1
  In  In51  1  0.00909354  0.50899567  0.50605801  1
  In  In52  1  0.83898232  0.17425418  0.64473968  1
  In  In53  1  0.65585638  0.15020247  0.49025116  1
  In  In54  1  0.85301927  0.51812599  0.00759893  1
  In  In55  1  0.35318294  -0.01620689  0.33228673  1
  In  In56  1  0.48807888  -0.01848769  0.51250070  1
  In  In57  1  0.50621846  0.12645077  -0.02292760  1
  In  In58  1  0.19577468  0.83622502  0.67654361  1
  In  In59  1  0.68234219  0.82240014  0.50943772  1
  In  In60  1  0.49858485  0.48527260  0.02288251  1
  In  In61  1  0.17268021  0.13551085  0.69418208  1
  In  In62  1  0.69958307  0.52416321  0.52589425  1
  In  In63  1  0.85307798  0.30431361  0.48983228  1
  In  In64  1  0.03635715  0.36326755  0.00703373  1
  In  In65  1  0.68075922  0.31255969  0.32255632  1
  In  In66  1  0.34560198  0.84572086  0.17862907  1
  In  In67  1  0.68423372  0.00101903  0.67029633  1
  In  In68  1  0.13842196  0.52952345  0.29109647  1
  In  In69  1  0.83193133  0.17016627  0.01179330  1
  In  In70  1  0.82401901  0.36052578  0.17771258  1
  In  In71  1  0.35068199  0.17208931  0.14407012  1
  Te  Te72  1  0.10584514  0.08035135  0.07632994  1
  Te  Te73  1  0.08834251  0.07452583  0.41254586  1
  Te  Te74  1  0.06513340  0.08376490  0.77825444  1
  Te  Te75  1  0.09778980  0.47647889  0.07644739  1
  Te  Te76  1  0.06046174  0.40049528  0.41311799  1
  Te  Te77  1  0.06307441  0.44678451  0.75459799  1
  Te  Te78  1  0.07888770  0.70711377  0.08684533  1
  Te  Te79  1  0.09824596  0.74096398  0.42437086  1
  Te  Te80  1  0.09698079  0.75269537  0.75352846  1
  Te  Te81  1  0.40469029  0.06323249  0.06373284  1
  Te  Te82  1  0.40884950  0.07482586  0.43074943  1
  Te  Te83  1  0.35754779  0.15591907  0.81422890  1
  Te  Te84  1  0.41149719  0.39358501  0.10312768  1
  Te  Te85  1  0.40282282  0.41804415  0.42615959  1
  Te  Te86  1  0.42792156  0.39002035  0.76752512  1
  Te  Te87  1  0.43431081  0.76648434  0.07288714  1
  Te  Te88  1  0.42046857  0.77176157  0.39898549  1
  Te  Te89  1  0.40887717  0.74404052  0.73330110  1
  Te  Te90  1  0.74038464  0.06339175  0.06855909  1
  Te  Te91  1  0.76002016  0.09466021  0.40330211  1
  Te  Te92  1  0.78252560  0.08226663  0.75052373  1
  Te  Te93  1  0.73913730  0.41982466  0.06202577  1
  Te  Te94  1  0.74230188  0.42111905  0.40981429  1
  Te  Te95  1  0.74423931  0.41137423  0.73692283  1
  Te  Te96  1  0.74177954  0.75380414  0.04806509  1
  Te  Te97  1  0.75963568  0.73706027  0.41187397  1
  Te  Te98  1  0.73837456  0.74191361  0.75288882  1
  Te  Te99  1  0.06991546  0.25343472  0.23897742  1
  Te  Te100  1  0.09084686  0.24613864  0.59040261  1
  Te  Te101  1  0.06967030  0.24236084  0.91947849  1
  Te  Te102  1  0.08077314  0.65601978  0.23796003  1
  Te  Te103  1  0.08902823  0.58007464  0.60427339  1
  Te  Te104  1  0.07028427  0.58869579  0.96933459  1
  Te  Te105  1  0.04358984  0.88552973  0.21521591  1
  Te  Te106  1  0.08387329  0.91482766  0.59464322  1
  Te  Te107  1  0.09009517  0.91028474  0.91204510  1
  Te  Te108  1  0.42684788  0.22392113  0.25691648  1
  Te  Te109  1  0.44714857  0.23654294  0.60412364  1
  Te  Te110  1  0.43093832  0.24861203  0.91197200  1
  Te  Te111  1  0.43587852  0.58360602  0.25508632  1
  Te  Te112  1  0.38574199  0.57586596  0.58129121  1
  Te  Te113  1  0.40998204  0.56365832  0.92557927  1
  Te  Te114  1  0.45782701  0.93300304  0.22816234  1
  Te  Te115  1  0.40174289  0.93635790  0.62895660  1
  Te  Te116  1  0.42595330  0.93610797  0.90471812  1
  Te  Te117  1  0.74823557  0.23427168  0.21338424  1
  Te  Te118  1  0.73453305  0.25610145  0.57044863  1
  Te  Te119  1  0.74645111  0.23104568  0.90080209  1
  Te  Te120  1  0.76678685  0.59435408  0.23662797  1
  Te  Te121  1  0.75366547  0.62966091  0.64689778  1
  Te  Te122  1  0.74749565  0.58806508  0.92208654  1
  Te  Te123  1  0.72139411  0.93138719  0.25127904  1
  Te  Te124  1  0.77484638  0.90443572  0.59633242  1
  Te  Te125  1  0.73277919  0.87271423  0.95464089  1
  Te  Te126  1  0.23499736  0.25727753  0.09548391  1
  Te  Te127  1  0.26009648  0.24643941  0.42571710  1
  Te  Te128  1  0.23804669  0.26126943  0.75856313  1
  Te  Te129  1  0.24579296  0.55467148  0.08733422  1
  Te  Te130  1  0.22741146  0.56316492  0.40373750  1
  Te  Te131  1  0.24340693  0.56452604  0.79276603  1
  Te  Te132  1  0.25381040  0.90648238  0.07500467  1
  Te  Te133  1  0.24125922  0.90069681  0.39576000  1
  Te  Te134  1  0.24508577  0.94032689  0.76818209  1
  Te  Te135  1  0.55922831  0.22986634  0.08348411  1
  Te  Te136  1  0.57227221  0.24316242  0.40169024  1
  Te  Te137  1  0.56157105  0.17360922  0.81024472  1
  Te  Te138  1  0.57781802  0.60623809  0.06902787  1
  Te  Te139  1  0.58062835  0.59125561  0.42507125  1
  Te  Te140  1  0.56657160  0.58889179  0.75026993  1
  Te  Te141  1  0.62189347  0.93420006  0.04061228  1
  Te  Te142  1  0.60137608  0.92243526  0.42875072  1
  Te  Te143  1  0.59601340  0.94030004  0.77445185  1
  Te  Te144  1  0.91614734  0.27986250  0.07665803  1
  Te  Te145  1  0.90200947  0.22633235  0.37007660  1
  Te  Te146  1  0.92181130  0.25537369  0.74322895  1
  Te  Te147  1  0.93017171  0.63031898  0.06600881  1
  Te  Te148  1  0.93391276  0.59998551  0.40926608  1
  Te  Te149  1  0.92877996  0.60508353  0.78798990  1
  Te  Te150  1  0.91448352  0.86822220  0.04231690  1
  Te  Te151  1  0.90146158  0.92709858  0.39707128  1
  Te  Te152  1  0.90844421  0.88855808  0.78166128  1
  Te  Te153  1  0.24881367  0.07060379  0.25263984  1
  Te  Te154  1  0.25829893  0.09088058  0.58328895  1
  Te  Te155  1  0.26811097  0.07235577  0.90054449  1
  Te  Te156  1  0.22318635  0.40474206  0.26047181  1
  Te  Te157  1  0.24701387  0.42449328  0.59932469  1
  Te  Te158  1  0.23665032  0.42326224  0.92536168  1
  Te  Te159  1  0.26726674  0.72676203  0.22509184  1
  Te  Te160  1  0.25854826  0.74780012  0.57007295  1
  Te  Te161  1  0.26207549  0.74490868  0.92652721  1
  Te  Te162  1  0.61166072  0.03526479  0.27021228  1
  Te  Te163  1  0.57701893  0.07625595  0.59512247  1
  Te  Te164  1  0.61071383  0.05905920  0.89529767  1
  Te  Te165  1  0.59323206  0.40801868  0.23555374  1
  Te  Te166  1  0.58311897  0.43776419  0.58112226  1
  Te  Te167  1  0.58167737  0.41212394  0.91751577  1
  Te  Te168  1  0.63414498  0.77875812  0.21562651  1
  Te  Te169  1  0.57197143  0.75216268  0.58497356  1
  Te  Te170  1  0.60139932  0.75609252  0.87337981  1
  Te  Te171  1  0.90536684  0.06049186  0.20521430  1
  Te  Te172  1  0.94305298  0.08436902  0.57667922  1
  Te  Te173  1  0.90556466  0.06908714  0.92448042  1
  Te  Te174  1  0.92893109  0.46503952  0.21280572  1
  Te  Te175  1  0.89367183  0.42595117  0.57411873  1
  Te  Te176  1  0.92664997  0.42346664  0.91417341  1
  Te  Te177  1  0.92196229  0.79868333  0.25670228  1
  Te  Te178  1  0.92522173  0.76140385  0.56830737  1
  Te  Te179  1  0.94048756  0.79216134  0.90939398  1
