# generated using pymatgen
data_In2Te3
_symmetry_space_group_name_H-M   'P 1'
_cell_length_a   18.85076850
_cell_length_b   18.84286306
_cell_length_c   18.83687342
_cell_angle_alpha   89.93560525
_cell_angle_beta   90.02424557
_cell_angle_gamma   89.86835352
_symmetry_Int_Tables_number   1
_chemical_formula_structural   In2Te3
_chemical_formula_sum   'In72 Te108'
_cell_volume   6690.88108347
_cell_formula_units_Z   36
loop_
 _symmetry_equiv_pos_site_id
 _symmetry_equiv_pos_as_xyz
  1  'x, y, z'
loop_
 _atom_site_type_symbol
 _atom_site_label
 _atom_site_symmetry_multiplicity
 _atom_site_fract_x
 _atom_site_fract_y
 _atom_site_fract_z
 _atom_site_occupancy
  In  In0  1  0.83238688  0.01398132  0.84179695  1
  In  In1  1  0.50267935  0.84145381  0.66796893  1
  In  In2  1  0.62697852  0.17165073  0.52912707  1
  In  In3  1  0.18172377  0.66642703  0.47236135  1
  In  In4  1  -0.00679100  0.15058078  0.83097739  1
  In  In5  1  0.17800604  0.85455991  0.70006929  1
  In  In6  1  -0.01416763  0.67520500  0.65687333  1
  In  In7  1  0.65814261  0.65535418  0.67657111  1
  In  In8  1  0.49658921  0.50547115  0.33642976  1
  In  In9  1  0.64418116  -0.02847573  0.02330158  1
  In  In10  1  0.18685553  0.48363071  0.02243302  1
  In  In11  1  0.82156758  0.33405241  0.82604388  1
  In  In12  1  0.01120980  0.84072241  0.17321233  1
  In  In13  1  0.01013496  0.80118712  0.52425337  1
  In  In14  1  0.80638368  0.86885512  0.35386116  1
  In  In15  1  0.00759534  0.50875474  0.18906276  1
  In  In16  1  0.83382208  -0.00001418  0.18791352  1
  In  In17  1  0.66861174  0.32482943  0.34666856  1
  In  In18  1  0.00452456  0.16414002  0.50749223  1
  In  In19  1  -0.01467708  0.32110360  -0.02326640  1
  In  In20  1  0.33921978  0.00771935  0.32211197  1
  In  In21  1  0.81327499  -0.00060355  0.51735566  1
  In  In22  1  0.17768362  0.84979696  0.30825930  1
  In  In23  1  0.16537536  0.00597131  0.86876335  1
  In  In24  1  0.83230568  0.50979943  0.32769419  1
  In  In25  1  0.18637286  0.33426401  0.49671608  1
  In  In26  1  0.01903426  0.68473606  0.01991004  1
  In  In27  1  0.18942465  0.48865676  0.64999528  1
  In  In28  1  0.01626480  0.33659171  0.32070642  1
  In  In29  1  0.84570801  0.35922449  0.48778606  1
  In  In30  1  0.34973377  0.81033221  0.49760874  1
  In  In31  1  0.82832197  0.17361759  -0.01837800  1
  In  In32  1  0.46911943  0.16003833  -0.00809342  1
  In  In33  1  0.46532791  0.46684898  0.66812613  1
  In  In34  1  0.48195945  0.01569391  0.82892260  1
  In  In35  1  0.64575942  0.00350305  0.32010978  1
  In  In36  1  0.00116438  0.87636049  0.83359962  1
  In  In37  1  0.63707242  0.66631993  0.00010978  1
  In  In38  1  0.33285096  0.86200821  0.85608272  1
  In  In39  1  0.33017688  0.14260878  0.14757486  1
  In  In40  1  0.63626936  0.67625803  0.30186750  1
  In  In41  1  0.00367482  0.51898300  0.82920291  1
  In  In42  1  0.48291395  0.29968024  0.51959418  1
  In  In43  1  0.34329092  0.32975499  -0.00958881  1
  In  In44  1  0.48884496  0.00356852  0.49961795  1
  In  In45  1  0.34674765  0.65973018  0.33880782  1
  In  In46  1  0.19465794  0.67391575  0.83123766  1
  In  In47  1  0.33215444  0.31560635  0.32845032  1
  In  In48  1  0.00023974  0.00066369  0.32684619  1
  In  In49  1  0.17041828  0.00823111  0.52034719  1
  In  In50  1  0.49250811  0.34582744  0.14832454  1
  In  In51  1  0.00239724  0.47244873  0.51209775  1
  In  In52  1  0.77865907  0.49824570  0.01608282  1
  In  In53  1  0.50953982  0.67299810  0.83150115  1
  In  In54  1  0.36276901  0.67354709  -0.01023317  1
  In  In55  1  0.64906998  0.16104176  0.17064035  1
  In  In56  1  0.65698190  0.18108343  0.82550248  1
  In  In57  1  0.16924246  0.32797647  0.82920170  1
  In  In58  1  0.66470870  0.82268853  0.50388233  1
  In  In59  1  0.83503924  0.83010642  0.00190211  1
  In  In60  1  0.83082185  0.17756723  0.68050491  1
  In  In61  1  0.17446274  0.17692545  0.67046296  1
  In  In62  1  0.65971389  0.33110791  0.66658896  1
  In  In63  1  0.34620814  0.66009462  0.64927900  1
  In  In64  1  0.83632194  0.66216129  0.17515332  1
  In  In65  1  -0.00069463  0.65122048  0.30336676  1
  In  In66  1  0.82102624  0.65780667  0.52076840  1
  In  In67  1  0.34854306  0.49333356  0.16029357  1
  In  In68  1  0.34419369  0.85561416  0.14666124  1
  In  In69  1  0.81883670  0.68719794  0.81474040  1
  In  In70  1  0.18242496  0.32797724  0.17486283  1
  In  In71  1  0.83808270  0.13819387  0.31839336  1
  Te  Te72  1  0.15176036  0.04916195  0.01844178  1
  Te  Te73  1  0.09382842  0.08705222  0.41257854  1
  Te  Te74  1  0.09002606  0.07416093  0.74542379  1
  Te  Te75  1  0.07179522  0.40633600  0.08429086  1
  Te  Te76  1  0.09863912  0.43096431  0.40459082  1
  Te  Te77  1  0.08553316  0.42357230  0.74321303  1
  Te  Te78  1  0.11023718  0.74810569  0.11508545  1
  Te  Te79  1  0.08080275  0.76056451  0.39377326  1
  Te  Te80  1  0.07870661  0.74577778  0.75962447  1
  Te  Te81  1  0.42918197  0.04703770  0.08363715  1
  Te  Te82  1  0.40955760  0.09709054  0.41733068  1
  Te  Te83  1  0.45514870  0.11391960  0.71746522  1
  Te  Te84  1  0.43369004  0.44227556  0.04421696  1
  Te  Te85  1  0.42181343  0.39965457  0.41725076  1
  Te  Te86  1  0.41851048  0.36295866  0.76314173  1
  Te  Te87  1  0.44769305  0.76437233  0.07660612  1
  Te  Te88  1  0.44696402  0.73858369  0.41528932  1
  Te  Te89  1  0.39649822  0.75932332  0.75624805  1
  Te  Te90  1  0.74963929  0.07684267  0.08083659  1
  Te  Te91  1  0.73392336  0.08545151  0.41782540  1
  Te  Te92  1  0.73368005  0.07931050  0.74275743  1
  Te  Te93  1  0.71454124  0.40140571  0.10648235  1
  Te  Te94  1  0.73484005  0.44044726  0.42223409  1
  Te  Te95  1  0.72632492  0.42343189  0.75920198  1
  Te  Te96  1  0.74502362  0.74327947  0.08547834  1
  Te  Te97  1  0.75374833  0.73360728  0.40253776  1
  Te  Te98  1  0.71751606  0.77026792  0.74901999  1
  Te  Te99  1  0.09054097  0.23606879  0.24348457  1
  Te  Te100  1  0.08140568  0.26686289  0.58729817  1
  Te  Te101  1  0.09205912  0.23031958  0.91735507  1
  Te  Te102  1  0.11815483  0.58959233  0.24335186  1
  Te  Te103  1  0.08847214  0.58939139  0.58059668  1
  Te  Te104  1  0.10261290  0.58336839  0.92650460  1
  Te  Te105  1  0.10475994  0.95277385  0.22357155  1
  Te  Te106  1  0.07786990  0.91595438  0.60031235  1
  Te  Te107  1  0.09468371  0.89535479  0.94337247  1
  Te  Te108  1  0.41763101  0.24032134  0.22868613  1
  Te  Te109  1  0.40434403  0.19753568  0.59308771  1
  Te  Te110  1  0.44118106  0.26982680  0.89076624  1
  Te  Te111  1  0.43502054  0.59635121  0.22946606  1
  Te  Te112  1  0.42059449  0.56585355  0.56615613  1
  Te  Te113  1  0.42232141  0.57375351  0.89910406  1
  Te  Te114  1  0.41923448  0.89693524  0.26730409  1
  Te  Te115  1  0.39660733  0.91964244  0.59200111  1
  Te  Te116  1  0.42388239  0.93922092  0.94535537  1
  Te  Te117  1  0.75268431  0.24393705  0.24747015  1
  Te  Te118  1  0.75674313  0.24836530  0.56484033  1
  Te  Te119  1  0.72556081  0.27198110  0.92660066  1
  Te  Te120  1  0.73044559  0.57156067  0.23375752  1
  Te  Te121  1  0.74128481  0.56182019  0.59561607  1
  Te  Te122  1  0.73522351  0.59469416  0.90019210  1
  Te  Te123  1  0.72401119  0.90387281  0.23233455  1
  Te  Te124  1  0.72147987  0.91951396  0.59905738  1
  Te  Te125  1  0.74281131  0.91615950  0.91822820  1
  Te  Te126  1  0.24539837  0.24368268  0.06572324  1
  Te  Te127  1  0.24708935  0.23012595  0.41254562  1
  Te  Te128  1  0.27249494  0.25440666  0.75190298  1
  Te  Te129  1  0.26527335  0.59674730  0.08370178  1
  Te  Te130  1  0.27776890  0.56498946  0.43077315  1
  Te  Te131  1  0.27166579  0.57127175  0.75021274  1
  Te  Te132  1  0.27217695  0.96216100  0.06262083  1
  Te  Te133  1  0.24728065  0.90890602  0.43020852  1
  Te  Te134  1  0.26878404  0.96006071  0.75763140  1
  Te  Te135  1  0.57259623  0.24483725  0.06816547  1
  Te  Te136  1  0.56524993  0.22974579  0.40372189  1
  Te  Te137  1  0.55414608  0.25096567  0.73937113  1
  Te  Te138  1  0.57756182  0.55960958  0.08204532  1
  Te  Te139  1  0.58695616  0.59417473  0.41350290  1
  Te  Te140  1  0.56353150  0.55794553  0.74745542  1
  Te  Te141  1  0.56508297  0.88433044  0.11313118  1
  Te  Te142  1  0.57393198  0.90678468  0.41425472  1
  Te  Te143  1  0.57177305  0.90560141  0.78145014  1
  Te  Te144  1  0.90304357  0.25512077  0.07888119  1
  Te  Te145  1  0.91547861  0.24533998  0.40940081  1
  Te  Te146  1  0.93453047  0.26509185  0.74917401  1
  Te  Te147  1  0.92237408  0.57995277  0.07902891  1
  Te  Te148  1  0.92874692  0.58779381  0.42484863  1
  Te  Te149  1  0.89847712  0.58020390  0.73746627  1
  Te  Te150  1  0.92074677  0.92451616  0.08403885  1
  Te  Te151  1  0.92570430  0.92055412  0.43407905  1
  Te  Te152  1  0.90220812  0.92883012  0.74219274  1
  Te  Te153  1  0.23724651  0.08499047  0.24712465  1
  Te  Te154  1  0.26939687  0.10450254  0.57727783  1
  Te  Te155  1  0.28237376  0.07221624  0.93886402  1
  Te  Te156  1  0.25374298  0.42980870  0.26039021  1
  Te  Te157  1  0.28567798  0.39922945  0.58515780  1
  Te  Te158  1  0.26015397  0.42600623  0.90389780  1
  Te  Te159  1  0.27335588  0.75461973  0.24176926  1
  Te  Te160  1  0.23147225  0.75506097  0.59480494  1
  Te  Te161  1  0.24826249  0.76603206  0.93931998  1
  Te  Te162  1  0.54880727  0.07717495  0.23782819  1
  Te  Te163  1  0.57327107  0.06049027  0.61145360  1
  Te  Te164  1  0.59324554  0.08423529  0.92728103  1
  Te  Te165  1  0.58368225  0.41094551  0.25145204  1
  Te  Te166  1  0.57420369  0.40982245  0.56942810  1
  Te  Te167  1  0.63157684  0.45444327  0.98844516  1
  Te  Te168  1  0.55879502  0.75903329  0.20705967  1
  Te  Te169  1  0.56686138  0.73496557  0.58074593  1
  Te  Te170  1  0.58112225  0.77331092  0.91248937  1
  Te  Te171  1  0.94665900  0.09890403  0.21908317  1
  Te  Te172  1  0.91649830  0.08008927  0.59798228  1
  Te  Te173  1  0.93337195  0.06788589  0.94299773  1
  Te  Te174  1  0.90503840  0.40724092  0.24247283  1
  Te  Te175  1  0.90448492  0.42072708  0.60738040  1
  Te  Te176  1  0.90587547  0.43660165  0.91474171  1
  Te  Te177  1  0.90350676  0.77293674  0.25936581  1
  Te  Te178  1  0.88131802  0.77250547  0.60093496  1
  Te  Te179  1  0.92670676  0.74463639  0.91112981  1
