# generated using pymatgen
data_In2Te3
_symmetry_space_group_name_H-M   'P 1'
_cell_length_a   18.79119851
_cell_length_b   18.79496574
_cell_length_c   18.79904097
_cell_angle_alpha   90.02925250
_cell_angle_beta   89.95931816
_cell_angle_gamma   90.00431070
_symmetry_Int_Tables_number   1
_chemical_formula_structural   In2Te3
_chemical_formula_sum   'In72 Te108'
_cell_volume   6639.44145817
_cell_formula_units_Z   36
loop_
 _symmetry_equiv_pos_site_id
 _symmetry_equiv_pos_as_xyz
  1  'x, y, z'
loop_
 _atom_site_type_symbol
 _atom_site_label
 _atom_site_symmetry_multiplicity
 _atom_site_fract_x
 _atom_site_fract_y
 _atom_site_fract_z
 _atom_site_occupancy
  In  In0  1  0.47966175  0.00824378  0.49348729  1
  In  In1  1  0.85533718  0.86495641  0.33276732  1
  In  In2  1  0.33968255  0.16666366  0.84401372  1
  In  In3  1  0.85074162  0.68115805  0.83018314  1
  In  In4  1  0.64627996  -0.01921593  -0.00947341  1
  In  In5  1  0.03008260  0.67766380  0.33885019  1
  In  In6  1  0.30914925  0.81234916  0.85179864  1
  In  In7  1  0.31331493  0.34154886  0.65125410  1
  In  In8  1  0.32430356  0.15713961  0.49583036  1
  In  In9  1  0.29487200  0.79829536  0.16366975  1
  In  In10  1  0.85588068  -0.00991040  0.48399147  1
  In  In11  1  0.32004582  0.36336079  0.02641638  1
  In  In12  1  0.02247377  0.00640753  -0.00273453  1
  In  In13  1  0.46110963  0.53306831  0.00252128  1
  In  In14  1  0.50736353  0.14648905  0.67217337  1
  In  In15  1  0.17137643  0.51444279  0.66073513  1
  In  In16  1  0.32909155  -0.00118278  0.34188463  1
  In  In17  1  0.18109531  -0.00881970  0.17131283  1
  In  In18  1  0.68497475  0.82783656  0.50005670  1
  In  In19  1  -0.00101437  0.02098937  0.32899941  1
  In  In20  1  0.67635588  0.67815517  -0.00201454  1
  In  In21  1  0.13704361  0.84748712  0.64921458  1
  In  In22  1  0.65503624  0.18421909  0.49492179  1
  In  In23  1  0.46935434  0.84042414  0.32264268  1
  In  In24  1  0.50318920  0.84792100  0.66321495  1
  In  In25  1  0.01703503  0.66281414  0.64982604  1
  In  In26  1  0.84486116  0.15222986  0.63518029  1
  In  In27  1  0.83930572  0.81858839  0.66802937  1
  In  In28  1  0.47412972  0.65571979  0.18632153  1
  In  In29  1  0.49447518  0.49328589  0.65264207  1
  In  In30  1  0.00761063  0.82776258  0.83224940  1
  In  In31  1  0.84705765  0.81707199  0.00634445  1
  In  In32  1  0.86275442  0.49663938  0.00844508  1
  In  In33  1  0.17763103  0.36167969  0.86527745  1
  In  In34  1  0.02234203  0.51594731  0.17345481  1
  In  In35  1  0.84339232  0.64022942  0.49084161  1
  In  In36  1  0.66711656  0.16801274  0.17858795  1
  In  In37  1  0.83554653  0.01389888  0.81582158  1
  In  In38  1  0.14043030  0.33093241  0.20907526  1
  In  In39  1  0.48156699  0.50701815  0.32026078  1
  In  In40  1  0.84229296  0.33425545  0.19429593  1
  In  In41  1  0.66132304  0.49472737  0.18639580  1
  In  In42  1  0.49979792  0.33575063  0.48000682  1
  In  In43  1  0.66232272  0.32265010  0.67197628  1
  In  In44  1  0.64867417  0.50454196  0.81815043  1
  In  In45  1  -0.00631594  0.36401465  0.02497335  1
  In  In46  1  0.81087061  0.64248864  0.17186788  1
  In  In47  1  0.33794022  0.67446919  0.67391526  1
  In  In48  1  0.02937300  0.80726940  0.16996712  1
  In  In49  1  0.18142659  -0.00367938  0.83693805  1
  In  In50  1  0.65164892  0.81991266  0.83902468  1
  In  In51  1  0.35195100  0.14627531  0.15933858  1
  In  In52  1  0.67461004  0.13818191  0.87118185  1
  In  In53  1  0.03596918  0.51932996  0.85302424  1
  In  In54  1  0.31787672  0.81412271  0.47417872  1
  In  In55  1  0.12975937  0.34599778  0.46068498  1
  In  In56  1  0.82936153  0.19094643  0.01685595  1
  In  In57  1  0.48549145  0.34858672  0.84623325  1
  In  In58  1  0.18662738  0.15570070  0.64677511  1
  In  In59  1  0.16396314  0.15759569  0.02028047  1
  In  In60  1  0.33578090  0.34009977  0.31044106  1
  In  In61  1  0.86346548  0.33749329  0.43990138  1
  In  In62  1  0.82836256  0.49691965  0.64231263  1
  In  In63  1  0.66828290  0.65054881  0.31435643  1
  In  In64  1  0.83817726  0.00311475  0.18369477  1
  In  In65  1  0.49084980  0.66967069  0.49284162  1
  In  In66  1  0.01559451  0.17539525  0.81345932  1
  In  In67  1  0.66043370  0.01779651  0.34308064  1
  In  In68  1  -0.00965082  0.31972627  0.66211794  1
  In  In69  1  0.50842254  0.82875816  0.01217818  1
  In  In70  1  0.49212733  -0.00168660  0.83602021  1
  In  In71  1  0.65264654  0.31435808  0.01478518  1
  Te  Te72  1  0.06935370  0.08771132  0.11693078  1
  Te  Te73  1  0.08717562  0.11569615  0.40072532  1
  Te  Te74  1  0.09148761  0.07001444  0.73819375  1
  Te  Te75  1  0.11405676  0.42706688  0.08634372  1
  Te  Te76  1  0.05772958  0.44792790  0.37680340  1
  Te  Te77  1  0.08483834  0.40777710  0.74651453  1
  Te  Te78  1  0.13351988  0.74590904  0.08149216  1
  Te  Te79  1  0.12617721  0.74787042  0.43166338  1
  Te  Te80  1  0.09908765  0.73482086  0.75546436  1
  Te  Te81  1  0.42181062  0.08107574  0.04892841  1
  Te  Te82  1  0.42883675  0.10959284  0.39546780  1
  Te  Te83  1  0.39466486  0.06836704  0.73862734  1
  Te  Te84  1  0.41738776  0.43974485  0.11012983  1
  Te  Te85  1  0.39754034  0.43115563  0.42367423  1
  Te  Te86  1  0.39624924  0.42513555  0.74905087  1
  Te  Te87  1  0.40639404  0.73413286  0.07553002  1
  Te  Te88  1  0.39787144  0.71907450  0.38292579  1
  Te  Te89  1  0.42645436  0.76234777  0.76285878  1
  Te  Te90  1  0.75130899  0.07050360  0.06971234  1
  Te  Te91  1  0.76190140  0.09465790  0.42320861  1
  Te  Te92  1  0.73717112  0.09787235  0.73739627  1
  Te  Te93  1  0.75735648  0.41398958  0.08404430  1
  Te  Te94  1  0.75938808  0.42946569  0.39689197  1
  Te  Te95  1  0.75364383  0.41677141  0.75117171  1
  Te  Te96  1  0.74314516  0.76438264  0.10411740  1
  Te  Te97  1  0.76444661  0.74711133  0.39735099  1
  Te  Te98  1  0.73628084  0.73354364  0.74406106  1
  Te  Te99  1  0.07061213  0.23585273  0.30315847  1
  Te  Te100  1  0.08717955  0.24453162  0.57188826  1
  Te  Te101  1  0.08259015  0.25107627  0.92883099  1
  Te  Te102  1  0.12466792  0.60422850  0.24429884  1
  Te  Te103  1  0.07873302  0.56613983  0.55720648  1
  Te  Te104  1  0.11546303  0.58331536  0.95996513  1
  Te  Te105  1  0.08910144  0.91091499  0.26227576  1
  Te  Te106  1  0.05713365  0.93384852  0.55931021  1
  Te  Te107  1  0.10382652  0.89972030  0.92670242  1
  Te  Te108  1  0.42733599  0.25515499  0.22863471  1
  Te  Te109  1  0.42521883  0.24977333  0.59249047  1
  Te  Te110  1  0.40427668  0.26468390  0.94407076  1
  Te  Te111  1  0.37153075  0.55479380  0.22770407  1
  Te  Te112  1  0.39594958  0.57767292  0.56997267  1
  Te  Te113  1  0.37793313  0.57723049  0.89081485  1
  Te  Te114  1  0.38600478  0.91804790  0.22530751  1
  Te  Te115  1  0.39813465  0.90866011  0.57349193  1
  Te  Te116  1  0.40948799  0.90615253  0.92335775  1
  Te  Te117  1  0.73860576  0.26182056  0.27116757  1
  Te  Te118  1  0.76316114  0.26557998  0.56814024  1
  Te  Te119  1  0.75256686  0.26656131  0.90994393  1
  Te  Te120  1  0.77980807  0.53818785  0.28508424  1
  Te  Te121  1  0.73580326  0.59153706  0.57932695  1
  Te  Te122  1  0.76425249  0.58119369  0.91829777  1
  Te  Te123  1  0.73487820  0.91551015  0.25449371  1
  Te  Te124  1  0.76120305  0.92407902  0.58900852  1
  Te  Te125  1  0.76921227  0.90193363  0.90587134  1
  Te  Te126  1  0.23914486  0.25813118  0.10665392  1
  Te  Te127  1  0.25270232  0.26194294  0.41500570  1
  Te  Te128  1  0.24106207  0.25399588  0.76240728  1
  Te  Te129  1  0.22806043  0.62204282  0.06394567  1
  Te  Te130  1  0.21191547  0.63122525  0.39655428  1
  Te  Te131  1  0.25092854  0.58857299  0.76146891  1
  Te  Te132  1  0.24703680  0.90532185  0.07116617  1
  Te  Te133  1  0.23004323  0.92206388  0.42055079  1
  Te  Te134  1  0.25093410  0.90170135  0.74085255  1
  Te  Te135  1  0.56168343  0.25239158  0.11147316  1
  Te  Te136  1  0.58677207  0.25911717  0.38709719  1
  Te  Te137  1  0.57375502  0.24412900  0.77280374  1
  Te  Te138  1  0.58841634  0.59106210  0.09232305  1
  Te  Te139  1  0.58418786  0.57557113  0.41593317  1
  Te  Te140  1  0.56025621  0.59167310  0.74195374  1
  Te  Te141  1  0.57822399  0.91963319  0.10574692  1
  Te  Te142  1  0.57134635  0.90028345  0.42249050  1
  Te  Te143  1  0.59922298  0.93104786  0.74893838  1
  Te  Te144  1  0.93775304  0.24732332  0.10568494  1
  Te  Te145  1  0.94922550  0.22114912  0.40380195  1
  Te  Te146  1  0.89423958  0.24236489  0.75179940  1
  Te  Te147  1  0.93352134  0.60585851  0.08679775  1
  Te  Te148  1  0.95104321  0.57009661  0.41129040  1
  Te  Te149  1  0.92539785  0.57660950  0.74711783  1
  Te  Te150  1  0.93066052  0.91402023  0.09033842  1
  Te  Te151  1  0.97047706  0.89503043  0.43029110  1
  Te  Te152  1  0.92960609  0.92016068  0.74014015  1
  Te  Te153  1  0.24668817  0.09846180  0.25835848  1
  Te  Te154  1  0.24392737  0.05057095  0.55929586  1
  Te  Te155  1  0.26298980  0.07340243  0.94039500  1
  Te  Te156  1  0.23093537  0.43541991  0.26333813  1
  Te  Te157  1  0.23285070  0.42247680  0.55359329  1
  Te  Te158  1  0.27276481  0.46397331  0.92224373  1
  Te  Te159  1  0.22394369  0.73794967  0.28377156  1
  Te  Te160  1  0.23514146  0.74447030  0.58368543  1
  Te  Te161  1  0.23139916  0.71624338  0.93891358  1
  Te  Te162  1  0.57153395  0.07102176  0.23964336  1
  Te  Te163  1  0.59438588  0.06810833  0.57501584  1
  Te  Te164  1  0.54473204  0.09720320  0.95037350  1
  Te  Te165  1  0.57251325  0.40505159  0.26125127  1
  Te  Te166  1  0.59664043  0.41529065  0.56995581  1
  Te  Te167  1  0.57815633  0.43310778  0.93599015  1
  Te  Te168  1  0.57487852  0.75194150  0.24995165  1
  Te  Te169  1  0.58634681  0.74633170  0.58454292  1
  Te  Te170  1  0.56023449  0.72250229  0.91072632  1
  Te  Te171  1  0.89288152  0.10922074  0.27035767  1
  Te  Te172  1  0.95028778  0.06549837  0.57618576  1
  Te  Te173  1  0.92015037  0.09111193  0.91985415  1
  Te  Te174  1  0.95806652  0.40925461  0.26273019  1
  Te  Te175  1  0.92704324  0.41415606  0.56173051  1
  Te  Te176  1  0.92823400  0.41427574  0.89765151  1
  Te  Te177  1  0.91142410  0.74284921  0.24704943  1
  Te  Te178  1  0.92534817  0.74874071  0.56375054  1
  Te  Te179  1  0.95075627  0.73007103  0.93559366  1
