# generated using pymatgen
data_In2Te3
_symmetry_space_group_name_H-M   'P 1'
_cell_length_a   18.89597618
_cell_length_b   18.89157015
_cell_length_c   18.87508110
_cell_angle_alpha   89.90587742
_cell_angle_beta   90.14712262
_cell_angle_gamma   90.17745495
_symmetry_Int_Tables_number   1
_chemical_formula_structural   In2Te3
_chemical_formula_sum   'In72 Te108'
_cell_volume   6737.86211356
_cell_formula_units_Z   36
loop_
 _symmetry_equiv_pos_site_id
 _symmetry_equiv_pos_as_xyz
  1  'x, y, z'
loop_
 _atom_site_type_symbol
 _atom_site_label
 _atom_site_symmetry_multiplicity
 _atom_site_fract_x
 _atom_site_fract_y
 _atom_site_fract_z
 _atom_site_occupancy
  In  In0  1  0.68886086  0.17171207  0.82157258  1
  In  In1  1  0.69666702  0.83136298  0.17980708  1
  In  In2  1  0.01533563  0.52407222  0.52428577  1
  In  In3  1  0.48755056  0.16472617  0.03023400  1
  In  In4  1  0.48962415  0.68565008  0.17883892  1
  In  In5  1  0.00934090  0.16261578  0.84426412  1
  In  In6  1  0.46015634  0.33286939  0.45837719  1
  In  In7  1  0.00059566  0.82099372  0.49162247  1
  In  In8  1  0.17160586  0.67343083  0.84334016  1
  In  In9  1  0.19351191  0.81668468  0.65458385  1
  In  In10  1  0.46760381  0.52219808  0.66481538  1
  In  In11  1  0.65562983  0.34161879  0.66433757  1
  In  In12  1  0.18808931  0.37328886  0.80253421  1
  In  In13  1  0.50451048  0.86818772  0.30576426  1
  In  In14  1  0.85182307  0.50275293  0.33959931  1
  In  In15  1  0.68747130  -0.06056184  0.63734983  1
  In  In16  1  0.30401125  0.67568463  0.32924371  1
  In  In17  1  0.87268642  0.17865619  0.00529970  1
  In  In18  1  0.12687905  0.15541526  0.01129835  1
  In  In19  1  0.83027448  0.49710918  0.01623625  1
  In  In20  1  0.86659630  0.28132759  0.46212375  1
  In  In21  1  0.84403222  0.67741289  0.84785482  1
  In  In22  1  0.00808818  0.49671486  0.16766615  1
  In  In23  1  0.65741470  0.49208403  0.51471951  1
  In  In24  1  0.83818138  0.33018769  0.82055746  1
  In  In25  1  0.85058573  0.68578674  0.18654898  1
  In  In26  1  0.49172776  0.11784327  0.35316567  1
  In  In27  1  0.68848964  -0.01103356  0.00009349  1
  In  In28  1  0.85545490  0.49433401  0.67813104  1
  In  In29  1  0.17030445  0.83731302  0.35781554  1
  In  In30  1  0.50835908  0.15873119  0.63261698  1
  In  In31  1  0.33035213  0.52344426  0.81001147  1
  In  In32  1  0.48247950  0.49026927  0.37135774  1
  In  In33  1  0.48612998  0.33206262  0.18576627  1
  In  In34  1  0.31943573  0.31891362  0.33142142  1
  In  In35  1  0.00204778  0.31691319  0.62700955  1
  In  In36  1  0.00322387  0.34737366  0.01413689  1
  In  In37  1  0.63784968  0.67190246  0.65983226  1
  In  In38  1  0.49081384  0.82964170  0.01215489  1
  In  In39  1  0.00135205  0.84854907  0.84526393  1
  In  In40  1  0.15583040  -0.01195733  0.20025040  1
  In  In41  1  0.28045788  0.66825241  0.01559248  1
  In  In42  1  0.68261027  0.65712580  0.03539399  1
  In  In43  1  0.66959036  0.83342920  0.84031582  1
  In  In44  1  0.15414988  0.00814982  0.83411997  1
  In  In45  1  0.84877183  0.82339352  0.33778784  1
  In  In46  1  0.50785655  0.36971287  0.85259466  1
  In  In47  1  0.14336678  0.18152881  0.30965453  1
  In  In48  1  0.31772328  0.19558086  0.80432433  1
  In  In49  1  0.33978800  -0.02133661  0.63254435  1
  In  In50  1  0.67673732  0.14074905  0.48982426  1
  In  In51  1  -0.02866112  -0.00910864  0.02472980  1
  In  In52  1  0.30479339  -0.00508527  0.01195844  1
  In  In53  1  0.47918693  0.67504846  0.48861110  1
  In  In54  1  0.49696623  0.69029305  0.81108936  1
  In  In55  1  0.68901890  0.16320778  0.17257238  1
  In  In56  1  0.66354888  0.32801283  0.31992730  1
  In  In57  1  0.30194006  0.32694910  -0.02339615  1
  In  In58  1  0.31594795  0.14701087  0.14252929  1
  In  In59  1  0.16645353  0.00819616  0.47576226  1
  In  In60  1  0.36199271  0.82329050  0.81806999  1
  In  In61  1  0.48950664  0.50290286  -0.02552170  1
  In  In62  1  0.83521475  0.68695097  0.50346496  1
  In  In63  1  0.01698498  0.52537688  0.81986256  1
  In  In64  1  0.14356804  0.49750042  0.33770211  1
  In  In65  1  -0.01281183  -0.00845903  0.66112784  1
  In  In66  1  0.82531783  0.13135315  0.65025311  1
  In  In67  1  0.51675903  0.01624960  0.82266548  1
  In  In68  1  0.70194942  0.50775132  0.15883154  1
  In  In69  1  0.31763990  0.49832891  0.16174104  1
  In  In70  1  0.32035346  0.14902978  0.47828491  1
  In  In71  1  0.70135108  -0.01004057  0.32527440  1
  Te  Te72  1  0.05656561  0.07731928  0.11910107  1
  Te  Te73  1  0.07049500  0.07457767  0.38414203  1
  Te  Te74  1  0.08400529  0.09471216  0.73257915  1
  Te  Te75  1  0.10352336  0.43730267  0.07096584  1
  Te  Te76  1  0.08297009  0.41409655  0.44809032  1
  Te  Te77  1  0.06613383  0.42280062  0.71852406  1
  Te  Te78  1  0.13578977  0.70279813  0.04497675  1
  Te  Te79  1  0.11438559  0.73378576  0.45278939  1
  Te  Te80  1  0.08907341  0.76351089  0.75178596  1
  Te  Te81  1  0.42883977  0.04335611  0.10516433  1
  Te  Te82  1  0.40632784  0.03302971  0.43990382  1
  Te  Te83  1  0.41165879  0.08568905  0.73574371  1
  Te  Te84  1  0.40186829  0.40005728  0.07779182  1
  Te  Te85  1  0.35144513  0.43410235  0.43033659  1
  Te  Te86  1  0.40474961  0.39852275  0.74530721  1
  Te  Te87  1  0.38756293  0.75390384  0.09265988  1
  Te  Te88  1  0.41579471  0.76316735  0.38252720  1
  Te  Te89  1  0.40058502  0.73286451  0.70408659  1
  Te  Te90  1  0.77778126  0.08232324  0.08168417  1
  Te  Te91  1  0.78992832  0.07337360  0.41898738  1
  Te  Te92  1  0.72998724  0.05347414  0.73820590  1
  Te  Te93  1  0.77450054  0.39375485  0.10507213  1
  Te  Te94  1  0.74408645  0.41542129  0.41586490  1
  Te  Te95  1  0.74066555  0.42789915  0.75642760  1
  Te  Te96  1  0.78122954  0.76593155  0.06926544  1
  Te  Te97  1  0.74039246  0.77939101  0.43337237  1
  Te  Te98  1  0.74317372  0.74081732  0.74565614  1
  Te  Te99  1  0.05584538  0.28385060  0.24514000  1
  Te  Te100  1  0.08793319  0.26280863  0.52117217  1
  Te  Te101  1  0.09283512  0.27069855  0.90730283  1
  Te  Te102  1  0.06879286  0.59874905  0.25848821  1
  Te  Te103  1  0.10977253  0.57496093  0.62454432  1
  Te  Te104  1  0.08046404  0.59472122  0.93564354  1
  Te  Te105  1  0.06214434  0.89496326  0.26990528  1
  Te  Te106  1  0.09892407  0.91364902  0.58405333  1
  Te  Te107  1  0.08702554  0.92986230  0.94448184  1
  Te  Te108  1  0.41480032  0.21820483  0.25742687  1
  Te  Te109  1  0.40131921  0.24418798  0.56891972  1
  Te  Te110  1  0.42191063  0.24864396  0.91956555  1
  Te  Te111  1  0.40896863  0.57243985  0.25960842  1
  Te  Te112  1  0.38684363  0.58009277  0.55750936  1
  Te  Te113  1  0.40372001  0.61493727  0.91365246  1
  Te  Te114  1  0.41175825  0.93689113  0.21876273  1
  Te  Te115  1  0.42330201  0.86338779  0.59272411  1
  Te  Te116  1  0.42633837  0.93263708  0.91624649  1
  Te  Te117  1  0.77678513  0.24876599  0.26146780  1
  Te  Te118  1  0.74254796  0.24755220  0.58281558  1
  Te  Te119  1  0.76089771  0.25370212  0.92660324  1
  Te  Te120  1  0.75520370  0.59788583  0.26799551  1
  Te  Te121  1  0.75370716  0.58218653  0.59134567  1
  Te  Te122  1  0.74698394  0.58177564  0.92032937  1
  Te  Te123  1  0.80770242  0.93091156  0.22265965  1
  Te  Te124  1  0.79089424  0.88457614  0.54678553  1
  Te  Te125  1  0.77325807  0.90772148  0.91298420  1
  Te  Te126  1  0.22283316  0.25089654  0.08467963  1
  Te  Te127  1  0.21990221  0.25674200  0.43277153  1
  Te  Te128  1  0.21660601  0.25280208  0.71182752  1
  Te  Te129  1  0.21145070  0.60349622  0.13923712  1
  Te  Te130  1  0.21183587  0.60398339  0.42202319  1
  Te  Te131  1  0.22816056  0.59655968  0.72535369  1
  Te  Te132  1  0.23198237  0.90599611  0.10266444  1
  Te  Te133  1  0.27558827  0.92448029  0.42078186  1
  Te  Te134  1  0.25643621  0.92664701  0.75635547  1
  Te  Te135  1  0.58733213  0.25634022  0.10102583  1
  Te  Te136  1  0.57896935  0.24053224  0.41472185  1
  Te  Te137  1  0.57409150  0.24378125  0.75053358  1
  Te  Te138  1  0.56413544  0.58101928  0.09610064  1
  Te  Te139  1  0.58930184  0.58809288  0.42011595  1
  Te  Te140  1  0.57590155  0.57065987  0.75968425  1
  Te  Te141  1  0.59754038  0.90720635  0.09063884  1
  Te  Te142  1  0.59571064  0.92687796  0.40650182  1
  Te  Te143  1  0.57560259  0.90244344  0.74303133  1
  Te  Te144  1  0.95018338  0.24791317  0.11223857  1
  Te  Te145  1  0.96901556  0.22474100  0.36148538  1
  Te  Te146  1  0.91668359  0.23522958  0.73384616  1
  Te  Te147  1  0.92044960  0.59566003  0.08602818  1
  Te  Te148  1  0.93201743  0.60188192  0.42339969  1
  Te  Te149  1  0.92840173  0.61391248  0.73438032  1
  Te  Te150  1  0.90509233  0.89044477  0.10823698  1
  Te  Te151  1  0.91993093  0.92379581  0.42195890  1
  Te  Te152  1  0.90464914  0.91841050  0.75740226  1
  Te  Te153  1  0.25440128  0.08540439  0.26517834  1
  Te  Te154  1  0.23911461  0.08250956  0.58998841  1
  Te  Te155  1  0.24880993  0.10364670  0.91779145  1
  Te  Te156  1  0.23038353  0.40593936  0.24568357  1
  Te  Te157  1  0.25998058  0.40212962  0.67196168  1
  Te  Te158  1  0.24640539  0.45583944  0.92116547  1
  Te  Te159  1  0.23303460  0.76985540  0.24020735  1
  Te  Te160  1  0.30506718  0.76532866  0.57175869  1
  Te  Te161  1  0.25053215  0.78493783  0.91167906  1
  Te  Te162  1  0.59533131  0.07323552  0.25037522  1
  Te  Te163  1  0.59102510  0.04752907  0.57434569  1
  Te  Te164  1  0.59115792  0.09644091  0.93162759  1
  Te  Te165  1  0.57563548  0.43438115  0.25532542  1
  Te  Te166  1  0.54766470  0.40752820  0.57851498  1
  Te  Te167  1  0.60575309  0.41576035  0.95100912  1
  Te  Te168  1  0.59963937  0.74745833  0.26069779  1
  Te  Te169  1  0.57235947  0.76403851  0.56657339  1
  Te  Te170  1  0.58609459  0.73682629  0.93300437  1
  Te  Te171  1  0.86968095  0.12675812  0.29549158  1
  Te  Te172  1  0.93039591  0.08526683  0.56055857  1
  Te  Te173  1  0.90835420  0.07034248  0.90477789  1
  Te  Te174  1  0.93088115  0.40707448  0.26046329  1
  Te  Te175  1  0.89668353  0.40784389  0.56144767  1
  Te  Te176  1  0.92277213  0.42802541  0.90114117  1
  Te  Te177  1  0.95896037  0.75280459  0.26496671  1
  Te  Te178  1  0.90828017  0.77424751  0.60006880  1
  Te  Te179  1  0.94521579  0.74192798  0.93176433  1
