# generated using pymatgen
data_In2Te3
_symmetry_space_group_name_H-M   'P 1'
_cell_length_a   19.00035946
_cell_length_b   19.02890300
_cell_length_c   18.99606561
_cell_angle_alpha   90.02498515
_cell_angle_beta   89.85801739
_cell_angle_gamma   89.96904282
_symmetry_Int_Tables_number   1
_chemical_formula_structural   In2Te3
_chemical_formula_sum   'In72 Te108'
_cell_volume   6868.11869758
_cell_formula_units_Z   36
loop_
 _symmetry_equiv_pos_site_id
 _symmetry_equiv_pos_as_xyz
  1  'x, y, z'
loop_
 _atom_site_type_symbol
 _atom_site_label
 _atom_site_symmetry_multiplicity
 _atom_site_fract_x
 _atom_site_fract_y
 _atom_site_fract_z
 _atom_site_occupancy
  In  In0  1  0.31652872  0.82254840  0.49436662  1
  In  In1  1  0.17847703  0.49467883  0.33991373  1
  In  In2  1  0.84875502  0.14042279  0.34248406  1
  In  In3  1  0.50831672  0.70575806  0.83376690  1
  In  In4  1  0.51229521  0.19469666  0.68996923  1
  In  In5  1  0.48300586  0.18029632  0.32304967  1
  In  In6  1  0.18946534  0.47786499  0.66942984  1
  In  In7  1  0.32206620  0.67347223  -0.01650836  1
  In  In8  1  0.67324352  0.00641909  0.31883201  1
  In  In9  1  0.80441625  0.14654076  0.65863831  1
  In  In10  1  0.82617575  0.15193863  -0.02020070  1
  In  In11  1  0.54105416  0.13726446  0.00384829  1
  In  In12  1  0.14756221  0.01163754  0.12423972  1
  In  In13  1  0.66444375  0.68399468  0.66903792  1
  In  In14  1  0.02545152  0.15903547  0.50748982  1
  In  In15  1  0.43023793  0.43097963  0.64544912  1
  In  In16  1  0.00980981  0.67887596  0.65334354  1
  In  In17  1  0.82562088  0.33017851  0.84825824  1
  In  In18  1  0.80619970  0.32823871  0.50750689  1
  In  In19  1  0.51022966  0.83952020  0.65048519  1
  In  In20  1  0.48486299  0.67692573  0.16192776  1
  In  In21  1  0.79324296  0.67543082  0.84041548  1
  In  In22  1  0.35862187  0.63340567  0.35807416  1
  In  In23  1  0.67379722  0.19085431  0.16883727  1
  In  In24  1  0.81965882  -0.02576053  0.50873384  1
  In  In25  1  0.34971387  0.16011251  0.84779609  1
  In  In26  1  -0.01585627  0.65697524  0.34100696  1
  In  In27  1  0.15784926  0.80557228  0.30642376  1
  In  In28  1  0.00922619  0.16571571  0.83582282  1
  In  In29  1  0.00795670  0.82907238  0.13961217  1
  In  In30  1  0.80658700  0.84636920  0.01225167  1
  In  In31  1  0.50458152  -0.00289824  0.49563264  1
  In  In32  1  0.84725084  0.00105828  0.18936340  1
  In  In33  1  0.32149016  0.85142721  0.16500528  1
  In  In34  1  -0.00211405  0.35256090  0.70598337  1
  In  In35  1  0.37532177  0.85276110  0.83084450  1
  In  In36  1  0.84167869  0.33460665  0.16658716  1
  In  In37  1  0.82007536  0.00797505  0.81844295  1
  In  In38  1  0.48555823  0.82342182  0.32440832  1
  In  In39  1  -0.00128711  0.66777225  -0.00242095  1
  In  In40  1  0.02388005  0.32993529  -0.01278903  1
  In  In41  1  0.63491115  0.36854788  0.35118099  1
  In  In42  1  0.50093548  0.32905105  0.50854317  1
  In  In43  1  0.84591564  0.50388828  0.01530376  1
  In  In44  1  0.83492843  0.65613583  0.50683436  1
  In  In45  1  0.64802080  0.62130899  0.34511398  1
  In  In46  1  0.16584277  0.70216984  0.15536323  1
  In  In47  1  0.53229330  0.88597190  -0.01121968  1
  In  In48  1  0.19126462  0.18706749  0.69594576  1
  In  In49  1  0.16415512  -0.00956151  0.86864779  1
  In  In50  1  -0.01019721  -0.02296865  0.69167782  1
  In  In51  1  0.33822738  -0.00890285  0.31433773  1
  In  In52  1  0.49339433  0.49670833  -0.02462586  1
  In  In53  1  0.03329352  0.48039940  0.16761920  1
  In  In54  1  0.16361467  0.17758724  0.31329358  1
  In  In55  1  0.33189928  0.33056364  -0.03085708  1
  In  In56  1  0.32357714  0.50944090  0.17156643  1
  In  In57  1  0.67385991  0.49652222  0.81853282  1
  In  In58  1  0.16966679  0.00069876  0.52016217  1
  In  In59  1  0.17693660  0.32751387  0.49674055  1
  In  In60  1  0.80846800  0.68557950  0.16982573  1
  In  In61  1  0.65784770  -0.00069260  0.67546088  1
  In  In62  1  0.17677223  0.65903497  0.82138138  1
  In  In63  1  0.64854561  0.50050954  0.17699288  1
  In  In64  1  0.84530091  0.50860588  0.66010243  1
  In  In65  1  0.01549395  0.31327204  0.31633340  1
  In  In66  1  0.34667248  0.04545418  0.67014934  1
  In  In67  1  0.35279733  0.17424062  0.13981808  1
  In  In68  1  0.02573055  0.51102872  0.80668533  1
  In  In69  1  0.16943282  0.83819142  0.69289242  1
  In  In70  1  0.82020611  0.83662370  0.35256461  1
  In  In71  1  0.14685773  0.65032749  0.49800668  1
  Te  Te72  1  0.04851044  0.11706028  0.11026740  1
  Te  Te73  1  0.09593404  0.07144564  0.40816954  1
  Te  Te74  1  0.09548490  0.07351971  0.74295299  1
  Te  Te75  1  0.11243863  0.41783834  0.06371315  1
  Te  Te76  1  0.07924890  0.40968071  0.41637842  1
  Te  Te77  1  0.12299658  0.39656623  0.78137511  1
  Te  Te78  1  0.10642971  0.77773954  0.03250709  1
  Te  Te79  1  0.07110706  0.75471900  0.41981312  1
  Te  Te80  1  0.06926552  0.75505591  0.77011993  1
  Te  Te81  1  0.41924122  0.07003987  0.05746296  1
  Te  Te82  1  0.40783142  0.07984329  0.41292334  1
  Te  Te83  1  0.45226934  0.07641228  0.77137561  1
  Te  Te84  1  0.40045869  0.42552254  0.06989318  1
  Te  Te85  1  0.43074888  0.43784055  0.43221913  1
  Te  Te86  1  0.38786098  0.39655103  0.79042141  1
  Te  Te87  1  0.40571044  0.76543571  0.06832260  1
  Te  Te88  1  0.43042028  0.73939342  0.43987983  1
  Te  Te89  1  0.41108376  0.75116457  0.72381955  1
  Te  Te90  1  0.75876973  0.08620930  0.09928759  1
  Te  Te91  1  0.74243980  0.07988996  0.43184087  1
  Te  Te92  1  0.71295199  0.11004532  0.77599556  1
  Te  Te93  1  0.74458000  0.41821236  0.08712172  1
  Te  Te94  1  0.74580827  0.42985860  0.42252089  1
  Te  Te95  1  0.76058572  0.40536945  0.73505152  1
  Te  Te96  1  0.71864930  0.74315879  0.07087948  1
  Te  Te97  1  0.73903901  0.72722676  0.41252457  1
  Te  Te98  1  0.73403568  0.77863294  0.75741608  1
  Te  Te99  1  0.08877941  0.24812884  0.20495576  1
  Te  Te100  1  0.07975561  0.25690095  0.61052624  1
  Te  Te101  1  0.11292902  0.23787244  0.91130015  1
  Te  Te102  1  0.10005017  0.59905052  0.25163991  1
  Te  Te103  1  0.07739195  0.55799154  0.59573326  1
  Te  Te104  1  0.09462201  0.57764684  0.92336139  1
  Te  Te105  1  0.08760980  0.91536178  0.23424502  1
  Te  Te106  1  0.07855422  0.90392045  0.58947597  1
  Te  Te107  1  0.07739670  0.90873731  0.94933109  1
  Te  Te108  1  0.38805037  0.26420397  0.25075594  1
  Te  Te109  1  0.41501218  0.23761147  0.58847495  1
  Te  Te110  1  0.45308914  0.24314105  0.92416797  1
  Te  Te111  1  0.43894133  0.56271945  0.25283145  1
  Te  Te112  1  0.44646145  0.54362711  0.54483418  1
  Te  Te113  1  0.41594791  0.59814571  0.89380663  1
  Te  Te114  1  0.44820249  0.92970140  0.21857116  1
  Te  Te115  1  0.39008532  0.92816109  0.57516442  1
  Te  Te116  1  0.40888428  0.94996759  0.93778980  1
  Te  Te117  1  0.76982469  0.25015480  0.27107169  1
  Te  Te118  1  0.72202720  0.24932637  0.59613189  1
  Te  Te119  1  0.73541587  0.25942973  0.93794591  1
  Te  Te120  1  0.76004355  0.57112247  0.25399061  1
  Te  Te121  1  0.73324958  0.57521840  0.58625234  1
  Te  Te122  1  0.73647031  0.57259638  0.93508044  1
  Te  Te123  1  0.74453021  0.89974403  0.23797703  1
  Te  Te124  1  0.71928002  0.90153828  0.58367381  1
  Te  Te125  1  0.73161805  0.94328953  0.92420087  1
  Te  Te126  1  0.25240281  0.24537684  0.05985847  1
  Te  Te127  1  0.25609243  0.25295454  0.39886384  1
  Te  Te128  1  0.30481723  0.26587357  0.74966486  1
  Te  Te129  1  0.23703841  0.59217611  0.07765357  1
  Te  Te130  1  0.25971497  0.56211179  0.44832666  1
  Te  Te131  1  0.26620430  0.58439412  0.73371562  1
  Te  Te132  1  0.24581227  0.92170004  0.06234556  1
  Te  Te133  1  0.23952530  0.91008481  0.39827204  1
  Te  Te134  1  0.26370970  0.94389704  0.74986968  1
  Te  Te135  1  0.57154012  0.25623293  0.08672204  1
  Te  Te136  1  0.58648153  0.24144138  0.41434470  1
  Te  Te137  1  0.54297876  0.29558361  0.79464960  1
  Te  Te138  1  0.56865909  0.58282888  0.07784063  1
  Te  Te139  1  0.55208219  0.54148829  0.42681757  1
  Te  Te140  1  0.57786058  0.59341094  0.75429440  1
  Te  Te141  1  0.56971382  0.91339204  0.12520065  1
  Te  Te142  1  0.58416097  0.91236352  0.39978277  1
  Te  Te143  1  0.56047063  0.92430199  0.75771323  1
  Te  Te144  1  0.91100493  0.25802562  0.05603934  1
  Te  Te145  1  0.92720579  0.24360508  0.42763106  1
  Te  Te146  1  0.90521076  0.23194879  0.74805802  1
  Te  Te147  1  0.92890765  0.59127422  0.10853308  1
  Te  Te148  1  0.91764702  0.56330245  0.42844200  1
  Te  Te149  1  0.90922901  0.59956200  0.76354061  1
  Te  Te150  1  0.91735238  0.92979984  0.07491353  1
  Te  Te151  1  0.91644936  0.92940125  0.40870752  1
  Te  Te152  1  0.88553735  0.89454559  0.75058538  1
  Te  Te153  1  0.24925049  0.07583285  0.22896630  1
  Te  Te154  1  0.25074307  0.11410063  0.57335177  1
  Te  Te155  1  0.23006606  0.10987503  0.92511547  1
  Te  Te156  1  0.24569111  0.40830490  0.24438266  1
  Te  Te157  1  0.27841587  0.39511471  0.58315056  1
  Te  Te158  1  0.27757719  0.43680068  0.88227125  1
  Te  Te159  1  0.28401528  0.73214220  0.26144139  1
  Te  Te160  1  0.22926182  0.74418921  0.58825676  1
  Te  Te161  1  0.26102505  0.77140824  0.88747641  1
  Te  Te162  1  0.57982133  0.09554738  0.24132155  1
  Te  Te163  1  0.57480277  0.09110818  0.58782404  1
  Te  Te164  1  0.62335920  0.05485561  0.91259436  1
  Te  Te165  1  0.56622827  0.38812709  0.22456293  1
  Te  Te166  1  0.57144924  0.39536534  0.62035309  1
  Te  Te167  1  0.58716832  0.40522264  0.90047412  1
  Te  Te168  1  0.58679255  0.73239008  0.25812230  1
  Te  Te169  1  0.58415566  0.74885938  0.56412634  1
  Te  Te170  1  0.59301311  0.76051458  0.94016534  1
  Te  Te171  1  0.94750538  0.10001394  0.23791232  1
  Te  Te172  1  0.92377224  0.07653739  0.58704544  1
  Te  Te173  1  0.92938930  0.06305254  0.91039491  1
  Te  Te174  1  0.92594300  0.42289812  0.25566699  1
  Te  Te175  1  0.92182346  0.40210387  0.58621114  1
  Te  Te176  1  0.92306989  0.43307594  0.90477439  1
  Te  Te177  1  0.92172868  0.76056932  0.24642392  1
  Te  Te178  1  0.91105439  0.75622571  0.58148051  1
  Te  Te179  1  0.89482838  0.74963858  0.92980464  1
