# generated using pymatgen
data_In2Te3
_symmetry_space_group_name_H-M   'P 1'
_cell_length_a   18.77087732
_cell_length_b   18.77665375
_cell_length_c   18.77095066
_cell_angle_alpha   89.99022122
_cell_angle_beta   89.98613675
_cell_angle_gamma   89.92081774
_symmetry_Int_Tables_number   1
_chemical_formula_structural   In2Te3
_chemical_formula_sum   'In72 Te108'
_cell_volume   6615.89498882
_cell_formula_units_Z   36
loop_
 _symmetry_equiv_pos_site_id
 _symmetry_equiv_pos_as_xyz
  1  'x, y, z'
loop_
 _atom_site_type_symbol
 _atom_site_label
 _atom_site_symmetry_multiplicity
 _atom_site_fract_x
 _atom_site_fract_y
 _atom_site_fract_z
 _atom_site_occupancy
  In  In0  1  0.78661493  0.67485965  0.16866030  1
  In  In1  1  0.00370809  0.86044677  0.16798225  1
  In  In2  1  0.85354502  0.84318942  0.32815172  1
  In  In3  1  0.49433492  0.64556974  0.13685495  1
  In  In4  1  0.33927429  0.33036224  0.32353217  1
  In  In5  1  0.02771022  0.02817408  0.67168460  1
  In  In6  1  0.82193160  0.48285858  -0.01436560  1
  In  In7  1  0.48944396  0.01463591  0.50466243  1
  In  In8  1  0.34286617  0.49216113  0.15571715  1
  In  In9  1  0.19733760  0.86573332  0.69739569  1
  In  In10  1  0.47604813  0.84423376  0.33638145  1
  In  In11  1  0.64070535  0.32810788  -0.02122768  1
  In  In12  1  -0.00008247  0.64611928  0.67431474  1
  In  In13  1  0.83280194  -0.00193429  0.83160944  1
  In  In14  1  0.83807038  0.32093977  0.15154362  1
  In  In15  1  0.49412465  0.31896492  0.14993535  1
  In  In16  1  0.85668865  0.33442493  0.83093672  1
  In  In17  1  0.81255402  0.83807903  0.69445770  1
  In  In18  1  0.63686255  0.33550523  0.66978867  1
  In  In19  1  0.35239541  0.83531410  0.50816766  1
  In  In20  1  0.00659071  0.49225232  0.15882469  1
  In  In21  1  0.18087324  0.66247518  0.84538005  1
  In  In22  1  0.65080032  0.84513822  0.53087852  1
  In  In23  1  0.65629096  0.02231455  0.30424712  1
  In  In24  1  0.46120309  0.17425800  0.71191819  1
  In  In25  1  0.00588898  0.33455334  0.69047506  1
  In  In26  1  0.19112289  0.66365407  0.50240085  1
  In  In27  1  0.83237311  0.16263711  0.32021589  1
  In  In28  1  0.83044454  0.01206984  0.15701599  1
  In  In29  1  0.84006341  0.16301230  0.00453615  1
  In  In30  1  0.18951839  0.82867283  0.33083366  1
  In  In31  1  0.17330921  0.67154564  0.15955984  1
  In  In32  1  0.65141029  0.84172696  0.84669342  1
  In  In33  1  0.00424887  0.65487348  0.33354044  1
  In  In34  1  0.18350592  0.47734548  0.01020218  1
  In  In35  1  -0.01254656  0.65924127  -0.01054959  1
  In  In36  1  0.48713257  0.65144114  0.50339659  1
  In  In37  1  0.16948730  0.47508334  0.67854102  1
  In  In38  1  0.31359442  0.02974969  0.30878408  1
  In  In39  1  0.17088485  0.19336448  -0.01950387  1
  In  In40  1  0.82986543  0.33651008  0.50476857  1
  In  In41  1  0.01542770  0.82834132  0.85394642  1
  In  In42  1  0.84953087  0.19447599  0.67906810  1
  In  In43  1  0.17301363  0.33852032  0.49664483  1
  In  In44  1  0.49171094  0.65011204  0.82906035  1
  In  In45  1  0.82412286  0.65025379  0.49090240  1
  In  In46  1  0.82463002  0.64996967  0.81961035  1
  In  In47  1  0.02559988  0.00644271  0.32473748  1
  In  In48  1  0.01657827  0.15827287  0.49306426  1
  In  In49  1  0.03550308  0.33017735  0.31483888  1
  In  In50  1  0.33914202  0.16917730  0.50753011  1
  In  In51  1  0.63995960  0.16984577  0.46681378  1
  In  In52  1  0.33540249  0.49836644  0.49659247  1
  In  In53  1  0.48754042  0.02851776  0.15588461  1
  In  In54  1  0.63259061  0.83599414  0.13951997  1
  In  In55  1  0.64547687  0.33788793  0.31613763  1
  In  In56  1  0.19936205  0.30786547  0.15645657  1
  In  In57  1  0.21330803  0.17671457  0.68680777  1
  In  In58  1  0.64023237  0.13166539  0.86058383  1
  In  In59  1  0.02857639  -0.00066264  0.02123330  1
  In  In60  1  -0.00024481  0.84401575  0.52657951  1
  In  In61  1  0.63840163  0.48622068  0.84060593  1
  In  In62  1  0.47899965  0.83523826  0.00433061  1
  In  In63  1  0.65209582  0.48168527  0.51017993  1
  In  In64  1  0.33391961  0.00466485  -0.00377310  1
  In  In65  1  0.33766879  0.48783894  0.84238000  1
  In  In66  1  0.82381358  0.53932749  0.31428941  1
  In  In67  1  0.66302083  0.65880157  0.34342481  1
  In  In68  1  0.48699683  0.83492695  0.69561201  1
  In  In69  1  0.65650718  -0.01796855  0.66181058  1
  In  In70  1  0.19341515  0.83794512  -0.01221919  1
  In  In71  1  0.83732337  0.50798661  0.65763015  1
  Te  Te72  1  0.12230309  0.09531072  0.08788134  1
  Te  Te73  1  0.11425261  0.07678457  0.41955369  1
  Te  Te74  1  0.11877572  0.09210013  0.76773437  1
  Te  Te75  1  0.08482355  0.38612284  0.08386471  1
  Te  Te76  1  0.08672635  0.42476351  0.41348123  1
  Te  Te77  1  0.10301979  0.39532133  0.78835981  1
  Te  Te78  1  0.07734604  0.75602907  0.06912400  1
  Te  Te79  1  0.07568625  0.76039961  0.41882366  1
  Te  Te80  1  0.09098763  0.74971780  0.74329539  1
  Te  Te81  1  0.39801891  0.12019188  0.07354900  1
  Te  Te82  1  0.42285619  0.09541943  0.39670636  1
  Te  Te83  1  0.37380035  0.07803680  0.78357304  1
  Te  Te84  1  0.42146343  0.41340117  0.05426090  1
  Te  Te85  1  0.42480652  0.40256828  0.42183203  1
  Te  Te86  1  0.41507468  0.38225925  0.76423687  1
  Te  Te87  1  0.40159495  0.75657413  0.10321333  1
  Te  Te88  1  0.39953663  0.73162343  0.40587799  1
  Te  Te89  1  0.39246192  0.74675525  0.76877726  1
  Te  Te90  1  0.73465926  0.09627406  0.08395485  1
  Te  Te91  1  0.75032280  0.07530160  0.41514785  1
  Te  Te92  1  0.74736774  0.09016947  0.74370154  1
  Te  Te93  1  0.73134589  0.40280962  0.07844038  1
  Te  Te94  1  0.75225794  0.42312231  0.40533609  1
  Te  Te95  1  0.75203609  0.41414579  0.74619202  1
  Te  Te96  1  0.73815385  0.76483313  0.06371609  1
  Te  Te97  1  0.75312397  0.76496588  0.41775703  1
  Te  Te98  1  0.71707500  0.73719500  0.75137804  1
  Te  Te99  1  0.11262726  0.22087426  0.24842014  1
  Te  Te100  1  0.09108731  0.24576713  0.59708318  1
  Te  Te101  1  0.08043737  0.26522051  0.88270462  1
  Te  Te102  1  0.10046656  0.57126695  0.25029167  1
  Te  Te103  1  0.09533725  0.57254364  0.58147406  1
  Te  Te104  1  0.08937745  0.56860201  0.92235183  1
  Te  Te105  1  0.12153454  0.92764050  0.23277968  1
  Te  Te106  1  0.11053815  0.92979918  0.58597780  1
  Te  Te107  1  0.10812724  0.93566236  0.90497733  1
  Te  Te108  1  0.41029249  0.23097129  0.23820881  1
  Te  Te109  1  0.42682471  0.25375835  0.59206001  1
  Te  Te110  1  0.40125743  0.27046388  0.86560383  1
  Te  Te111  1  0.43107084  0.56933306  0.24750354  1
  Te  Te112  1  0.40555255  0.57819748  0.60151807  1
  Te  Te113  1  0.42057204  0.57165943  0.93597865  1
  Te  Te114  1  0.40178719  0.92748893  0.23289432  1
  Te  Te115  1  0.41027352  0.93654806  0.60717224  1
  Te  Te116  1  0.39988049  0.90780238  0.89781037  1
  Te  Te117  1  0.73452379  0.24176629  0.23447503  1
  Te  Te118  1  0.73399257  0.24666869  0.58100356  1
  Te  Te119  1  0.75159063  0.24659802  0.90125649  1
  Te  Te120  1  0.69738737  0.55891866  0.22084393  1
  Te  Te121  1  0.72669123  0.58997222  0.59088351  1
  Te  Te122  1  0.72895526  0.58370657  0.91923250  1
  Te  Te123  1  0.74392222  0.90705226  0.24136125  1
  Te  Te124  1  0.77249579  0.92612762  0.57599326  1
  Te  Te125  1  0.74545406  0.92480093  0.92473740  1
  Te  Te126  1  0.29404345  0.24036154  0.06178102  1
  Te  Te127  1  0.24635515  0.24032961  0.40781763  1
  Te  Te128  1  0.27968951  0.28494053  0.77770657  1
  Te  Te129  1  0.26397953  0.59371982  0.06500518  1
  Te  Te130  1  0.25401527  0.57947082  0.40128806  1
  Te  Te131  1  0.25957252  0.57976032  0.74388533  1
  Te  Te132  1  0.25286808  0.92425331  0.09137136  1
  Te  Te133  1  0.26753439  0.92530139  0.41865509  1
  Te  Te134  1  0.29156165  0.94213683  0.78327908  1
  Te  Te135  1  0.56547917  0.22402891  0.05359693  1
  Te  Te136  1  0.55532229  0.28322034  0.42343974  1
  Te  Te137  1  0.57633526  0.24851878  0.78115253  1
  Te  Te138  1  0.61865597  0.58403810  0.08944094  1
  Te  Te139  1  0.56748754  0.56111284  0.40897766  1
  Te  Te140  1  0.56263492  0.55729355  0.73573925  1
  Te  Te141  1  0.57704267  0.95383955  0.05340191  1
  Te  Te142  1  0.58539049  0.92395162  0.41497274  1
  Te  Te143  1  0.56196362  0.94358926  0.77458205  1
  Te  Te144  1  0.93941055  0.23986931  0.08240651  1
  Te  Te145  1  0.91974548  0.25408928  0.40969729  1
  Te  Te146  1  0.95676816  0.21865082  0.78838958  1
  Te  Te147  1  0.90057667  0.58055024  0.08962579  1
  Te  Te148  1  0.92908570  0.56109784  0.42733329  1
  Te  Te149  1  0.93209704  0.55145348  0.77258600  1
  Te  Te150  1  0.90585801  0.91346319  0.06580442  1
  Te  Te151  1  0.92956775  0.93440815  0.42229453  1
  Te  Te152  1  0.93767703  0.91343313  0.74262217  1
  Te  Te153  1  0.22507937  0.11035194  0.21946739  1
  Te  Te154  1  0.25817685  0.07488155  0.58798411  1
  Te  Te155  1  0.26260580  0.09982340  0.89915873  1
  Te  Te156  1  0.24206775  0.42176042  0.24722637  1
  Te  Te157  1  0.27064124  0.39645285  0.59668301  1
  Te  Te158  1  0.26088764  0.38294598  0.92175430  1
  Te  Te159  1  0.27272059  0.74614927  0.24061311  1
  Te  Te160  1  0.25775982  0.75839024  0.60026685  1
  Te  Te161  1  0.28394762  0.75203676  0.90437023  1
  Te  Te162  1  0.55861959  0.11918994  0.25232879  1
  Te  Te163  1  0.57939199  0.09845324  0.59525321  1
  Te  Te164  1  0.53873850  0.07971890  0.95223356  1
  Te  Te165  1  0.55588920  0.42472870  0.23669058  1
  Te  Te166  1  0.54472380  0.42476922  0.59656169  1
  Te  Te167  1  0.53829870  0.43511074  0.94284443  1
  Te  Te168  1  0.57726134  0.75591306  0.25952674  1
  Te  Te169  1  0.56685839  0.74287869  0.60109805  1
  Te  Te170  1  0.57151415  0.74080683  0.92763718  1
  Te  Te171  1  0.93647480  0.09199597  0.23308036  1
  Te  Te172  1  0.91494708  0.09064962  0.58597418  1
  Te  Te173  1  0.93186510  0.07042512  0.92277196  1
  Te  Te174  1  0.90913062  0.41503223  0.25268745  1
  Te  Te175  1  0.93437529  0.41655570  0.58156124  1
  Te  Te176  1  0.93473333  0.40157802  0.93702167  1
  Te  Te177  1  0.92361250  0.74037359  0.23445240  1
  Te  Te178  1  0.90592180  0.73872503  0.59346797  1
  Te  Te179  1  0.89514840  0.75306119  0.91077320  1
