# generated using pymatgen
data_In2Te3
_symmetry_space_group_name_H-M   'P 1'
_cell_length_a   18.85042440
_cell_length_b   18.85654590
_cell_length_c   18.86595295
_cell_angle_alpha   89.99019398
_cell_angle_beta   89.98629224
_cell_angle_gamma   89.94927531
_symmetry_Int_Tables_number   1
_chemical_formula_structural   In2Te3
_chemical_formula_sum   'In72 Te108'
_cell_volume   6705.97350019
_cell_formula_units_Z   36
loop_
 _symmetry_equiv_pos_site_id
 _symmetry_equiv_pos_as_xyz
  1  'x, y, z'
loop_
 _atom_site_type_symbol
 _atom_site_label
 _atom_site_symmetry_multiplicity
 _atom_site_fract_x
 _atom_site_fract_y
 _atom_site_fract_z
 _atom_site_occupancy
  In  In0  1  0.81928809  0.80599326  0.02117571  1
  In  In1  1  0.67775751  0.64936726  0.32433847  1
  In  In2  1  0.68010794  0.49584365  0.49615061  1
  In  In3  1  0.86295809  0.16556597  0.35541810  1
  In  In4  1  0.49635868  -0.01449503  0.51297856  1
  In  In5  1  0.47431252  0.82930987  -0.00133542  1
  In  In6  1  0.01967651  0.01539906  0.00453862  1
  In  In7  1  0.31721851  0.01907795  -0.00273502  1
  In  In8  1  0.69411825  0.14705280  0.15070418  1
  In  In9  1  0.87076632  0.31761546  0.16520865  1
  In  In10  1  0.85214248  -0.00018238  0.86400685  1
  In  In11  1  0.48724387  0.36196835  0.18151689  1
  In  In12  1  0.13884334  0.02059858  0.50610005  1
  In  In13  1  0.50549261  0.64711835  0.17248812  1
  In  In14  1  0.32170900  0.16025637  0.50272991  1
  In  In15  1  0.87495149  0.84756672  0.35936578  1
  In  In16  1  0.66356728  0.67312136  0.66707020  1
  In  In17  1  -0.00017562  0.50577954  0.80989524  1
  In  In18  1  0.85002038  0.66469783  0.83154221  1
  In  In19  1  0.46524772  -0.01247149  0.19541386  1
  In  In20  1  0.51523052  0.50971517  0.34632153  1
  In  In21  1  0.33256137  0.65201571  -0.00628932  1
  In  In22  1  0.68216387  0.48031777  0.83702220  1
  In  In23  1  0.50001782  0.15770435  0.68178846  1
  In  In24  1  0.16912353  0.32958785  0.84405056  1
  In  In25  1  0.68880099  0.00823806  0.34752203  1
  In  In26  1  0.66163359  0.81401217  0.16983978  1
  In  In27  1  0.84615339  0.49868254  -0.00471979  1
  In  In28  1  0.00442919  0.66427903  -0.01605993  1
  In  In29  1  0.01455314  0.49024155  0.17157832  1
  In  In30  1  0.18500927  0.50142488  0.33347085  1
  In  In31  1  0.15090203  -0.01017813  0.17752467  1
  In  In32  1  0.30920120  0.16843649  0.81077046  1
  In  In33  1  0.14773810  0.48303612  0.00124227  1
  In  In34  1  0.67557292  0.33920230  0.00245843  1
  In  In35  1  0.51497419  0.18090951  0.33781705  1
  In  In36  1  0.30769785  -0.03163093  0.36712976  1
  In  In37  1  0.46149996  0.33811513  0.81910867  1
  In  In38  1  0.48232951  0.02721887  0.85776154  1
  In  In39  1  0.31572144  0.48867253  0.16527590  1
  In  In40  1  0.50418512  0.33086181  0.50162587  1
  In  In41  1  0.46245398  0.85333211  0.66410125  1
  In  In42  1  0.63917386  0.82470358  0.84404383  1
  In  In43  1  0.86289530  0.14697655  0.62194453  1
  In  In44  1  0.84718409  0.01579262  0.18618171  1
  In  In45  1  0.30926538  0.15419443  0.14699398  1
  In  In46  1  0.28799239  0.83056224  0.79271455  1
  In  In47  1  0.16701806  0.34219294  0.50019681  1
  In  In48  1  0.16593821  0.17084447  -0.01289819  1
  In  In49  1  0.47881163  0.52006911  -0.00236994  1
  In  In50  1  0.01572671  0.52391880  0.50428882  1
  In  In51  1  0.51565424  0.19141732  -0.01652609  1
  In  In52  1  0.00817132  0.33692994  0.65291286  1
  In  In53  1  0.17374468  0.83477806  0.00038422  1
  In  In54  1  0.66311355  0.33198604  0.33690444  1
  In  In55  1  0.27620148  0.55786168  0.55929216  1
  In  In56  1  0.68020514  0.18578053  0.82475133  1
  In  In57  1  0.85576569  0.33564304  0.81209889  1
  In  In58  1  0.29881630  0.80737747  0.52224731  1
  In  In59  1  0.68873541  0.00611243  0.05106127  1
  In  In60  1  0.85571926  0.67042122  0.49878904  1
  In  In61  1  -0.00038546  0.83336805  0.17264646  1
  In  In62  1  0.31126691  0.69919714  0.33796953  1
  In  In63  1  0.47188559  0.50557828  0.65715322  1
  In  In64  1  0.87312015  0.81132032  0.65288033  1
  In  In65  1  0.68149510  -0.01451110  0.66695419  1
  In  In66  1  0.31589659  0.34237534  0.33239579  1
  In  In67  1  0.01279768  0.67575905  0.33668538  1
  In  In68  1  0.66687526  0.84885980  0.50147003  1
  In  In69  1  0.84392025  0.32261966  0.50052666  1
  In  In70  1  0.49370779  0.68083694  0.84086499  1
  In  In71  1  0.06013047  0.85817449  0.76484273  1
  Te  Te72  1  0.08429620  0.10829437  0.10662373  1
  Te  Te73  1  0.08428655  0.08748973  0.37598370  1
  Te  Te74  1  0.09748318  0.04391346  0.69752694  1
  Te  Te75  1  0.06587663  0.38764067  0.07776020  1
  Te  Te76  1  0.07838060  0.42377664  0.40786729  1
  Te  Te77  1  0.10192844  0.42143931  0.73575633  1
  Te  Te78  1  0.08743909  0.74435955  0.08607201  1
  Te  Te79  1  0.07007556  0.77305393  0.43084438  1
  Te  Te80  1  0.08943962  0.71574158  0.72625775  1
  Te  Te81  1  0.43455043  0.08499933  0.07304450  1
  Te  Te82  1  0.42290011  0.08272663  0.41057302  1
  Te  Te83  1  0.39443915  0.06395487  0.73791510  1
  Te  Te84  1  0.40061862  0.40811153  0.06686086  1
  Te  Te85  1  0.41358339  0.42169192  0.41924229  1
  Te  Te86  1  0.37699137  0.41269223  0.72371080  1
  Te  Te87  1  0.40475127  0.73738621  0.09714217  1
  Te  Te88  1  0.40745984  0.74722862  0.44050042  1
  Te  Te89  1  0.39737564  0.73788603  0.73728938  1
  Te  Te90  1  0.81376289  0.10826911  0.06001552  1
  Te  Te91  1  0.77315137  0.08185931  0.44375189  1
  Te  Te92  1  0.76417378  0.07785943  0.75639100  1
  Te  Te93  1  0.76930386  0.41238190  0.09517953  1
  Te  Te94  1  0.76872238  0.41985805  0.40045461  1
  Te  Te95  1  0.76447893  0.41941466  0.73332422  1
  Te  Te96  1  0.74834521  0.70600578  0.10847485  1
  Te  Te97  1  0.75560877  0.75591893  0.41668782  1
  Te  Te98  1  0.74840884  0.77007630  0.75115542  1
  Te  Te99  1  0.09042264  0.22378063  0.32283126  1
  Te  Te100  1  0.07446788  0.24140867  0.55904482  1
  Te  Te101  1  0.06590408  0.23589189  0.89826653  1
  Te  Te102  1  0.10206601  0.59455416  0.24515408  1
  Te  Te103  1  0.10136062  0.58469573  0.61036048  1
  Te  Te104  1  0.09751253  0.58584879  0.89567002  1
  Te  Te105  1  0.06939881  0.91325421  0.27476221  1
  Te  Te106  1  0.06825614  0.92611367  0.60799293  1
  Te  Te107  1  0.08713695  0.91687433  0.90908069  1
  Te  Te108  1  0.41003931  0.24552766  0.24616863  1
  Te  Te109  1  0.41418220  0.24504229  0.58990136  1
  Te  Te110  1  0.39086493  0.24510242  0.91745691  1
  Te  Te111  1  0.39862759  0.57242886  0.26226385  1
  Te  Te112  1  0.41870748  0.60553513  0.56383078  1
  Te  Te113  1  0.39450587  0.57005957  0.88107609  1
  Te  Te114  1  0.38739044  0.88176892  0.27075074  1
  Te  Te115  1  0.36920204  0.93582838  0.57848799  1
  Te  Te116  1  0.38990912  0.90584686  0.89836838  1
  Te  Te117  1  0.75561081  0.23590537  0.26047296  1
  Te  Te118  1  0.76012134  0.24887467  0.59679949  1
  Te  Te119  1  0.77340367  0.25796798  0.91969154  1
  Te  Te120  1  0.75502325  0.59248573  0.21662329  1
  Te  Te121  1  0.76127104  0.58870401  0.58758343  1
  Te  Te122  1  0.75007594  0.58996999  0.91851644  1
  Te  Te123  1  0.75677551  0.90923393  0.25017302  1
  Te  Te124  1  0.78139748  0.91328888  0.57775479  1
  Te  Te125  1  0.73942526  0.90818246  0.92994902  1
  Te  Te126  1  0.24311876  0.26181605  0.07459310  1
  Te  Te127  1  0.23535396  0.23064608  0.39667007  1
  Te  Te128  1  0.22133860  0.25082347  0.72819961  1
  Te  Te129  1  0.23263148  0.58699878  0.08669390  1
  Te  Te130  1  0.22043579  0.61506762  0.42597644  1
  Te  Te131  1  0.23208123  0.60349687  0.69728214  1
  Te  Te132  1  0.26173428  0.91666868  0.09313478  1
  Te  Te133  1  0.19910270  0.88801808  0.43553448  1
  Te  Te134  1  0.19980031  0.92516324  0.71623983  1
  Te  Te135  1  0.58495333  0.25900433  0.10295172  1
  Te  Te136  1  0.60978834  0.23649835  0.44289277  1
  Te  Te137  1  0.58079560  0.26917809  0.74732903  1
  Te  Te138  1  0.58824013  0.56183881  0.08528945  1
  Te  Te139  1  0.58741277  0.60327093  0.44064528  1
  Te  Te140  1  0.58322815  0.58247929  0.76007901  1
  Te  Te141  1  0.56641469  0.91158292  0.09013545  1
  Te  Te142  1  0.57546707  0.91817203  0.40120407  1
  Te  Te143  1  0.56830498  0.92962587  0.75721933  1
  Te  Te144  1  0.92897704  0.20744531  0.09083806  1
  Te  Te145  1  0.95993994  0.25399340  0.43006159  1
  Te  Te146  1  0.93132937  0.22969259  0.73117618  1
  Te  Te147  1  0.92694509  0.58720175  0.08832959  1
  Te  Te148  1  0.91534581  0.57554896  0.39759959  1
  Te  Te149  1  0.92002072  0.59645698  0.72331778  1
  Te  Te150  1  0.91446725  0.92006880  0.07707542  1
  Te  Te151  1  0.90310016  0.96375334  0.44536231  1
  Te  Te152  1  0.91784425  0.92191564  0.75005562  1
  Te  Te153  1  0.25768599  0.06688001  0.25731815  1
  Te  Te154  1  0.21994180  0.10936905  0.60040182  1
  Te  Te155  1  0.22462532  0.06736717  0.88942234  1
  Te  Te156  1  0.21642797  0.39156804  0.22860752  1
  Te  Te157  1  0.27458302  0.40801961  0.57706582  1
  Te  Te158  1  0.25309761  0.43011015  0.91284819  1
  Te  Te159  1  0.25222256  0.80151548  0.25211096  1
  Te  Te160  1  0.20750228  0.74747290  0.62831790  1
  Te  Te161  1  0.24092052  0.73825612  0.90390676  1
  Te  Te162  1  0.58568742  0.07833429  0.24589876  1
  Te  Te163  1  0.59130225  0.07928773  0.58667553  1
  Te  Te164  1  0.61189519  0.08601882  0.92641909  1
  Te  Te165  1  0.60289419  0.43741146  0.24459134  1
  Te  Te166  1  0.58577942  0.42309239  0.59079309  1
  Te  Te167  1  0.57012784  0.40849305  0.91508279  1
  Te  Te168  1  0.56897460  0.74661155  0.26860387  1
  Te  Te169  1  0.57363144  0.77129686  0.59350084  1
  Te  Te170  1  0.58441624  0.73227158  0.95215996  1
  Te  Te171  1  0.95149784  0.07523633  0.27309132  1
  Te  Te172  1  0.96360482  0.05718779  0.55580305  1
  Te  Te173  1  0.96096017  0.09686212  0.89315769  1
  Te  Te174  1  0.93519100  0.40479999  0.26276276  1
  Te  Te175  1  0.91717831  0.43307640  0.57879104  1
  Te  Te176  1  0.94024063  0.41108129  0.91507431  1
  Te  Te177  1  0.90429683  0.74526027  0.25172926  1
  Te  Te178  1  0.96967619  0.75639823  0.54872654  1
  Te  Te179  1  0.92217510  0.77090435  0.91250226  1
