# generated using pymatgen
data_In2Te3
_symmetry_space_group_name_H-M   'P 1'
_cell_length_a   18.80165279
_cell_length_b   18.80142471
_cell_length_c   18.80422964
_cell_angle_alpha   90.04317414
_cell_angle_beta   90.03969478
_cell_angle_gamma   89.96164751
_symmetry_Int_Tables_number   1
_chemical_formula_structural   In2Te3
_chemical_formula_sum   'In72 Te108'
_cell_volume   6647.24995441
_cell_formula_units_Z   36
loop_
 _symmetry_equiv_pos_site_id
 _symmetry_equiv_pos_as_xyz
  1  'x, y, z'
loop_
 _atom_site_type_symbol
 _atom_site_label
 _atom_site_symmetry_multiplicity
 _atom_site_fract_x
 _atom_site_fract_y
 _atom_site_fract_z
 _atom_site_occupancy
  In  In0  1  0.34266836  0.18439212  0.86091879  1
  In  In1  1  0.65289108  0.65230552  0.31771319  1
  In  In2  1  0.81314007  0.63569098  0.85989548  1
  In  In3  1  0.33584503  0.82450659  0.16141025  1
  In  In4  1  0.65200478  0.32841730  0.31896500  1
  In  In5  1  0.00664734  0.01403715  0.32727269  1
  In  In6  1  -0.02465447  0.66394902  0.33413002  1
  In  In7  1  0.00567175  0.50214304  0.84349565  1
  In  In8  1  0.35138213  0.67537411  0.64931278  1
  In  In9  1  0.15830966  0.15174577  0.68988152  1
  In  In10  1  0.50880181  0.67412961  0.85107222  1
  In  In11  1  0.81866326  0.83654058  0.31799285  1
  In  In12  1  0.17080297  0.33115450  0.50139130  1
  In  In13  1  0.32325966  0.17598456  0.15271172  1
  In  In14  1  0.80188989  0.34535828  0.84884188  1
  In  In15  1  0.82487639  0.18200881  0.31141300  1
  In  In16  1  0.49884009  0.65776684  0.16451353  1
  In  In17  1  0.67345686  0.48730449  0.15278431  1
  In  In18  1  0.81262259  0.65823709  0.13084860  1
  In  In19  1  0.34055978  0.34925566  0.32291947  1
  In  In20  1  -0.00986196  0.17814406  0.16907595  1
  In  In21  1  0.51318452  -0.01265293  0.82647006  1
  In  In22  1  -0.01984149  0.49028803  0.14982079  1
  In  In23  1  0.33985506  0.81263067  0.83280045  1
  In  In24  1  0.51169297  0.50239867  0.67196908  1
  In  In25  1  0.48376090  0.14880856  0.35319006  1
  In  In26  1  0.66758392  0.81346222  0.15325093  1
  In  In27  1  0.33577730  0.00371735  -0.00131544  1
  In  In28  1  0.66329724  0.17011313  0.13552002  1
  In  In29  1  0.17001544  0.83040762  0.66710961  1
  In  In30  1  -0.03604814  0.84562078  0.85593777  1
  In  In31  1  0.00165505  0.81377457  0.51012741  1
  In  In32  1  0.33249158  0.65559901  -0.01023855  1
  In  In33  1  0.68842441  -0.00519857  0.32765426  1
  In  In34  1  -0.01964919  -0.01957493  0.67179871  1
  In  In35  1  0.34318148  0.49537021  0.81984008  1
  In  In36  1  0.52226919  0.16858672  0.69207803  1
  In  In37  1  0.34153943  0.37147836  0.67768810  1
  In  In38  1  0.16283825  0.50250182  0.65149275  1
  In  In39  1  -0.00228802  0.33124345  0.00599392  1
  In  In40  1  0.82929646  0.32455785  0.51251239  1
  In  In41  1  0.65435649  0.83501459  0.50711337  1
  In  In42  1  0.16934058  0.32256805  0.86224642  1
  In  In43  1  0.33643943  0.33920399  0.01554035  1
  In  In44  1  0.48849649  0.00093136  0.16809724  1
  In  In45  1  0.15066769  0.65263672  0.85638345  1
  In  In46  1  0.66886817  0.67987277  0.65877135  1
  In  In47  1  -0.00797237  0.13947567  0.51448959  1
  In  In48  1  -0.02148641  0.66206872  0.68871288  1
  In  In49  1  0.15643674  0.15077312  0.30746434  1
  In  In50  1  0.14860920  0.00325868  0.83451853  1
  In  In51  1  -0.02246012  0.86350587  0.12671693  1
  In  In52  1  0.15817560  0.67561090  0.14258623  1
  In  In53  1  0.17643447  0.49419512  0.32347022  1
  In  In54  1  0.84684034  0.66085613  0.50805319  1
  In  In55  1  0.16862532  0.65724791  0.50308306  1
  In  In56  1  -0.00077644  0.34771781  0.31486351  1
  In  In57  1  0.51758737  0.34457386  0.14516202  1
  In  In58  1  0.34411179  0.16036467  0.50029831  1
  In  In59  1  0.50876921  0.01420366  0.50122186  1
  In  In60  1  0.37370788  0.68384031  0.34982023  1
  In  In61  1  0.36152552  -0.01245011  0.64141029  1
  In  In62  1  0.83962581  -0.00953981  0.52619795  1
  In  In63  1  0.69783961  0.15305628  0.83170802  1
  In  In64  1  0.14423966  0.00407430  0.15273132  1
  In  In65  1  -0.03329711  0.32356869  0.68908542  1
  In  In66  1  0.68119373  0.17329803  0.53513708  1
  In  In67  1  0.65880659  0.83401028  0.83971157  1
  In  In68  1  0.67218206  0.01019285  -0.00042947  1
  In  In69  1  0.20436132  0.86162151  0.34465243  1
  In  In70  1  0.49200357  0.35169031  0.50071725  1
  In  In71  1  0.66090920  0.50291501  0.49479300  1
  Te  Te72  1  0.06246677  0.09295906  0.06422913  1
  Te  Te73  1  0.10276408  0.07446910  0.42877779  1
  Te  Te74  1  0.04275848  0.08656300  0.76291388  1
  Te  Te75  1  0.09064684  0.41724917  0.08336919  1
  Te  Te76  1  0.07977513  0.42359090  0.42164196  1
  Te  Te77  1  0.09456366  0.40972008  0.75008199  1
  Te  Te78  1  0.06634713  0.76239519  0.06526524  1
  Te  Te79  1  0.09106408  0.74991462  0.40564046  1
  Te  Te80  1  0.07573172  0.75788729  0.76157145  1
  Te  Te81  1  0.42925174  0.10200389  0.06993315  1
  Te  Te82  1  0.38287970  0.04381299  0.40311130  1
  Te  Te83  1  0.40221443  0.08496003  0.75741723  1
  Te  Te84  1  0.42266687  0.43893675  0.08390834  1
  Te  Te85  1  0.42709563  0.43810796  0.40206485  1
  Te  Te86  1  0.45460039  0.39904516  0.77438176  1
  Te  Te87  1  0.42605683  0.75050290  0.06519805  1
  Te  Te88  1  0.42652625  0.77139832  0.45470246  1
  Te  Te89  1  0.44526239  0.75721120  0.73811826  1
  Te  Te90  1  0.77426869  0.10207161  0.06159728  1
  Te  Te91  1  0.76107077  0.08894276  0.42400668  1
  Te  Te92  1  0.79318871  0.07827780  0.74575052  1
  Te  Te93  1  0.75533106  0.43105177  0.04083254  1
  Te  Te94  1  0.74653561  0.40523330  0.41172528  1
  Te  Te95  1  0.70795477  0.43808185  0.78052077  1
  Te  Te96  1  0.74998341  0.76047477  0.04163352  1
  Te  Te97  1  0.74930392  0.74199996  0.41413509  1
  Te  Te98  1  0.75906698  0.74348418  0.76476673  1
  Te  Te99  1  0.09931089  0.26788443  0.23048572  1
  Te  Te100  1  0.07922298  0.24829834  0.59228316  1
  Te  Te101  1  0.05343553  0.23805860  0.89927535  1
  Te  Te102  1  0.07453606  0.58502580  0.24746738  1
  Te  Te103  1  0.05721206  0.58583613  0.57914323  1
  Te  Te104  1  0.08417520  0.56457608  0.95432554  1
  Te  Te105  1  0.07563333  0.90190612  0.24760354  1
  Te  Te106  1  0.08568572  0.92230785  0.57797873  1
  Te  Te107  1  0.07997532  0.90927636  0.92999485  1
  Te  Te108  1  0.43269843  0.24426585  0.24517674  1
  Te  Te109  1  0.42377785  0.24796397  0.59627721  1
  Te  Te110  1  0.43663289  0.27799813  0.92260180  1
  Te  Te111  1  0.39678321  0.58552220  0.24255859  1
  Te  Te112  1  0.41743355  0.56546109  0.57709517  1
  Te  Te113  1  0.43592955  0.56163722  0.92334807  1
  Te  Te114  1  0.41772202  0.90579450  0.25428808  1
  Te  Te115  1  0.44159136  0.88891000  0.56057446  1
  Te  Te116  1  0.42404848  0.90559481  0.92040763  1
  Te  Te117  1  0.74898780  0.27281603  0.21574281  1
  Te  Te118  1  0.74843446  0.26954423  0.62422122  1
  Te  Te119  1  0.75959500  0.23421714  0.94338211  1
  Te  Te120  1  0.76234338  0.57422905  0.24829447  1
  Te  Te121  1  0.75614781  0.57202368  0.59256666  1
  Te  Te122  1  0.71884676  0.56563742  0.95758606  1
  Te  Te123  1  0.75724184  0.92623423  0.21136886  1
  Te  Te124  1  0.74382183  0.90722790  0.59996838  1
  Te  Te125  1  0.75625807  0.92997984  0.90449191  1
  Te  Te126  1  0.23153139  0.24359485  0.06023198  1
  Te  Te127  1  0.25103245  0.24158514  0.40470204  1
  Te  Te128  1  0.25744710  0.25922661  0.74270001  1
  Te  Te129  1  0.26032978  0.58052341  0.09420407  1
  Te  Te130  1  0.26285562  0.58640181  0.40955124  1
  Te  Te131  1  0.24659672  0.60000764  0.74387152  1
  Te  Te132  1  0.24231403  0.91219765  0.07705833  1
  Te  Te133  1  0.26744486  0.94361058  0.44578609  1
  Te  Te134  1  0.25930683  0.92104902  0.75391802  1
  Te  Te135  1  0.59607972  0.26771668  0.04584367  1
  Te  Te136  1  0.58406514  0.23903173  0.42840583  1
  Te  Te137  1  0.61135616  0.25754541  0.76763994  1
  Te  Te138  1  0.60159931  0.59479721  0.07465500  1
  Te  Te139  1  0.56571955  0.58624236  0.41712276  1
  Te  Te140  1  0.60058145  0.58728442  0.76204677  1
  Te  Te141  1  0.57948091  0.91779212  0.07962356  1
  Te  Te142  1  0.58176803  0.91970687  0.40179689  1
  Te  Te143  1  0.58763033  0.90562891  0.72963831  1
  Te  Te144  1  0.89621851  0.24981500  0.07968704  1
  Te  Te145  1  0.93402685  0.23528418  0.40827361  1
  Te  Te146  1  0.91524094  0.24995349  0.80549244  1
  Te  Te147  1  0.92823124  0.59791678  0.05820576  1
  Te  Te148  1  0.90541022  0.56354888  0.41420569  1
  Te  Te149  1  0.89386014  0.55541529  0.75268733  1
  Te  Te150  1  0.87709697  0.92835326  0.03628964  1
  Te  Te151  1  0.91837034  0.91222303  0.41276967  1
  Te  Te152  1  0.87601735  0.93502451  0.77093517  1
  Te  Te153  1  0.25914744  0.06405223  0.23555074  1
  Te  Te154  1  0.24802077  0.07871295  0.58932980  1
  Te  Te155  1  0.23611368  0.09334194  0.92345628  1
  Te  Te156  1  0.24832511  0.40901373  0.22595344  1
  Te  Te157  1  0.26626318  0.43496129  0.56033264  1
  Te  Te158  1  0.24823333  0.43547864  0.92188295  1
  Te  Te159  1  0.24659785  0.74300804  0.25673199  1
  Te  Te160  1  0.25954306  0.76446602  0.56376732  1
  Te  Te161  1  0.23505789  0.75831827  0.92787071  1
  Te  Te162  1  0.59457938  0.09336743  0.25482491  1
  Te  Te163  1  0.60303489  0.06682828  0.61055043  1
  Te  Te164  1  0.57561865  0.09192617  0.91381020  1
  Te  Te165  1  0.57065555  0.43943932  0.25537177  1
  Te  Te166  1  0.59973138  0.40242618  0.59375580  1
  Te  Te167  1  0.65154115  0.42725436  0.92048715  1
  Te  Te168  1  0.56864870  0.76275447  0.25705459  1
  Te  Te169  1  0.57004845  0.71991757  0.55306289  1
  Te  Te170  1  0.59681227  0.74878116  0.94538177  1
  Te  Te171  1  0.90024331  0.07104706  0.23609090  1
  Te  Te172  1  0.88294639  0.10861596  0.61689319  1
  Te  Te173  1  0.96421737  0.02132753  0.95811278  1
  Te  Te174  1  0.89145887  0.41400839  0.24046462  1
  Te  Te175  1  0.91681001  0.41688707  0.58797680  1
  Te  Te176  1  0.90463507  0.42976896  0.93008328  1
  Te  Te177  1  0.90895364  0.75296620  0.22694043  1
  Te  Te178  1  0.89837524  0.76647621  0.60923460  1
  Te  Te179  1  0.92156986  0.71953584  0.92396113  1
