# generated using pymatgen
data_In2Te3
_symmetry_space_group_name_H-M   'P 1'
_cell_length_a   18.79237685
_cell_length_b   18.79008469
_cell_length_c   18.78457438
_cell_angle_alpha   89.99076822
_cell_angle_beta   90.01637543
_cell_angle_gamma   89.89791521
_symmetry_Int_Tables_number   1
_chemical_formula_structural   In2Te3
_chemical_formula_sum   'In72 Te108'
_cell_volume   6633.01679379
_cell_formula_units_Z   36
loop_
 _symmetry_equiv_pos_site_id
 _symmetry_equiv_pos_as_xyz
  1  'x, y, z'
loop_
 _atom_site_type_symbol
 _atom_site_label
 _atom_site_symmetry_multiplicity
 _atom_site_fract_x
 _atom_site_fract_y
 _atom_site_fract_z
 _atom_site_occupancy
  In  In0  1  0.47467246  0.16212739  0.67267697  1
  In  In1  1  0.33056883  0.66984670  0.34647272  1
  In  In2  1  -0.00039509  0.01143099  0.66531737  1
  In  In3  1  -0.00176600  0.53147824  0.85202007  1
  In  In4  1  0.32772703  0.81611480  0.48594137  1
  In  In5  1  0.50125963  0.67754716  0.48594921  1
  In  In6  1  0.84688503  0.69516732  0.16213657  1
  In  In7  1  0.49019205  0.31261177  0.85652834  1
  In  In8  1  0.50332392  -0.00413352  0.86564800  1
  In  In9  1  0.67794531  0.67565709  0.01071308  1
  In  In10  1  0.35864830  0.84819255  0.16926664  1
  In  In11  1  0.17484648  0.85424956  0.70297463  1
  In  In12  1  0.82241140  0.16419202  -0.01405022  1
  In  In13  1  0.35911201  0.33638915  0.32093709  1
  In  In14  1  0.49051628  0.50671269  0.33794981  1
  In  In15  1  0.35852472  0.00856081  0.02503181  1
  In  In16  1  0.68812688  0.80414370  0.46093690  1
  In  In17  1  0.16063100  0.84050717  0.01952472  1
  In  In18  1  -0.00962155  0.32924184  0.69876391  1
  In  In19  1  0.34346348  0.14726241  0.84600178  1
  In  In20  1  0.15813828  0.50141596  -0.00988758  1
  In  In21  1  0.50281261  0.49168237  0.64179430  1
  In  In22  1  0.18572828  -0.01097753  0.47151483  1
  In  In23  1  0.53117273  0.70218174  0.17699863  1
  In  In24  1  0.64642808  0.49035721  0.48610198  1
  In  In25  1  0.81612009  0.17305845  0.33587104  1
  In  In26  1  -0.02208796  0.84626355  0.49153858  1
  In  In27  1  0.34940127  0.66029457  0.68442459  1
  In  In28  1  0.49086419  -0.00943582  0.46041224  1
  In  In29  1  0.02156892  0.70225451  0.65628611  1
  In  In30  1  -0.02482231  0.50439894  0.48094719  1
  In  In31  1  0.82372601  0.83641226  0.67305024  1
  In  In32  1  0.16893249  0.15266739  0.01266929  1
  In  In33  1  0.35820335  0.46891266  0.16706784  1
  In  In34  1  0.65892210  0.13960326  0.84325622  1
  In  In35  1  0.16141611  0.33139032  0.49545665  1
  In  In36  1  0.34800069  0.30629996  0.66169436  1
  In  In37  1  0.82403994  0.51863475  0.33418769  1
  In  In38  1  0.65661287  0.01029257  0.02557971  1
  In  In39  1  0.65788276  0.18044754  0.48257512  1
  In  In40  1  0.65329452  0.48879521  0.16477531  1
  In  In41  1  -0.00876576  0.15751439  0.15492064  1
  In  In42  1  -0.00439352  0.12103704  0.48276110  1
  In  In43  1  0.01405004  -0.01258891  0.34164988  1
  In  In44  1  0.32262025  0.67259309  0.00499394  1
  In  In45  1  0.69052658  0.65769656  0.66498444  1
  In  In46  1  0.00962419  0.52135631  0.16543441  1
  In  In47  1  0.17399596  0.66154531  0.49065651  1
  In  In48  1  0.51674335  0.29240693  0.14181427  1
  In  In49  1  0.50002161  0.84642527  0.67465967  1
  In  In50  1  0.19147693  0.50514429  0.66791861  1
  In  In51  1  0.83647115  0.01605557  0.48470462  1
  In  In52  1  0.19093395  0.33270166  0.15047379  1
  In  In53  1  0.83426204  -0.03375761  0.15422824  1
  In  In54  1  0.17486869  0.32695314  0.85340039  1
  In  In55  1  0.15080645  0.67496922  0.15831281  1
  In  In56  1  0.15699314  0.85750841  0.33075414  1
  In  In57  1  0.33193175  0.15157464  0.46859800  1
  In  In58  1  0.83947999  -0.02505970  0.86747618  1
  In  In59  1  0.00013432  0.32999742  0.30665646  1
  In  In60  1  0.81016727  0.51618572  0.67061048  1
  In  In61  1  0.32131441  0.50497438  0.83804890  1
  In  In62  1  0.82967194  0.49669552  0.01831819  1
  In  In63  1  0.81131134  0.33079991  0.50295945  1
  In  In64  1  0.65053749  0.49087295  0.83829028  1
  In  In65  1  0.82612097  0.35687896  0.83188071  1
  In  In66  1  0.00579780  0.15049257  0.83930882  1
  In  In67  1  0.80154811  0.30589705  0.18219093  1
  In  In68  1  0.49940009  0.68833308  0.84823580  1
  In  In69  1  0.85689674  0.69701270  0.85987917  1
  In  In70  1  0.65787877  0.00317414  0.66704738  1
  In  In71  1  0.14336254  0.14524839  0.65963639  1
  Te  Te72  1  0.09179555  0.06115021  0.10263614  1
  Te  Te73  1  0.11254151  0.09953480  0.38718699  1
  Te  Te74  1  0.10203707  0.05190621  0.77398285  1
  Te  Te75  1  0.07714754  0.41122143  0.08261185  1
  Te  Te76  1  0.07738689  0.42170933  0.40286257  1
  Te  Te77  1  0.09640359  0.42617403  0.76307324  1
  Te  Te78  1  0.05383091  0.78091918  0.11512874  1
  Te  Te79  1  0.08030133  0.75703719  0.41708189  1
  Te  Te80  1  0.08214850  0.76550521  0.77421407  1
  Te  Te81  1  0.42409525  0.08257046  0.13933089  1
  Te  Te82  1  0.43820235  0.10138198  0.37433924  1
  Te  Te83  1  0.40690746  0.04637144  0.74615265  1
  Te  Te84  1  0.44786778  0.40548124  0.06878413  1
  Te  Te85  1  0.42344021  0.41360176  0.42991731  1
  Te  Te86  1  0.41367415  0.41610217  0.75214773  1
  Te  Te87  1  0.43220045  0.75831214  0.07081573  1
  Te  Te88  1  0.43676662  0.77296808  0.38639226  1
  Te  Te89  1  0.40116457  0.77646798  0.76811149  1
  Te  Te90  1  0.75881564  0.09365876  0.10649720  1
  Te  Te91  1  0.72300508  0.06629873  0.39559809  1
  Te  Te92  1  0.76156335  0.06241509  0.76168799  1
  Te  Te93  1  0.73287220  0.39401983  0.07518228  1
  Te  Te94  1  0.73751632  0.40699500  0.39412973  1
  Te  Te95  1  0.72144885  0.40751070  0.73079740  1
  Te  Te96  1  0.74747284  0.78422364  0.08970557  1
  Te  Te97  1  0.79271695  0.74463433  0.37427576  1
  Te  Te98  1  0.74368543  0.75417245  0.77291954  1
  Te  Te99  1  0.09669181  0.24022335  0.23235263  1
  Te  Te100  1  0.06299778  0.25017601  0.58123248  1
  Te  Te101  1  0.07469694  0.24868894  0.93470570  1
  Te  Te102  1  0.08614485  0.59603226  0.26610382  1
  Te  Te103  1  0.07784416  0.57382333  0.58736928  1
  Te  Te104  1  0.08504831  0.61680017  0.93400131  1
  Te  Te105  1  0.08026121  0.92645718  0.22196081  1
  Te  Te106  1  0.08475801  0.92136146  0.57297837  1
  Te  Te107  1  0.04989986  0.90265766  0.93828024  1
  Te  Te108  1  0.40718612  0.22955952  0.22566697  1
  Te  Te109  1  0.43100363  0.24468964  0.55218369  1
  Te  Te110  1  0.39602988  0.24133532  0.94740098  1
  Te  Te111  1  0.41872764  0.60113443  0.23578353  1
  Te  Te112  1  0.40813601  0.58519853  0.56527498  1
  Te  Te113  1  0.42001328  0.58229335  0.92464737  1
  Te  Te114  1  0.45811502  0.94560515  0.22838893  1
  Te  Te115  1  0.41151547  0.91365741  0.56906158  1
  Te  Te116  1  0.41687354  0.90200607  0.93880743  1
  Te  Te117  1  0.69355256  0.23591296  0.26560633  1
  Te  Te118  1  0.74647373  0.23129335  0.58924742  1
  Te  Te119  1  0.73378801  0.26007531  0.90713446  1
  Te  Te120  1  0.74559771  0.59193574  0.22600955  1
  Te  Te121  1  0.75359386  0.58503351  0.54630316  1
  Te  Te122  1  0.75909013  0.57790622  0.90506407  1
  Te  Te123  1  0.72141669  0.88853968  0.21563868  1
  Te  Te124  1  0.74405540  0.91820988  0.56912155  1
  Te  Te125  1  0.73116776  0.90889007  0.94301860  1
  Te  Te126  1  0.27453701  0.22637973  0.08889795  1
  Te  Te127  1  0.24663088  0.25752647  0.39534491  1
  Te  Te128  1  0.24119938  0.23515047  0.74834511  1
  Te  Te129  1  0.25169378  0.56855468  0.09660002  1
  Te  Te130  1  0.25874301  0.56446476  0.42008664  1
  Te  Te131  1  0.23295567  0.60985899  0.77096076  1
  Te  Te132  1  0.25046548  0.93403145  0.10762467  1
  Te  Te133  1  0.29372800  0.92657465  0.37447584  1
  Te  Te134  1  0.26874851  0.95340999  0.74809376  1
  Te  Te135  1  0.61217499  0.20534529  0.06804859  1
  Te  Te136  1  0.59304158  0.25947308  0.37758210  1
  Te  Te137  1  0.57707110  0.23853899  0.75431605  1
  Te  Te138  1  0.57367346  0.58857877  0.07992106  1
  Te  Te139  1  0.59617708  0.60256189  0.39300292  1
  Te  Te140  1  0.56955184  0.59114076  0.74095739  1
  Te  Te141  1  0.56988162  0.92168269  0.11477438  1
  Te  Te142  1  0.59803788  0.90558066  0.39740094  1
  Te  Te143  1  0.59607499  0.91325668  0.77272214  1
  Te  Te144  1  0.90386500  0.25667601  0.07905282  1
  Te  Te145  1  0.92382666  0.25147471  0.41591996  1
  Te  Te146  1  0.89772215  0.23222002  0.76808035  1
  Te  Te147  1  0.92680232  0.60414214  0.06611259  1
  Te  Te148  1  0.92694686  0.61113284  0.39034979  1
  Te  Te149  1  0.91655866  0.60311215  0.74329040  1
  Te  Te150  1  0.93537304  0.89325525  0.06865780  1
  Te  Te151  1  0.88651618  0.90903360  0.38360790  1
  Te  Te152  1  0.92782657  0.91039566  0.75365313  1
  Te  Te153  1  0.27179155  0.06779272  0.32703279  1
  Te  Te154  1  0.25282488  0.07696706  0.57864837  1
  Te  Te155  1  0.24789655  0.05750014  0.92253253  1
  Te  Te156  1  0.24525761  0.42541388  0.25823946  1
  Te  Te157  1  0.26572101  0.40733205  0.57812112  1
  Te  Te158  1  0.26957559  0.40537692  0.94175174  1
  Te  Te159  1  0.25076647  0.75589431  0.24612479  1
  Te  Te160  1  0.24476365  0.74959039  0.59635406  1
  Te  Te161  1  0.25198395  0.77228993  0.92305490  1
  Te  Te162  1  0.57272153  0.05561365  0.18673236  1
  Te  Te163  1  0.56379093  0.07759775  0.57355300  1
  Te  Te164  1  0.55324862  0.11418209  0.95579697  1
  Te  Te165  1  0.56054106  0.40419770  0.24771328  1
  Te  Te166  1  0.58948551  0.39081982  0.57931164  1
  Te  Te167  1  0.57324516  0.40968917  0.93406256  1
  Te  Te168  1  0.61909285  0.78084601  0.26722944  1
  Te  Te169  1  0.58994362  0.75455211  0.58820479  1
  Te  Te170  1  0.59533448  0.76716075  0.92731303  1
  Te  Te171  1  0.91129652  0.07873350  0.26038168  1
  Te  Te172  1  0.89678442  0.10216483  0.59655233  1
  Te  Te173  1  0.93341365  0.06722487  0.94508043  1
  Te  Te174  1  0.90096800  0.42230203  0.23259905  1
  Te  Te175  1  0.91314995  0.41826989  0.59392763  1
  Te  Te176  1  0.92763285  0.41897610  0.92701865  1
  Te  Te177  1  0.90731469  0.77294280  0.27275672  1
  Te  Te178  1  0.89938499  0.74493082  0.57524804  1
  Te  Te179  1  0.93134267  0.80002505  0.94001174  1
