# generated using pymatgen
data_In2Te3
_symmetry_space_group_name_H-M   'P 1'
_cell_length_a   18.78118367
_cell_length_b   18.77933490
_cell_length_c   18.78185847
_cell_angle_alpha   90.02674755
_cell_angle_beta   90.06154498
_cell_angle_gamma   90.05619178
_symmetry_Int_Tables_number   1
_chemical_formula_structural   In2Te3
_chemical_formula_sum   'In72 Te108'
_cell_volume   6624.31877708
_cell_formula_units_Z   36
loop_
 _symmetry_equiv_pos_site_id
 _symmetry_equiv_pos_as_xyz
  1  'x, y, z'
loop_
 _atom_site_type_symbol
 _atom_site_label
 _atom_site_symmetry_multiplicity
 _atom_site_fract_x
 _atom_site_fract_y
 _atom_site_fract_z
 _atom_site_occupancy
  In  In0  1  0.66041848  0.18927864  0.82475724  1
  In  In1  1  0.14684530  0.50167856  0.34374616  1
  In  In2  1  -0.03178023  0.63922579  0.03750363  1
  In  In3  1  0.67236629  0.01256839  0.32795396  1
  In  In4  1  0.83277890  0.49250965  0.30514101  1
  In  In5  1  0.01029583  0.15101021  0.84422911  1
  In  In6  1  -0.00430343  0.49735643  0.50889173  1
  In  In7  1  0.50524649  0.84456126  0.32912451  1
  In  In8  1  0.53001485  0.19029115  0.01601206  1
  In  In9  1  0.51102567  0.16409430  0.31789877  1
  In  In10  1  0.64961254  0.48392583  0.51609540  1
  In  In11  1  0.17696614  0.03677353  0.51997833  1
  In  In12  1  0.17191618  0.15059014  0.33670285  1
  In  In13  1  -0.00343001  0.16091370  0.18508895  1
  In  In14  1  0.84904386  0.30854558  0.47993743  1
  In  In15  1  0.17029022  0.50083722  0.67445423  1
  In  In16  1  0.17852678  -0.00168383  0.81212689  1
  In  In17  1  0.15319280  0.66000065  0.18980723  1
  In  In18  1  0.49722626  0.01548740  0.50659075  1
  In  In19  1  -0.00537521  0.83566072  0.49388281  1
  In  In20  1  0.00139628  0.33433388  0.65871674  1
  In  In21  1  0.18341066  0.48582800  -0.00698689  1
  In  In22  1  0.35298801  0.49233961  0.51481818  1
  In  In23  1  -0.00585493  0.69297126  0.32580554  1
  In  In24  1  0.18114425  0.83012933  0.67730414  1
  In  In25  1  0.66049658  0.68062889  0.00369104  1
  In  In26  1  0.49024918  0.80622177  0.67674754  1
  In  In27  1  0.34369209  0.33084589  0.33289517  1
  In  In28  1  0.17539732  0.81062345  -0.01499663  1
  In  In29  1  0.84593133  0.65411085  0.82882543  1
  In  In30  1  0.80867510  -0.01731333  0.83989882  1
  In  In31  1  0.16408667  0.32743773  0.51658016  1
  In  In32  1  0.34394987  0.48685267  0.14850224  1
  In  In33  1  0.49923673  0.33066065  0.82678884  1
  In  In34  1  0.65726228  0.50313614  0.82776506  1
  In  In35  1  0.15764735  0.32924427  0.14585284  1
  In  In36  1  0.69003201  0.65271981  0.32322189  1
  In  In37  1  0.13930671  0.83591668  0.34692026  1
  In  In38  1  0.67188000  0.84285110  0.15841705  1
  In  In39  1  -0.01475977  -0.00174413  0.33224444  1
  In  In40  1  0.64714423  0.66387621  0.67803669  1
  In  In41  1  0.81436401  0.15114049  0.00018230  1
  In  In42  1  0.67142092  0.15910399  0.49907062  1
  In  In43  1  0.81762377  0.84214400  0.65910538  1
  In  In44  1  0.48999068  0.65041491  0.14835087  1
  In  In45  1  0.32273209  0.64489283  0.34093117  1
  In  In46  1  0.66522726  0.00512459  0.01616822  1
  In  In47  1  0.35300478  0.84138372  0.16970796  1
  In  In48  1  0.35996250  0.01671668  -0.00758534  1
  In  In49  1  0.00192612  0.33640908  -0.01548171  1
  In  In50  1  0.66241693  0.33854161  0.30626535  1
  In  In51  1  -0.00990055  0.49082019  0.83206510  1
  In  In52  1  0.32811980  0.84001213  0.51731725  1
  In  In53  1  0.35715348  0.34529276  -0.01026891  1
  In  In54  1  0.66865232  -0.00323273  0.64754910  1
  In  In55  1  0.51828114  0.66071784  0.50076640  1
  In  In56  1  0.17664375  0.66196853  0.83914692  1
  In  In57  1  0.01689354  0.82207566  0.85140572  1
  In  In58  1  0.34751210  0.00286725  0.32934338  1
  In  In59  1  0.82255848  0.35823967  0.83901269  1
  In  In60  1  -0.05189705  0.84222005  0.14415030  1
  In  In61  1  0.80764751  0.34275932  0.15727102  1
  In  In62  1  0.17852245  0.00991576  0.17815019  1
  In  In63  1  0.35657822  0.49764256  0.83821833  1
  In  In64  1  0.47749899  0.01706317  0.80891387  1
  In  In65  1  0.17485954  0.16317095  0.01347256  1
  In  In66  1  0.84752401  0.18119627  0.64686864  1
  In  In67  1  0.65466998  0.84049156  0.87031932  1
  In  In68  1  0.33819863  0.66404112  -0.03245254  1
  In  In69  1  0.81476811  0.67490761  0.49994154  1
  In  In70  1  -0.01355303  0.01670006  0.65955664  1
  In  In71  1  0.48085457  0.32419481  0.52703637  1
  Te  Te72  1  0.07514181  0.07411492  0.08475039  1
  Te  Te73  1  0.05903077  0.09448602  0.42731737  1
  Te  Te74  1  0.09540478  0.09877846  0.72932410  1
  Te  Te75  1  0.07001458  0.43507687  0.08285663  1
  Te  Te76  1  0.06632199  0.39627937  0.41884984  1
  Te  Te77  1  0.09209761  0.40157626  0.76139811  1
  Te  Te78  1  0.07777544  0.74892489  0.08908428  1
  Te  Te79  1  0.09296734  0.72714726  0.43950915  1
  Te  Te80  1  0.07894212  0.73429525  0.74502241  1
  Te  Te81  1  0.43466887  0.10116038  0.08765187  1
  Te  Te82  1  0.41001203  0.10599231  0.42218383  1
  Te  Te83  1  0.39887592  0.12533380  0.74063504  1
  Te  Te84  1  0.45318510  0.40658062  0.08714671  1
  Te  Te85  1  0.43864224  0.42058120  0.41154440  1
  Te  Te86  1  0.41917218  0.41442568  0.73128195  1
  Te  Te87  1  0.41955766  0.75597975  0.06273283  1
  Te  Te88  1  0.41274458  0.75433766  0.41240718  1
  Te  Te89  1  0.40324051  0.74782286  0.77916118  1
  Te  Te90  1  0.72867240  0.10112221  0.11228913  1
  Te  Te91  1  0.76568386  0.10759643  0.39813724  1
  Te  Te92  1  0.75860789  0.09033208  0.74403115  1
  Te  Te93  1  0.69623986  0.39681981  0.07352344  1
  Te  Te94  1  0.75025099  0.41867141  0.41614109  1
  Te  Te95  1  0.74191787  0.42233762  0.73511354  1
  Te  Te96  1  0.76196238  0.74287937  0.09447370  1
  Te  Te97  1  0.73854383  0.76176477  0.40909958  1
  Te  Te98  1  0.74470028  0.75866312  0.76548587  1
  Te  Te99  1  0.08881681  0.25651128  0.26061194  1
  Te  Te100  1  0.07740981  0.22934642  0.58835043  1
  Te  Te101  1  0.10469848  0.25190601  0.90987572  1
  Te  Te102  1  0.04757545  0.56939949  0.24943317  1
  Te  Te103  1  0.07858306  0.58434213  0.59432689  1
  Te  Te104  1  0.07735803  0.58562794  0.92848601  1
  Te  Te105  1  0.07365670  0.90813740  0.23009381  1
  Te  Te106  1  0.08940141  0.92185328  0.58172970  1
  Te  Te107  1  0.09577144  0.92893192  0.92437515  1
  Te  Te108  1  0.42684677  0.25627851  0.23739966  1
  Te  Te109  1  0.38765144  0.23395896  0.60418290  1
  Te  Te110  1  0.42132859  0.23055840  0.91396513  1
  Te  Te111  1  0.42055308  0.56501804  0.25742831  1
  Te  Te112  1  0.42617736  0.59408187  0.59345564  1
  Te  Te113  1  0.43955137  0.56027741  0.94344705  1
  Te  Te114  1  0.44798155  0.94529995  0.22978490  1
  Te  Te115  1  0.41951466  0.92659230  0.60300768  1
  Te  Te116  1  0.43285339  0.91906169  0.90975438  1
  Te  Te117  1  0.76720395  0.24393503  0.26215957  1
  Te  Te118  1  0.74055298  0.26766930  0.58379924  1
  Te  Te119  1  0.73976690  0.26497716  0.93025484  1
  Te  Te120  1  0.74793875  0.57161291  0.20798843  1
  Te  Te121  1  0.74209074  0.57878548  0.59447474  1
  Te  Te122  1  0.75197866  0.58164726  0.92164184  1
  Te  Te123  1  0.75881581  0.91671888  0.25300067  1
  Te  Te124  1  0.76987915  0.93792287  0.55675799  1
  Te  Te125  1  0.77156494  0.89544851  0.96198791  1
  Te  Te126  1  0.27334894  0.25516104  0.08510599  1
  Te  Te127  1  0.25579347  0.24528040  0.42428929  1
  Te  Te128  1  0.27470645  0.21718259  0.71206322  1
  Te  Te129  1  0.24856139  0.59847852  0.08569650  1
  Te  Te130  1  0.23934049  0.57096235  0.44338222  1
  Te  Te131  1  0.27262101  0.58944053  0.74704134  1
  Te  Te132  1  0.25086870  0.91544214  0.07976580  1
  Te  Te133  1  0.24047269  0.93144183  0.41462157  1
  Te  Te134  1  0.27950099  0.92982526  0.72870498  1
  Te  Te135  1  0.59959943  0.28311106  0.11631036  1
  Te  Te136  1  0.58142784  0.26067483  0.42133589  1
  Te  Te137  1  0.58577092  0.26360802  0.72322694  1
  Te  Te138  1  0.60167444  0.57262804  0.09055095  1
  Te  Te139  1  0.59006494  0.56854543  0.40206668  1
  Te  Te140  1  0.55361588  0.59878446  0.77230597  1
  Te  Te141  1  0.57136330  0.90261636  0.06687131  1
  Te  Te142  1  0.58958172  0.92495444  0.42684318  1
  Te  Te143  1  0.59024842  0.91536301  0.75017768  1
  Te  Te144  1  0.92042311  0.24383350  0.07325878  1
  Te  Te145  1  0.94511024  0.20766823  0.43499886  1
  Te  Te146  1  0.91504542  0.24958179  0.77410945  1
  Te  Te147  1  0.88010575  0.56042978  0.12319922  1
  Te  Te148  1  0.90774223  0.58557815  0.41266640  1
  Te  Te149  1  0.92282983  0.57486608  0.73172482  1
  Te  Te150  1  0.89062360  0.94142939  0.05480047  1
  Te  Te151  1  0.90094286  0.89471298  0.39683872  1
  Te  Te152  1  0.92690814  0.91232632  0.75621536  1
  Te  Te153  1  0.27947951  0.10626288  0.23674683  1
  Te  Te154  1  0.28117608  0.10038389  0.60598828  1
  Te  Te155  1  0.25721885  0.09153440  0.90690572  1
  Te  Te156  1  0.24047396  0.42419495  0.24842592  1
  Te  Te157  1  0.26414858  0.40340433  0.60322427  1
  Te  Te158  1  0.25107299  0.39719769  0.89199510  1
  Te  Te159  1  0.25465185  0.76132713  0.25751417  1
  Te  Te160  1  0.25579943  0.73602000  0.59055117  1
  Te  Te161  1  0.27960951  0.77949914  0.87337435  1
  Te  Te162  1  0.60129461  0.09305301  0.22170735  1
  Te  Te163  1  0.57168406  0.10569487  0.60511773  1
  Te  Te164  1  0.58863017  0.07935828  0.90425261  1
  Te  Te165  1  0.58003336  0.41298570  0.20696726  1
  Te  Te166  1  0.55159256  0.42504680  0.61304937  1
  Te  Te167  1  0.58597990  0.40976893  0.91995824  1
  Te  Te168  1  0.57512340  0.73698506  0.24813096  1
  Te  Te169  1  0.59920074  0.76689641  0.57531784  1
  Te  Te170  1  0.56514689  0.72359932  0.89406615  1
  Te  Te171  1  0.89434121  0.07023448  0.23965498  1
  Te  Te172  1  0.89191459  0.06984180  0.55738811  1
  Te  Te173  1  0.91583807  0.06260811  0.92409081  1
  Te  Te174  1  0.91730724  0.38666659  0.24776881  1
  Te  Te175  1  0.89544633  0.41454484  0.58856635  1
  Te  Te176  1  0.89770229  0.44052263  0.94385684  1
  Te  Te177  1  0.88652391  0.75340160  0.24387826  1
  Te  Te178  1  0.91567949  0.74704695  0.59121793  1
  Te  Te179  1  0.91696397  0.74144711  0.93371660  1
