# generated using pymatgen
data_In2Te3
_symmetry_space_group_name_H-M   'P 1'
_cell_length_a   18.86765321
_cell_length_b   18.87664445
_cell_length_c   18.86340020
_cell_angle_alpha   89.98574016
_cell_angle_beta   90.09535439
_cell_angle_gamma   90.08022166
_symmetry_Int_Tables_number   1
_chemical_formula_structural   In2Te3
_chemical_formula_sum   'In72 Te108'
_cell_volume   6718.33444330
_cell_formula_units_Z   36
loop_
 _symmetry_equiv_pos_site_id
 _symmetry_equiv_pos_as_xyz
  1  'x, y, z'
loop_
 _atom_site_type_symbol
 _atom_site_label
 _atom_site_symmetry_multiplicity
 _atom_site_fract_x
 _atom_site_fract_y
 _atom_site_fract_z
 _atom_site_occupancy
  In  In0  1  -0.07520727  0.20241277  0.51887947  1
  In  In1  1  0.49485339  0.83750853  0.63376333  1
  In  In2  1  0.53025725  0.32201223  0.80909556  1
  In  In3  1  0.32406514  0.35078907  -0.00964418  1
  In  In4  1  -0.00077818  0.66980285  -0.00362079  1
  In  In5  1  -0.01532123  0.83709807  0.49911427  1
  In  In6  1  0.14601439  0.17301783  0.67427537  1
  In  In7  1  0.84711039  0.18533717  -0.01094919  1
  In  In8  1  0.14046510  -0.01081464  0.15262845  1
  In  In9  1  -0.00360497  0.68576517  0.33798699  1
  In  In10  1  0.01381586  -0.00406016  0.35276295  1
  In  In11  1  0.50111175  0.83518833  0.35587906  1
  In  In12  1  0.33705233  0.51199903  0.50037909  1
  In  In13  1  0.16203197  0.64104499  0.81574483  1
  In  In14  1  0.50989781  0.18797055  0.01239125  1
  In  In15  1  0.16764746  0.83015660  0.65049899  1
  In  In16  1  0.34631813  0.02925294  -0.00236679  1
  In  In17  1  0.14829713  0.32063150  0.48894810  1
  In  In18  1  0.16118803  0.49561602  0.35410064  1
  In  In19  1  0.67721571  0.00835760  0.67242234  1
  In  In20  1  0.48122296  0.01440223  0.83308881  1
  In  In21  1  0.32323823  0.16610103  0.81615507  1
  In  In22  1  0.69084996  -0.01100206  -0.00414416  1
  In  In23  1  0.00807036  0.15376859  0.17503105  1
  In  In24  1  0.35112587  -0.00647039  0.67098206  1
  In  In25  1  -0.01163374  0.66150389  0.68036487  1
  In  In26  1  -0.04106208  0.48002588  0.53564914  1
  In  In27  1  0.53922420  0.82638853  0.00489978  1
  In  In28  1  0.84358821  0.00570763  0.18739560  1
  In  In29  1  0.13721150  0.47961355  0.66212320  1
  In  In30  1  0.69735889  0.84481241  0.16096756  1
  In  In31  1  0.64770006  0.48165948  0.16196622  1
  In  In32  1  0.00608344  0.16723130  0.84043454  1
  In  In33  1  0.68672561  0.64444467  -0.02443773  1
  In  In34  1  0.35453563  0.18834613  0.17999198  1
  In  In35  1  0.16248415  0.30813515  0.16385500  1
  In  In36  1  0.80114507  0.49024396  0.35480226  1
  In  In37  1  0.00048923  0.32859274  -0.01882510  1
  In  In38  1  0.17834078  0.67290282  0.15003083  1
  In  In39  1  -0.00832993  -0.00084409  -0.01288662  1
  In  In40  1  0.57034619  0.33663497  0.50713757  1
  In  In41  1  0.31815660  0.65528052  0.67314193  1
  In  In42  1  0.49316167  0.49300030  -0.00228958  1
  In  In43  1  0.13288999  0.82751332  -0.00819960  1
  In  In44  1  0.34756309  0.50802477  0.16411237  1
  In  In45  1  0.80595968  0.64120436  0.52290833  1
  In  In46  1  0.67210527  0.49462328  0.82001012  1
  In  In47  1  -0.00286400  0.49916903  0.15204246  1
  In  In48  1  0.82878734  0.32999108  0.82404168  1
  In  In49  1  0.47931567  0.65358362  0.19011730  1
  In  In50  1  0.35084275  0.33991472  0.33624606  1
  In  In51  1  0.69048538  0.82324844  0.51257243  1
  In  In52  1  0.51608382  0.02526603  0.50063833  1
  In  In53  1  0.50972482  0.65816852  0.50799296  1
  In  In54  1  0.51280648  0.49500218  0.31368980  1
  In  In55  1  0.68646415  0.15698024  0.81569981  1
  In  In56  1  0.80181463  0.34669552  0.17232750  1
  In  In57  1  0.66134936  0.16477312  0.19054426  1
  In  In58  1  0.35225218  0.33209816  0.67174059  1
  In  In59  1  0.31341120  0.84654775  0.18123563  1
  In  In60  1  0.51297783  0.65446535  0.84434793  1
  In  In61  1  0.34798378  0.64933977  0.01063151  1
  In  In62  1  0.32079039  0.82549979  0.83392100  1
  In  In63  1  0.16129043  -0.01089580  0.51000058  1
  In  In64  1  -0.02094416  0.50162255  0.81324107  1
  In  In65  1  0.33082477  -0.00420089  0.34672814  1
  In  In66  1  0.80418149  0.04209841  0.49741671  1
  In  In67  1  0.65427573  0.67885560  0.35389389  1
  In  In68  1  0.15801766  0.14608247  0.32314070  1
  In  In69  1  0.84263723  0.67002266  0.17867932  1
  In  In70  1  0.84673506  0.85090906  -0.04863054  1
  In  In71  1  0.35945108  0.16156446  0.50168497  1
  Te  Te72  1  0.08738267  0.09643835  0.05954424  1
  Te  Te73  1  0.07897553  0.09995137  0.44485135  1
  Te  Te74  1  0.07718212  0.07053792  0.75245396  1
  Te  Te75  1  0.09239912  0.40983339  0.07446447  1
  Te  Te76  1  0.05163429  0.41806977  0.42504764  1
  Te  Te77  1  0.05940544  0.39464549  0.75225757  1
  Te  Te78  1  0.06017919  0.75821374  0.10496208  1
  Te  Te79  1  0.08563782  0.75398777  0.43198401  1
  Te  Te80  1  0.08391473  0.75494204  0.75463217  1
  Te  Te81  1  0.43963264  0.08567109  0.10225568  1
  Te  Te82  1  0.43694426  0.09857088  0.38776012  1
  Te  Te83  1  0.43210352  0.10973570  0.72494493  1
  Te  Te84  1  0.42762529  0.39950889  0.09746754  1
  Te  Te85  1  0.43822199  0.41712851  0.43393167  1
  Te  Te86  1  0.44298608  0.42112548  0.74502297  1
  Te  Te87  1  0.42079731  0.75926292  0.08710321  1
  Te  Te88  1  0.41663727  0.74056985  0.42850086  1
  Te  Te89  1  0.42320728  0.75197496  0.74904089  1
  Te  Te90  1  0.76309708  0.09186677  0.08345127  1
  Te  Te91  1  0.71907514  0.10837231  0.38757410  1
  Te  Te92  1  0.78871363  0.09546855  0.72579226  1
  Te  Te93  1  0.74970912  0.43605307  0.06747743  1
  Te  Te94  1  0.75638381  0.38372772  0.44902506  1
  Te  Te95  1  0.73422019  0.39471368  0.72378933  1
  Te  Te96  1  0.76175546  0.74934228  0.06228531  1
  Te  Te97  1  0.77395867  0.74858435  0.41076820  1
  Te  Te98  1  0.77879386  0.81201607  0.72646313  1
  Te  Te99  1  0.06847995  0.25928362  0.27281941  1
  Te  Te100  1  0.05369716  0.25971467  0.58900077  1
  Te  Te101  1  0.10388608  0.25229320  0.91304440  1
  Te  Te102  1  0.08479028  0.58328936  0.24565131  1
  Te  Te103  1  0.07035370  0.58453504  0.57801614  1
  Te  Te104  1  0.07612759  0.56684484  0.91546162  1
  Te  Te105  1  0.08682228  0.90666478  0.26067525  1
  Te  Te106  1  0.05846084  0.92469940  0.60171299  1
  Te  Te107  1  0.07462206  0.91841892  0.89433002  1
  Te  Te108  1  0.45183378  0.26862809  0.25600142  1
  Te  Te109  1  0.44331841  0.26591839  0.56991945  1
  Te  Te110  1  0.41930042  0.25077312  0.90660059  1
  Te  Te111  1  0.38940105  0.58312778  0.28952084  1
  Te  Te112  1  0.42822655  0.57305129  0.60603333  1
  Te  Te113  1  0.40163341  0.56144490  0.89641186  1
  Te  Te114  1  0.42561602  0.92014198  0.25289653  1
  Te  Te115  1  0.40590139  0.92609373  0.54766503  1
  Te  Te116  1  0.42499905  0.90285266  0.92399566  1
  Te  Te117  1  0.77004936  0.23749712  0.26838614  1
  Te  Te118  1  0.78845998  0.26696813  0.55507470  1
  Te  Te119  1  0.73270670  0.25652760  0.92092606  1
  Te  Te120  1  0.73347967  0.58883528  0.24901353  1
  Te  Te121  1  0.70449737  0.55211824  0.58037493  1
  Te  Te122  1  0.77577217  0.59339065  0.86869528  1
  Te  Te123  1  0.74883325  0.92777704  0.26967091  1
  Te  Te124  1  0.77539684  0.91297871  0.60159509  1
  Te  Te125  1  0.73696136  0.91966212  0.87189904  1
  Te  Te126  1  0.25945450  0.23726064  0.07099183  1
  Te  Te127  1  0.25777289  0.23811814  0.40598720  1
  Te  Te128  1  0.23714708  0.27278955  0.75119865  1
  Te  Te129  1  0.23995325  0.55941096  0.06997395  1
  Te  Te130  1  0.22801310  0.59160586  0.44223864  1
  Te  Te131  1  0.25167457  0.53761169  0.74920452  1
  Te  Te132  1  0.24786093  0.91469512  0.06110238  1
  Te  Te133  1  0.22444742  0.91057840  0.40214686  1
  Te  Te134  1  0.24266338  0.92395456  0.74963638  1
  Te  Te135  1  0.60906785  0.26137327  0.09117077  1
  Te  Te136  1  0.61283923  0.21104613  0.44077018  1
  Te  Te137  1  0.60353606  0.23188488  0.71755981  1
  Te  Te138  1  0.57201545  0.59982298  0.07636579  1
  Te  Te139  1  0.59540617  0.56058097  0.42661904  1
  Te  Te140  1  0.60104187  0.59892279  0.73998948  1
  Te  Te141  1  0.59031194  0.93569691  0.09737775  1
  Te  Te142  1  0.60242278  0.91765530  0.43245711  1
  Te  Te143  1  0.56345930  0.92670098  0.73660419  1
  Te  Te144  1  0.92188722  0.25823988  0.10151243  1
  Te  Te145  1  0.87133834  0.28831851  0.40683184  1
  Te  Te146  1  0.91690740  0.24099952  0.74801685  1
  Te  Te147  1  0.89907713  0.58041916  0.06889148  1
  Te  Te148  1  0.90955686  0.57850603  0.41950701  1
  Te  Te149  1  0.87795896  0.57492691  0.73151237  1
  Te  Te150  1  0.90931773  0.91617832  0.08254901  1
  Te  Te151  1  0.89585611  0.93736560  0.42709847  1
  Te  Te152  1  0.88728097  0.87742625  0.79785989  1
  Te  Te153  1  0.25266064  0.07522154  0.22779307  1
  Te  Te154  1  0.25456943  0.09256392  0.58859779  1
  Te  Te155  1  0.24841284  0.07000226  0.89802604  1
  Te  Te156  1  0.24401074  0.40993218  0.24880533  1
  Te  Te157  1  0.24725644  0.40296346  0.57019038  1
  Te  Te158  1  0.26666803  0.44765898  0.90060209  1
  Te  Te159  1  0.25782640  0.73472280  0.25680817  1
  Te  Te160  1  0.27032479  0.75556312  0.57769772  1
  Te  Te161  1  0.24224389  0.72959618  0.92377902  1
  Te  Te162  1  0.60089961  0.07892327  0.29371891  1
  Te  Te163  1  0.60956619  0.10962520  0.58144259  1
  Te  Te164  1  0.58670541  0.08269505  0.91981196  1
  Te  Te165  1  0.60539219  0.38957425  0.26930501  1
  Te  Te166  1  0.61093527  0.43140263  0.61305827  1
  Te  Te167  1  0.59238450  0.41055745  0.92113645  1
  Te  Te168  1  0.58564253  0.75609197  0.24125863  1
  Te  Te169  1  0.60445045  0.73664947  0.60145907  1
  Te  Te170  1  0.61456042  0.75776205  0.89456290  1
  Te  Te171  1  0.92032869  0.09662910  0.28322256  1
  Te  Te172  1  0.90582941  0.07743234  0.59962617  1
  Te  Te173  1  0.89219859  0.07400680  0.90056277  1
  Te  Te174  1  0.90094640  0.43449017  0.24991295  1
  Te  Te175  1  0.86011279  0.39593598  0.60724625  1
  Te  Te176  1  0.90026321  0.42334134  0.92127371  1
  Te  Te177  1  0.90714420  0.77350113  0.25999620  1
  Te  Te178  1  0.89974466  0.74385457  0.58816213  1
  Te  Te179  1  0.92344402  0.73897001  0.88802696  1
