# generated using pymatgen
data_In2Te3
_symmetry_space_group_name_H-M   'P 1'
_cell_length_a   18.93008354
_cell_length_b   18.97035083
_cell_length_c   18.92552830
_cell_angle_alpha   90.11445112
_cell_angle_beta   90.03503591
_cell_angle_gamma   90.01871754
_symmetry_Int_Tables_number   1
_chemical_formula_structural   In2Te3
_chemical_formula_sum   'In72 Te108'
_cell_volume   6796.33743923
_cell_formula_units_Z   36
loop_
 _symmetry_equiv_pos_site_id
 _symmetry_equiv_pos_as_xyz
  1  'x, y, z'
loop_
 _atom_site_type_symbol
 _atom_site_label
 _atom_site_symmetry_multiplicity
 _atom_site_fract_x
 _atom_site_fract_y
 _atom_site_fract_z
 _atom_site_occupancy
  In  In0  1  -0.00459926  -0.00398649  0.33605501  1
  In  In1  1  0.50765286  -0.01099373  0.15997160  1
  In  In2  1  0.32860670  0.83004023  0.16767549  1
  In  In3  1  0.67072044  0.83875125  0.82784570  1
  In  In4  1  0.68988874  0.82277731  0.15859287  1
  In  In5  1  0.04449170  0.19734588  0.48380329  1
  In  In6  1  0.47012646  0.33092732  0.48096495  1
  In  In7  1  0.51262717  0.81795701  0.31176784  1
  In  In8  1  0.32140816  0.63584902  0.65706792  1
  In  In9  1  0.14259175  0.65483557  0.87860520  1
  In  In10  1  0.68914705  0.00141061  -0.02085911  1
  In  In11  1  0.65244360  0.00245618  0.33013623  1
  In  In12  1  0.48448605  0.66321813  0.82456509  1
  In  In13  1  0.65299495  0.49808089  0.50289743  1
  In  In14  1  0.80819641  0.51605156  0.66821117  1
  In  In15  1  0.67010904  0.33648302  0.64377714  1
  In  In16  1  0.85463227  -0.01399290  0.15763667  1
  In  In17  1  0.00246351  -0.00783931  0.66466316  1
  In  In18  1  0.31750800  0.49302075  0.87372118  1
  In  In19  1  0.17134668  0.48959074  0.30597959  1
  In  In20  1  0.30207327  0.20511200  0.42738765  1
  In  In21  1  0.64275823  0.19906538  0.49020860  1
  In  In22  1  0.66264019  0.63756301  0.63633865  1
  In  In23  1  0.43852856  0.49268939  0.68390366  1
  In  In24  1  0.84415724  0.81873380  0.65248176  1
  In  In25  1  0.66941245  0.49153414  0.18160233  1
  In  In26  1  0.01712491  0.82013188  0.46289195  1
  In  In27  1  0.48852691  0.82078643  -0.02230412  1
  In  In28  1  0.34537506  0.50445488  0.13996854  1
  In  In29  1  0.84429650  0.02241895  0.53004893  1
  In  In30  1  0.30724505  0.84881671  0.49294534  1
  In  In31  1  0.51490004  0.67292796  0.48650826  1
  In  In32  1  0.81955242  0.16602665  0.31892096  1
  In  In33  1  -0.00421605  0.36632750  0.02450009  1
  In  In34  1  0.33186684  -0.02922110  -0.00706007  1
  In  In35  1  0.32940130  0.02019762  0.66037853  1
  In  In36  1  0.31820202  0.14280352  0.86429574  1
  In  In37  1  0.83786531  0.33330667  0.49302876  1
  In  In38  1  0.15544012  0.65909268  0.48550590  1
  In  In39  1  0.14223322  -0.00819873  0.47468913  1
  In  In40  1  0.47652047  0.18203082  0.63574053  1
  In  In41  1  0.31960414  0.65250368  0.32508412  1
  In  In42  1  0.51843514  0.31423764  0.86905560  1
  In  In43  1  0.63943572  0.47725876  0.85407415  1
  In  In44  1  0.70024877  0.64648598  0.02694267  1
  In  In45  1  0.83712516  0.48859867  0.02234056  1
  In  In46  1  0.01184955  0.32947218  0.68411885  1
  In  In47  1  -0.00108142  0.49660639  0.17871610  1
  In  In48  1  0.83879236  0.33282384  0.87096692  1
  In  In49  1  -0.01030157  0.82586536  0.17147169  1
  In  In50  1  0.48898209  0.49584652  0.33509967  1
  In  In51  1  0.49051217  -0.00023070  0.48183858  1
  In  In52  1  0.67973358  0.00147443  0.68914623  1
  In  In53  1  -0.00423579  0.49660414  0.48337043  1
  In  In54  1  0.51043191  0.16860553  0.01302139  1
  In  In55  1  0.02573033  0.65817727  0.65625756  1
  In  In56  1  0.84390241  0.17931092  0.02017620  1
  In  In57  1  0.68759112  0.16869083  0.82772591  1
  In  In58  1  0.07183370  0.18836808  0.13654759  1
  In  In59  1  0.32560547  0.65549034  0.02820128  1
  In  In60  1  0.84810014  0.67739308  0.84445773  1
  In  In61  1  0.00520411  0.82163293  0.83350062  1
  In  In62  1  0.84277661  0.51222041  0.33032039  1
  In  In63  1  0.20822447  0.01125518  0.86107664  1
  In  In64  1  0.33759699  0.82719991  0.80719859  1
  In  In65  1  0.25414250  0.18390511  0.20502939  1
  In  In66  1  0.16822379  0.33527937  0.84951712  1
  In  In67  1  0.16745731  0.16702234  0.65996392  1
  In  In68  1  0.65903426  0.19909279  0.15711446  1
  In  In69  1  0.15881797  0.82450931  0.01137750  1
  In  In70  1  0.81169383  0.79493358  0.35918079  1
  In  In71  1  -0.01037997  0.15920323  0.84155393  1
  Te  Te72  1  0.07558505  0.07412155  0.04703299  1
  Te  Te73  1  0.10505786  0.10741149  0.37306310  1
  Te  Te74  1  0.09315815  0.07766926  0.75947453  1
  Te  Te75  1  0.10769432  0.42917528  0.09903674  1
  Te  Te76  1  0.07464292  0.40684318  0.39242951  1
  Te  Te77  1  0.10044498  0.42293418  0.75183688  1
  Te  Te78  1  0.09565195  0.73815281  0.10970313  1
  Te  Te79  1  0.12353868  0.76000889  0.38126000  1
  Te  Te80  1  0.10515393  0.74158188  0.75409845  1
  Te  Te81  1  0.40901989  0.06919997  0.07727789  1
  Te  Te82  1  0.42046886  0.10613354  0.40889916  1
  Te  Te83  1  0.41808217  0.10239502  0.75116907  1
  Te  Te84  1  0.43116971  0.43545675  0.04186427  1
  Te  Te85  1  0.37940978  0.41498026  0.39698055  1
  Te  Te86  1  0.41109659  0.39720144  0.79782420  1
  Te  Te87  1  0.43234433  0.74545772  0.09489059  1
  Te  Te88  1  0.40422138  0.75492276  0.41297332  1
  Te  Te89  1  0.42390663  0.74424815  0.71508324  1
  Te  Te90  1  0.74309180  0.07746222  0.10012147  1
  Te  Te91  1  0.74260407  0.08411209  0.42508833  1
  Te  Te92  1  0.78134860  0.08236984  0.75548722  1
  Te  Te93  1  0.75580550  0.39805842  0.10161695  1
  Te  Te94  1  0.74268372  0.41613242  0.41314117  1
  Te  Te95  1  0.74452360  0.40432476  0.75829756  1
  Te  Te96  1  0.77919088  0.76547226  0.05645786  1
  Te  Te97  1  0.73442987  0.72494942  0.45944962  1
  Te  Te98  1  0.74834800  0.73211887  0.73550264  1
  Te  Te99  1  0.13348618  0.27071206  0.24507468  1
  Te  Te100  1  0.11902717  0.28786370  0.58158732  1
  Te  Te101  1  0.05633939  0.26519612  0.92497186  1
  Te  Te102  1  0.06285153  0.58916610  0.27923503  1
  Te  Te103  1  0.09932366  0.54990343  0.58122870  1
  Te  Te104  1  0.03638560  0.57602221  0.94262672  1
  Te  Te105  1  0.08008049  0.91777193  0.24731594  1
  Te  Te106  1  0.08411919  0.89888774  0.57957341  1
  Te  Te107  1  0.09504947  0.91736856  0.90978384  1
  Te  Te108  1  0.37135242  0.21898345  0.29390518  1
  Te  Te109  1  0.36795954  0.25685112  0.56541529  1
  Te  Te110  1  0.39929681  0.24829513  0.94098368  1
  Te  Te111  1  0.42737590  0.59541782  0.23876982  1
  Te  Te112  1  0.42304930  0.57437799  0.55109077  1
  Te  Te113  1  0.42696988  0.57973636  0.93651040  1
  Te  Te114  1  0.41473628  0.92035006  0.25748972  1
  Te  Te115  1  0.41084941  0.91847056  0.58167412  1
  Te  Te116  1  0.42731328  0.92461643  0.88529200  1
  Te  Te117  1  0.74939045  0.27183664  0.24679644  1
  Te  Te118  1  0.76166885  0.23438438  0.58135915  1
  Te  Te119  1  0.73257849  0.25539963  0.94453877  1
  Te  Te120  1  0.76470332  0.59274742  0.23570766  1
  Te  Te121  1  0.77594326  0.59536349  0.53841270  1
  Te  Te122  1  0.75463659  0.56589700  0.90221586  1
  Te  Te123  1  0.75928026  0.91862139  0.26253697  1
  Te  Te124  1  0.74979184  0.91614047  0.58366896  1
  Te  Te125  1  0.77109908  0.89548043  0.91936987  1
  Te  Te126  1  0.26335556  0.23127702  0.06465474  1
  Te  Te127  1  0.19129375  0.30128895  0.38864175  1
  Te  Te128  1  0.25135420  0.23820736  0.76385388  1
  Te  Te129  1  0.22284803  0.57962339  0.09960964  1
  Te  Te130  1  0.24824261  0.55937610  0.42000355  1
  Te  Te131  1  0.24434418  0.59333746  0.78658372  1
  Te  Te132  1  0.23456200  0.92828949  0.09810793  1
  Te  Te133  1  0.24975583  0.93560681  0.38646327  1
  Te  Te134  1  0.24326589  0.92286630  0.73816179  1
  Te  Te135  1  0.53298265  0.26669329  0.12114606  1
  Te  Te136  1  0.57458157  0.27900020  0.38923248  1
  Te  Te137  1  0.58353751  0.25099261  0.73995439  1
  Te  Te138  1  0.59012168  0.57445659  0.08591837  1
  Te  Te139  1  0.59695640  0.58700904  0.39366989  1
  Te  Te140  1  0.57756025  0.56470220  0.74392902  1
  Te  Te141  1  0.58977639  0.90594454  0.06342245  1
  Te  Te142  1  0.58628502  0.89989026  0.41828216  1
  Te  Te143  1  0.57659431  0.92095637  0.75277954  1
  Te  Te144  1  0.93438681  0.25788633  0.11140764  1
  Te  Te145  1  0.92329550  0.24474546  0.40447978  1
  Te  Te146  1  0.90314292  0.25339204  0.75750028  1
  Te  Te147  1  0.93818120  0.58607935  0.07175200  1
  Te  Te148  1  0.94647812  0.60367655  0.39270127  1
  Te  Te149  1  0.92057259  0.58983700  0.74198725  1
  Te  Te150  1  0.94560682  0.92066665  0.06528946  1
  Te  Te151  1  0.90152151  0.92070026  0.43008556  1
  Te  Te152  1  0.91099189  0.91065800  0.75407155  1
  Te  Te153  1  0.21773946  0.05934022  0.27983542  1
  Te  Te154  1  0.23891262  0.08250391  0.55601336  1
  Te  Te155  1  0.19748830  0.12859144  0.96892992  1
  Te  Te156  1  0.29679391  0.42148283  0.25560148  1
  Te  Te157  1  0.30059135  0.48815216  0.62829079  1
  Te  Te158  1  0.21759904  0.42454882  0.95851850  1
  Te  Te159  1  0.23533514  0.74073012  0.24054214  1
  Te  Te160  1  0.24125124  0.74369839  0.57890172  1
  Te  Te161  1  0.26856026  0.75571878  0.92175070  1
  Te  Te162  1  0.57550979  0.09552988  0.24345364  1
  Te  Te163  1  0.58193491  0.08693799  0.57961976  1
  Te  Te164  1  0.58627672  0.08639202  0.90799458  1
  Te  Te165  1  0.56903541  0.40350016  0.25210199  1
  Te  Te166  1  0.55259293  0.41199913  0.58719181  1
  Te  Te167  1  0.57014742  0.41403687  0.97156183  1
  Te  Te168  1  0.61167616  0.73438509  0.24445358  1
  Te  Te169  1  0.59443219  0.75472782  0.58013098  1
  Te  Te170  1  0.59167798  0.73114958  0.91050903  1
  Te  Te171  1  0.92647681  0.09247202  0.23976008  1
  Te  Te172  1  0.95804799  0.10958191  0.57946237  1
  Te  Te173  1  0.90149782  0.08051067  0.92883676  1
  Te  Te174  1  0.91894383  0.40622563  0.26304775  1
  Te  Te175  1  0.91053209  0.41999695  0.59539830  1
  Te  Te176  1  0.93541272  0.44298773  0.90221083  1
  Te  Te177  1  0.89755543  0.74176716  0.25510339  1
  Te  Te178  1  0.93621948  0.73752217  0.56366859  1
  Te  Te179  1  0.95299974  0.72784126  0.93671985  1
