# generated using pymatgen
data_In2Te3
_symmetry_space_group_name_H-M   'P 1'
_cell_length_a   18.77943838
_cell_length_b   18.78465870
_cell_length_c   18.77761712
_cell_angle_alpha   90.03797077
_cell_angle_beta   89.99958751
_cell_angle_gamma   90.00917689
_symmetry_Int_Tables_number   1
_chemical_formula_structural   In2Te3
_chemical_formula_sum   'In72 Te108'
_cell_volume   6624.09095803
_cell_formula_units_Z   36
loop_
 _symmetry_equiv_pos_site_id
 _symmetry_equiv_pos_as_xyz
  1  'x, y, z'
loop_
 _atom_site_type_symbol
 _atom_site_label
 _atom_site_symmetry_multiplicity
 _atom_site_fract_x
 _atom_site_fract_y
 _atom_site_fract_z
 _atom_site_occupancy
  In  In0  1  0.34776854  0.67195289  0.65016576  1
  In  In1  1  0.68487272  0.67437256  0.65345197  1
  In  In2  1  0.49930455  0.66909250  0.16658585  1
  In  In3  1  0.00162605  0.33945718  0.00704180  1
  In  In4  1  0.32604050  0.18664720  0.18951677  1
  In  In5  1  -0.01652419  0.50925050  0.84157145  1
  In  In6  1  0.16905754  0.18159434  0.66438449  1
  In  In7  1  0.49430164  0.31308610  0.50712249  1
  In  In8  1  0.15650758  0.82141957  0.66696512  1
  In  In9  1  0.01029518  0.83808024  0.50025254  1
  In  In10  1  0.16348673  0.16662202  0.00668681  1
  In  In11  1  0.32666834  0.62760644  0.32826081  1
  In  In12  1  0.82664474  0.67482064  0.50906164  1
  In  In13  1  0.66463204  0.17108102  0.82255743  1
  In  In14  1  0.33316657  0.83841180  0.14898094  1
  In  In15  1  0.82476581  0.83438921  0.68970379  1
  In  In16  1  0.16010724  0.01601221  0.85201160  1
  In  In17  1  0.52502480  0.83591449  0.66527040  1
  In  In18  1  0.01810374  0.47324563  0.48881372  1
  In  In19  1  0.33884018  0.82868578  0.47393408  1
  In  In20  1  0.82345977  0.83399954  0.32793314  1
  In  In21  1  0.67725169  0.68305749  0.00513012  1
  In  In22  1  0.15512377  0.67036102  0.16519220  1
  In  In23  1  0.14595451  0.64913258  0.82649747  1
  In  In24  1  0.35008718  -0.01080194  0.35005013  1
  In  In25  1  0.52876036  0.84577504  -0.01157570  1
  In  In26  1  0.65224176  0.47838558  0.20431944  1
  In  In27  1  0.85760301  0.81200773  -0.01301876  1
  In  In28  1  0.66555086  0.49160154  0.84128207  1
  In  In29  1  0.33454548  0.02638082  0.66318467  1
  In  In30  1  0.18654674  0.48482517  0.63418180  1
  In  In31  1  0.82583973  0.17545954  0.34059911  1
  In  In32  1  0.33363000  0.47411657  0.47575171  1
  In  In33  1  0.13054056  0.01925066  0.17086068  1
  In  In34  1  0.34396976  0.83676555  0.82972382  1
  In  In35  1  0.48509185  0.48584452  0.01233983  1
  In  In36  1  0.49909525  0.02322278  0.50976296  1
  In  In37  1  0.01220863  0.31562424  0.32474943  1
  In  In38  1  0.79046138  0.48029336  0.36013251  1
  In  In39  1  0.15800764  0.85299630  0.32878122  1
  In  In40  1  0.50890801  0.18699590  0.32873524  1
  In  In41  1  0.67477946  0.82024089  0.49713646  1
  In  In42  1  0.82826603  0.50040228  0.66045199  1
  In  In43  1  0.52640998  0.81278345  0.33664128  1
  In  In44  1  0.66885377  0.32507415  0.65508406  1
  In  In45  1  0.49594576  0.01785117  0.13993033  1
  In  In46  1  0.84392358  0.33283720  0.16091613  1
  In  In47  1  0.16031198  0.48899148  -0.01779981  1
  In  In48  1  0.65811138  0.17561547  0.16301869  1
  In  In49  1  0.17336542  0.34701477  0.83062549  1
  In  In50  1  0.13776520  0.82803445  -0.00567492  1
  In  In51  1  0.67122906  -0.00284062  0.00726738  1
  In  In52  1  0.01234729  0.02213022  0.32426582  1
  In  In53  1  0.83014541  0.17933320  0.66083282  1
  In  In54  1  0.02134672  0.65435305  0.69160737  1
  In  In55  1  0.00069191  0.50618977  0.16192270  1
  In  In56  1  0.63030875  0.01216195  0.66105263  1
  In  In57  1  0.65621049  0.31181703  -0.01307658  1
  In  In58  1  0.83583243  -0.01273201  0.16315280  1
  In  In59  1  0.33111815  0.63215560  -0.02128492  1
  In  In60  1  0.83037681  0.02930352  0.49941131  1
  In  In61  1  0.32258156  0.03793453  0.01074276  1
  In  In62  1  0.48284240  0.48644690  0.67893041  1
  In  In63  1  0.32885637  0.46390993  0.19461750  1
  In  In64  1  0.34232782  0.48211135  0.83230881  1
  In  In65  1  0.18087514  0.18752532  0.34507679  1
  In  In66  1  0.50242000  0.01711974  0.81915439  1
  In  In67  1  -0.01086660  0.66765541  0.32600868  1
  In  In68  1  -0.01823589  0.00820453  0.67396588  1
  In  In69  1  0.84731586  0.49994731  0.01224009  1
  In  In70  1  -0.00356742  0.32133011  0.66850942  1
  In  In71  1  0.84416082  0.02730290  0.87055461  1
  Te  Te72  1  0.05076412  0.07568765  0.05597168  1
  Te  Te73  1  0.09483094  0.09391021  0.42203299  1
  Te  Te74  1  0.07337710  0.09795315  0.75675815  1
  Te  Te75  1  0.10126542  0.40922687  0.09986790  1
  Te  Te76  1  0.11522080  0.40300158  0.39729900  1
  Te  Te77  1  0.08342329  0.44115832  0.74667928  1
  Te  Te78  1  0.05721980  0.75221783  0.09267551  1
  Te  Te79  1  0.09175170  0.74372587  0.41384667  1
  Te  Te80  1  0.06505620  0.77305105  0.77934144  1
  Te  Te81  1  0.42022955  0.13429093  0.07723024  1
  Te  Te82  1  0.40854747  0.10891666  0.42076419  1
  Te  Te83  1  0.42786282  0.11825353  0.73709009  1
  Te  Te84  1  0.40839887  0.38872524  0.09332361  1
  Te  Te85  1  0.44883421  0.41249095  0.39828581  1
  Te  Te86  1  0.39303144  0.38107140  0.73578324  1
  Te  Te87  1  0.41558375  0.74575007  0.06018933  1
  Te  Te88  1  0.42457898  0.72351983  0.40584711  1
  Te  Te89  1  0.43585690  0.74381523  0.75264236  1
  Te  Te90  1  0.75881856  0.09669432  0.08075934  1
  Te  Te91  1  0.72825712  0.08810250  0.41282993  1
  Te  Te92  1  0.75552515  0.06895120  0.74238691  1
  Te  Te93  1  0.73839996  0.41580994  0.08144321  1
  Te  Te94  1  0.71823372  0.36895076  0.42447607  1
  Te  Te95  1  0.75664253  0.40386531  0.75400260  1
  Te  Te96  1  0.76104924  0.76708428  0.09204364  1
  Te  Te97  1  0.72931483  0.71481083  0.39180409  1
  Te  Te98  1  0.74546085  0.74075777  0.77054314  1
  Te  Te99  1  0.09076651  0.22743929  0.23419551  1
  Te  Te100  1  0.08980911  0.26610858  0.56995978  1
  Te  Te101  1  0.08215176  0.25438847  0.90823723  1
  Te  Te102  1  0.09382173  0.57291395  0.26457378  1
  Te  Te103  1  0.08698037  0.58444291  0.57357629  1
  Te  Te104  1  0.05491104  0.60093435  0.94741084  1
  Te  Te105  1  0.05209190  0.90337422  0.23337902  1
  Te  Te106  1  0.08743909  0.93410267  0.58960867  1
  Te  Te107  1  0.06058157  0.93126498  0.92141383  1
  Te  Te108  1  0.41392788  0.28315933  0.26449895  1
  Te  Te109  1  0.37142932  0.24317386  0.55479882  1
  Te  Te110  1  0.48495970  0.20579538  0.87223395  1
  Te  Te111  1  0.43981743  0.55916846  0.25293480  1
  Te  Te112  1  0.42016213  0.57042247  0.56617875  1
  Te  Te113  1  0.44371284  0.57909231  0.89426531  1
  Te  Te114  1  0.42887457  0.90968546  0.24481570  1
  Te  Te115  1  0.41397011  0.91021082  0.58771612  1
  Te  Te116  1  0.41059168  0.93474644  0.92824598  1
  Te  Te117  1  0.74021748  0.26942987  0.25224083  1
  Te  Te118  1  0.76045034  0.26036682  0.55511007  1
  Te  Te119  1  0.76021961  0.23885801  0.91222664  1
  Te  Te120  1  0.75446964  0.57342532  0.25184057  1
  Te  Te121  1  0.72876291  0.55616613  0.55463124  1
  Te  Te122  1  0.75901363  0.58365140  0.91890374  1
  Te  Te123  1  0.74084675  0.93879225  0.26706464  1
  Te  Te124  1  0.75228346  0.92036822  0.58516207  1
  Te  Te125  1  0.75436497  0.91136688  0.91543334  1
  Te  Te126  1  0.23308145  0.26013033  0.09840531  1
  Te  Te127  1  0.27790975  0.26220000  0.43104219  1
  Te  Te128  1  0.26473198  0.26169476  0.74989078  1
  Te  Te129  1  0.25344783  0.57328475  0.09410886  1
  Te  Te130  1  0.23464009  0.57535571  0.42998944  1
  Te  Te131  1  0.25745106  0.58288809  0.74144173  1
  Te  Te132  1  0.23365467  0.92722855  0.07570450  1
  Te  Te133  1  0.23461315  0.93374749  0.43338833  1
  Te  Te134  1  0.24517283  0.92255028  0.75035353  1
  Te  Te135  1  0.56543063  0.27052684  0.09628776  1
  Te  Te136  1  0.60814140  0.25454415  0.42100597  1
  Te  Te137  1  0.56615832  0.25928157  0.74792612  1
  Te  Te138  1  0.58956243  0.57207712  0.08277772  1
  Te  Te139  1  0.63578293  0.60547141  0.43923014  1
  Te  Te140  1  0.59442556  0.57530610  0.73554074  1
  Te  Te141  1  0.59871802  0.90665698  0.10765772  1
  Te  Te142  1  0.58328622  0.92189446  0.42699749  1
  Te  Te143  1  0.60288140  0.91073704  0.77257682  1
  Te  Te144  1  0.91447295  0.23590468  0.07179106  1
  Te  Te145  1  0.91839358  0.25728334  0.42250943  1
  Te  Te146  1  0.91265156  0.24687099  0.76354211  1
  Te  Te147  1  0.89972908  0.59946961  0.10826765  1
  Te  Te148  1  0.91365716  0.57500744  0.42497121  1
  Te  Te149  1  0.89384721  0.59917604  0.75548917  1
  Te  Te150  1  0.92449191  0.92487147  0.06083568  1
  Te  Te151  1  0.91579860  0.92330139  0.41610582  1
  Te  Te152  1  0.91408024  0.92040879  0.77772355  1
  Te  Te153  1  0.25711912  0.06104540  0.24786468  1
  Te  Te154  1  0.23849180  0.08680468  0.57044508  1
  Te  Te155  1  0.26603934  0.11789865  0.89567060  1
  Te  Te156  1  0.23904741  0.41533813  0.30011165  1
  Te  Te157  1  0.25737474  0.37273390  0.56144316  1
  Te  Te158  1  0.27352022  0.39616296  0.93791968  1
  Te  Te159  1  0.25966527  0.75641417  0.25547545  1
  Te  Te160  1  0.24480195  0.74753229  0.56686259  1
  Te  Te161  1  0.24942888  0.74562171  0.91253187  1
  Te  Te162  1  0.58209917  0.07545066  0.25219531  1
  Te  Te163  1  0.57597396  0.12488629  0.58504566  1
  Te  Te164  1  0.57500545  0.09536064  0.93676490  1
  Te  Te165  1  0.55833830  0.40070476  0.28604139  1
  Te  Te166  1  0.57809634  0.42130198  0.57824251  1
  Te  Te167  1  0.56063547  0.40243754  0.90667325  1
  Te  Te168  1  0.60694473  0.74364351  0.23450003  1
  Te  Te169  1  0.57029562  0.72955797  0.56320077  1
  Te  Te170  1  0.58312668  0.73904408  0.90400022  1
  Te  Te171  1  0.91365454  0.09874439  0.24007592  1
  Te  Te172  1  0.93676460  0.11057922  0.57011173  1
  Te  Te173  1  0.93654413  0.10958045  0.95182964  1
  Te  Te174  1  0.91215023  0.42572271  0.26243012  1
  Te  Te175  1  0.90927979  0.40620717  0.57285718  1
  Te  Te176  1  0.90135177  0.40088725  0.90782441  1
  Te  Te177  1  0.90452307  0.74980070  0.23684483  1
  Te  Te178  1  0.92857371  0.75328151  0.59819081  1
  Te  Te179  1  0.95182763  0.72017101  0.91816872  1
