# generated using pymatgen
data_In2Te3
_symmetry_space_group_name_H-M   'P 1'
_cell_length_a   18.73961781
_cell_length_b   18.74222391
_cell_length_c   18.74026814
_cell_angle_alpha   90.04839854
_cell_angle_beta   90.06031577
_cell_angle_gamma   89.95299915
_symmetry_Int_Tables_number   1
_chemical_formula_structural   In2Te3
_chemical_formula_sum   'In72 Te108'
_cell_volume   6581.98836887
_cell_formula_units_Z   36
loop_
 _symmetry_equiv_pos_site_id
 _symmetry_equiv_pos_as_xyz
  1  'x, y, z'
loop_
 _atom_site_type_symbol
 _atom_site_label
 _atom_site_symmetry_multiplicity
 _atom_site_fract_x
 _atom_site_fract_y
 _atom_site_fract_z
 _atom_site_occupancy
  In  In0  1  0.65631983  0.47793443  0.51495766  1
  In  In1  1  0.66603422  0.83962570  0.80830081  1
  In  In2  1  0.49542432  0.34081153  0.81620720  1
  In  In3  1  0.82299768  0.64972698  0.48805115  1
  In  In4  1  0.67984056  0.68068145  -0.01184536  1
  In  In5  1  0.00992096  0.01489169  -0.01974325  1
  In  In6  1  0.02198452  0.63354020  0.64062892  1
  In  In7  1  -0.00663784  0.17635995  0.50012119  1
  In  In8  1  0.16917703  0.31075266  0.16894339  1
  In  In9  1  0.67079042  0.16811712  0.18908724  1
  In  In10  1  0.67737416  0.33088468  0.34446816  1
  In  In11  1  0.82243771  0.01490798  0.82047822  1
  In  In12  1  0.49084481  0.13688807  0.03492366  1
  In  In13  1  0.82321403  0.48613205  -0.00568634  1
  In  In14  1  0.48815744  0.19836269  0.32033305  1
  In  In15  1  0.68462774  0.17627621  0.80342750  1
  In  In16  1  0.46835721  0.49248205  -0.01057205  1
  In  In17  1  0.32791253  0.65812065  0.35233224  1
  In  In18  1  0.33057286  -0.00642427  0.64765640  1
  In  In19  1  0.52617285  0.67325612  0.54114068  1
  In  In20  1  0.65746893  0.50344972  0.79037224  1
  In  In21  1  0.31367830  -0.00740591  0.34896380  1
  In  In22  1  0.16522956  0.35113628  0.80400469  1
  In  In23  1  0.49753810  0.17583800  0.66751761  1
  In  In24  1  0.16099996  -0.00694197  0.49153022  1
  In  In25  1  0.83415749  0.00723084  0.18765674  1
  In  In26  1  0.66528592  0.30691951  -0.00351926  1
  In  In27  1  0.16770754  0.17670220  0.00198141  1
  In  In28  1  0.34991802  0.64025510  -0.03395925  1
  In  In29  1  0.84182963  0.48541272  0.34904764  1
  In  In30  1  0.66764065  0.67608657  0.34331525  1
  In  In31  1  0.84971202  0.47680659  0.63832451  1
  In  In32  1  0.01307484  0.32381639  0.00381186  1
  In  In33  1  0.31551131  0.67173547  0.63707799  1
  In  In34  1  0.50988944  0.86148558  0.00085208  1
  In  In35  1  0.82331358  0.83334247  0.33210633  1
  In  In36  1  0.18970453  0.67867412  0.81769819  1
  In  In37  1  0.50031727  -0.01194017  0.50483579  1
  In  In38  1  0.32666202  0.32834857  0.02356404  1
  In  In39  1  0.15462420  0.48414147  -0.01672264  1
  In  In40  1  0.35160220  0.83809635  0.80714746  1
  In  In41  1  0.16662014  0.65850061  0.19581866  1
  In  In42  1  -0.00425077  0.32777721  0.34100919  1
  In  In43  1  0.16832256  0.48400188  0.34462727  1
  In  In44  1  0.16214716  0.01369472  0.18883640  1
  In  In45  1  0.01985588  0.03633925  0.67288790  1
  In  In46  1  0.82570494  0.01764067  0.50763612  1
  In  In47  1  0.85506742  0.16401134  -0.00543573  1
  In  In48  1  0.00845070  0.49494460  0.81370472  1
  In  In49  1  0.34612800  0.51249120  0.80221803  1
  In  In50  1  0.01702375  0.82934219  0.49643650  1
  In  In51  1  0.01635954  0.66525350  0.36558010  1
  In  In52  1  0.84027350  0.80773970  0.00135265  1
  In  In53  1  0.47506007  0.46247808  0.36672699  1
  In  In54  1  0.51628731  -0.01587867  0.82081415  1
  In  In55  1  0.68561316  0.18307075  0.50908481  1
  In  In56  1  0.82146594  0.83492594  0.66603247  1
  In  In57  1  0.33645766  0.83979306  0.16830833  1
  In  In58  1  0.15688335  0.85563815  0.01265816  1
  In  In59  1  0.67009431  0.48882554  0.16683619  1
  In  In60  1  0.82767531  0.67061170  0.13371355  1
  In  In61  1  0.30880982  0.48347393  0.16164773  1
  In  In62  1  0.49414650  0.84302471  0.34892892  1
  In  In63  1  0.31774786  0.18404895  0.84446156  1
  In  In64  1  0.64264919  -0.00751156  0.00033998  1
  In  In65  1  0.00745689  0.02333837  0.32946159  1
  In  In66  1  0.31542023  0.35652372  0.65293417  1
  In  In67  1  0.01156438  0.82367396  0.83931754  1
  In  In68  1  0.30904136  0.17613191  0.49819111  1
  In  In69  1  -0.02827709  0.67381514  -0.00109862  1
  In  In70  1  -0.00322208  0.85112768  0.18849827  1
  In  In71  1  0.49921454  0.65918338  0.17043958  1
  Te  Te72  1  0.07246167  0.09573464  0.09290049  1
  Te  Te73  1  0.10295851  0.11035078  0.41162754  1
  Te  Te74  1  0.07700535  0.12158094  0.77665883  1
  Te  Te75  1  0.08509619  0.42120606  0.10141577  1
  Te  Te76  1  0.08779046  0.39869130  0.43860525  1
  Te  Te77  1  0.05769854  0.39762042  0.70610839  1
  Te  Te78  1  0.07646558  0.74908207  0.09238204  1
  Te  Te79  1  0.12420188  0.73451630  0.44565126  1
  Te  Te80  1  0.08598008  0.74672762  0.72936656  1
  Te  Te81  1  0.39831549  0.04754503  0.10080358  1
  Te  Te82  1  0.41397306  0.09074551  0.42539617  1
  Te  Te83  1  0.41169288  0.08539963  0.75559293  1
  Te  Te84  1  0.43102043  0.40563135  0.10667906  1
  Te  Te85  1  0.38171771  0.37881374  0.44532723  1
  Te  Te86  1  0.44303852  0.43711042  0.70614782  1
  Te  Te87  1  0.41412732  0.74387067  0.07435674  1
  Te  Te88  1  0.42789296  0.73762450  0.43570347  1
  Te  Te89  1  0.41586362  0.72374605  0.73824047  1
  Te  Te90  1  0.74873887  0.08344499  0.07092932  1
  Te  Te91  1  0.75451853  0.10034894  0.40715260  1
  Te  Te92  1  0.72382322  0.06025927  0.71976417  1
  Te  Te93  1  0.75686417  0.38803281  0.09142506  1
  Te  Te94  1  0.76864700  0.39698354  0.44985522  1
  Te  Te95  1  0.76707385  0.40699709  0.74588329  1
  Te  Te96  1  0.72577135  0.77840012  0.09931475  1
  Te  Te97  1  0.73748568  0.76869292  0.44208982  1
  Te  Te98  1  0.73532489  0.73137963  0.73189865  1
  Te  Te99  1  0.08792068  0.23391010  0.26436306  1
  Te  Te100  1  0.06478650  0.26792468  0.59456601  1
  Te  Te101  1  0.08438184  0.24990665  0.88895494  1
  Te  Te102  1  0.06747335  0.56425608  0.25929796  1
  Te  Te103  1  0.12114331  0.55802391  0.56107383  1
  Te  Te104  1  0.08235359  0.59965103  0.91167146  1
  Te  Te105  1  0.10120223  0.90664494  0.28273536  1
  Te  Te106  1  0.08509219  0.91802313  0.60160312  1
  Te  Te107  1  0.10516968  0.93387835  0.89059775  1
  Te  Te108  1  0.38235044  0.26550440  0.24282674  1
  Te  Te109  1  0.41458013  0.26281450  0.57459881  1
  Te  Te110  1  0.42909421  0.25406625  0.92583854  1
  Te  Te111  1  0.40912335  0.56822386  0.25414580  1
  Te  Te112  1  0.41422215  0.58114354  0.56996872  1
  Te  Te113  1  0.46679553  0.59212863  0.87125559  1
  Te  Te114  1  0.41950667  0.93737412  0.25219109  1
  Te  Te115  1  0.42469779  0.89287956  0.59213079  1
  Te  Te116  1  0.40680845  0.93440527  0.91514942  1
  Te  Te117  1  0.77014325  0.25341337  0.25833612  1
  Te  Te118  1  0.77676265  0.26091375  0.60889378  1
  Te  Te119  1  0.77313191  0.25601554  0.90040967  1
  Te  Te120  1  0.75523910  0.58575425  0.25321047  1
  Te  Te121  1  0.73814665  0.58101002  0.59301975  1
  Te  Te122  1  0.74875828  0.57813013  0.89898510  1
  Te  Te123  1  0.73480420  0.92686935  0.25979684  1
  Te  Te124  1  0.73745068  0.92029294  0.57780963  1
  Te  Te125  1  0.75540615  0.91461803  0.91831936  1
  Te  Te126  1  0.27755861  0.21228362  0.10734814  1
  Te  Te127  1  0.25196648  0.29293734  0.42639490  1
  Te  Te128  1  0.24210664  0.24357557  0.72556698  1
  Te  Te129  1  0.24467950  0.59300426  0.07501436  1
  Te  Te130  1  0.25753429  0.55927909  0.44097934  1
  Te  Te131  1  0.22629192  0.56332797  0.72655599  1
  Te  Te132  1  0.25901213  0.94582894  0.08507616  1
  Te  Te133  1  0.26899555  0.89427064  0.45373414  1
  Te  Te134  1  0.24493878  0.91591421  0.74210830  1
  Te  Te135  1  0.57078812  0.24817052  0.10144861  1
  Te  Te136  1  0.57524135  0.25933150  0.43212562  1
  Te  Te137  1  0.60219469  0.27729142  0.72024206  1
  Te  Te138  1  0.58781259  0.57936886  0.07163077  1
  Te  Te139  1  0.57984465  0.57278673  0.41261130  1
  Te  Te140  1  0.56054233  0.60508811  0.74555935  1
  Te  Te141  1  0.56761071  0.93629589  0.11494757  1
  Te  Te142  1  0.59964748  0.92374553  0.41452822  1
  Te  Te143  1  0.56265936  0.89391838  0.70746095  1
  Te  Te144  1  0.92393151  0.24866669  0.09375625  1
  Te  Te145  1  0.89289974  0.24322385  0.41219172  1
  Te  Te146  1  0.86016170  0.27493420  0.72870789  1
  Te  Te147  1  0.92219710  0.55925090  0.08749406  1
  Te  Te148  1  0.93815404  0.55931004  0.44391269  1
  Te  Te149  1  0.91204404  0.58267690  0.73399880  1
  Te  Te150  1  0.92257618  0.92213028  0.07300565  1
  Te  Te151  1  0.92378669  0.92359600  0.41721783  1
  Te  Te152  1  0.92262510  0.91833488  0.74978894  1
  Te  Te153  1  0.24676257  0.10142983  0.27403079  1
  Te  Te154  1  0.22513361  0.09149310  0.59270038  1
  Te  Te155  1  0.24640155  0.08071024  0.92091559  1
  Te  Te156  1  0.27262507  0.38039293  0.27046454  1
  Te  Te157  1  0.22069880  0.43612970  0.56936943  1
  Te  Te158  1  0.27342314  0.41575873  0.90424131  1
  Te  Te159  1  0.24988853  0.76310700  0.26952746  1
  Te  Te160  1  0.23571043  0.76664247  0.55527829  1
  Te  Te161  1  0.25212077  0.76308559  0.92940443  1
  Te  Te162  1  0.57263339  0.08947147  0.26571606  1
  Te  Te163  1  0.58869917  0.08695346  0.58490276  1
  Te  Te164  1  0.58476872  0.10063107  0.90530756  1
  Te  Te165  1  0.57704254  0.41193409  0.26009891  1
  Te  Te166  1  0.57158588  0.40648425  0.61068045  1
  Te  Te167  1  0.59235912  0.41723236  0.91699004  1
  Te  Te168  1  0.58147887  0.75958421  0.24889738  1
  Te  Te169  1  0.60680294  0.77509134  0.61149494  1
  Te  Te170  1  0.57774991  0.76157124  0.90751614  1
  Te  Te171  1  0.91692560  0.11048875  0.25159118  1
  Te  Te172  1  0.90227565  0.10634868  0.60691880  1
  Te  Te173  1  0.93483389  0.10346605  0.87616455  1
  Te  Te174  1  0.91377915  0.41028168  0.24547101  1
  Te  Te175  1  0.95134558  0.37760781  0.58571286  1
  Te  Te176  1  0.92545212  0.40884689  0.90925910  1
  Te  Te177  1  0.91903911  0.73578621  0.25776243  1
  Te  Te178  1  0.91828248  0.74240640  0.57593800  1
  Te  Te179  1  0.89510730  0.73232659  0.87976065  1
