# generated using pymatgen
data_In2Te3
_symmetry_space_group_name_H-M   'P 1'
_cell_length_a   18.97513817
_cell_length_b   18.99125065
_cell_length_c   18.97851725
_cell_angle_alpha   89.80118980
_cell_angle_beta   89.89573440
_cell_angle_gamma   90.11848431
_symmetry_Int_Tables_number   1
_chemical_formula_structural   In2Te3
_chemical_formula_sum   'In72 Te108'
_cell_volume   6839.06172826
_cell_formula_units_Z   36
loop_
 _symmetry_equiv_pos_site_id
 _symmetry_equiv_pos_as_xyz
  1  'x, y, z'
loop_
 _atom_site_type_symbol
 _atom_site_label
 _atom_site_symmetry_multiplicity
 _atom_site_fract_x
 _atom_site_fract_y
 _atom_site_fract_z
 _atom_site_occupancy
  In  In0  1  0.79673521  0.83731421  0.01798163  1
  In  In1  1  0.50559487  0.51163487  0.67377760  1
  In  In2  1  0.15980286  0.15886199  -0.01690852  1
  In  In3  1  0.16476072  0.66912575  0.81405643  1
  In  In4  1  0.00122803  0.01453837  0.65952509  1
  In  In5  1  0.80021102  0.51102036  0.68103405  1
  In  In6  1  0.65445497  0.50147689  0.50236497  1
  In  In7  1  0.59025607  -0.06111192  0.26796531  1
  In  In8  1  -0.00364679  0.66692635  0.32382200  1
  In  In9  1  0.65366161  0.53179964  0.16977717  1
  In  In10  1  0.52982350  0.67758270  0.84148365  1
  In  In11  1  0.16921165  0.34850581  0.17670181  1
  In  In12  1  -0.02284030  0.52577627  0.14789053  1
  In  In13  1  0.00528694  0.32354314  0.67242790  1
  In  In14  1  0.50964192  0.84060360  0.64173461  1
  In  In15  1  0.82715471  0.15034980  -0.00942166  1
  In  In16  1  0.13129688  0.83612703  -0.01158494  1
  In  In17  1  -0.01653267  0.35434536  0.35791108  1
  In  In18  1  0.35831749  0.83653073  0.87238077  1
  In  In19  1  0.01720859  0.50924062  0.51504252  1
  In  In20  1  0.17443315  0.82797954  0.66701743  1
  In  In21  1  0.34758656  0.29940163  -0.00479768  1
  In  In22  1  0.35044528  0.47176571  0.83929219  1
  In  In23  1  0.66974769  0.85488838  0.82910880  1
  In  In24  1  0.82410213  0.15951893  0.34395110  1
  In  In25  1  0.01183103  0.83357926  0.15841795  1
  In  In26  1  0.67200321  0.16678622  0.51704198  1
  In  In27  1  0.17634680  0.64657486  0.49399961  1
  In  In28  1  0.49782682  0.33430013  0.18385355  1
  In  In29  1  0.32014867  0.15280136  0.82377751  1
  In  In30  1  0.49396797  0.67690528  0.48529859  1
  In  In31  1  0.19009330  0.00380032  0.14601479  1
  In  In32  1  -0.02129843  -0.00598533  -0.02336920  1
  In  In33  1  0.35601137  -0.01239995  0.30312588  1
  In  In34  1  0.00201754  0.02124163  0.32554561  1
  In  In35  1  0.49025652  0.17052383  0.35763869  1
  In  In36  1  0.81920862  0.31898859  0.14145247  1
  In  In37  1  0.16850051  0.18625357  0.65424276  1
  In  In38  1  -0.01604699  0.48515693  0.81638662  1
  In  In39  1  0.82137761  0.83612493  0.32999426  1
  In  In40  1  0.82646645  0.33860251  0.52055995  1
  In  In41  1  0.50730197  0.52047180  0.01542679  1
  In  In42  1  0.49902310  0.33739349  0.50861619  1
  In  In43  1  0.01498512  0.32290531  -0.03418256  1
  In  In44  1  0.34921635  0.67450822  0.33231566  1
  In  In45  1  0.63243828  0.32985622  0.00358653  1
  In  In46  1  -0.02060010  0.67709030  0.66626240  1
  In  In47  1  0.20107136  0.17789790  0.38811306  1
  In  In48  1  0.65728190  0.82363780  0.47009004  1
  In  In49  1  0.84550079  0.84909942  0.68469012  1
  In  In50  1  0.02223781  0.18162016  0.18781978  1
  In  In51  1  0.18449885  0.49962534  -0.00867011  1
  In  In52  1  0.67325035  0.15416013  0.16560060  1
  In  In53  1  0.83063177  0.50548452  0.32831647  1
  In  In54  1  0.34450051  0.50759813  0.18956886  1
  In  In55  1  0.83831230  0.32880431  0.82258163  1
  In  In56  1  0.84022977  -0.00751088  0.50137660  1
  In  In57  1  0.79322086  0.69155031  0.86590281  1
  In  In58  1  0.34694784  -0.01332172  0.68160220  1
  In  In59  1  0.16727011  0.65383640  0.19363204  1
  In  In60  1  0.19350162  0.45100822  0.64174774  1
  In  In61  1  0.16668881  -0.00733647  0.49582285  1
  In  In62  1  0.17534808  0.81333213  0.33559786  1
  In  In63  1  0.33816257  0.66321266  0.66662103  1
  In  In64  1  0.52074755  0.05634660  -0.00974512  1
  In  In65  1  0.35499462  0.15596650  0.17361867  1
  In  In66  1  -0.03289821  0.66670729  -0.02021844  1
  In  In67  1  0.49016022  0.51193856  0.33341502  1
  In  In68  1  0.49065896  0.31488855  0.82051563  1
  In  In69  1  0.52223947  0.17165800  0.66613333  1
  In  In70  1  0.67230139  0.00963992  0.67481200  1
  In  In71  1  0.36987407  0.70293155  0.01833917  1
  Te  Te72  1  0.06999349  0.07575883  0.08681796  1
  Te  Te73  1  0.07799028  0.09772320  0.43159482  1
  Te  Te74  1  0.10534851  0.08183262  0.73809034  1
  Te  Te75  1  0.08057965  0.42411079  0.07757061  1
  Te  Te76  1  0.09200194  0.40211483  0.44665712  1
  Te  Te77  1  0.09817997  0.40906729  0.75649573  1
  Te  Te78  1  0.07515392  0.71456469  0.08450642  1
  Te  Te79  1  0.07811410  0.74215579  0.42698914  1
  Te  Te80  1  0.06531088  0.76574792  0.75732708  1
  Te  Te81  1  0.39104884  0.05728510  0.07101670  1
  Te  Te82  1  0.40010117  0.07030652  0.41456636  1
  Te  Te83  1  0.43669392  0.08149931  0.75674629  1
  Te  Te84  1  0.40888838  0.41288077  0.07872157  1
  Te  Te85  1  0.41209418  0.42629112  0.42602704  1
  Te  Te86  1  0.41117827  0.39966202  0.72246785  1
  Te  Te87  1  0.45887652  0.80026044  0.08724033  1
  Te  Te88  1  0.43988369  0.77714945  0.38952071  1
  Te  Te89  1  0.42041521  0.75208631  0.75636956  1
  Te  Te90  1  0.74377053  0.06359852  0.07550786  1
  Te  Te91  1  0.73387364  0.06605839  0.41960390  1
  Te  Te92  1  0.71082805  0.11421904  0.77062455  1
  Te  Te93  1  0.72210209  0.41939462  0.08661126  1
  Te  Te94  1  0.74740312  0.41419713  0.41609854  1
  Te  Te95  1  0.73708480  0.42699951  0.78110454  1
  Te  Te96  1  0.72797934  0.74624859  0.11259880  1
  Te  Te97  1  0.75331401  0.73259891  0.40953281  1
  Te  Te98  1  0.73944665  0.75425021  0.74031019  1
  Te  Te99  1  0.09754381  0.26419321  0.28845301  1
  Te  Te100  1  0.08719510  0.27060582  0.56186224  1
  Te  Te101  1  0.08068730  0.22631447  0.87988741  1
  Te  Te102  1  0.07539255  0.55362801  0.26101380  1
  Te  Te103  1  0.10002686  0.58794696  0.61476169  1
  Te  Te104  1  0.08041081  0.57733923  0.90840247  1
  Te  Te105  1  0.09343911  0.91937198  0.25400516  1
  Te  Te106  1  0.07780019  0.90351934  0.57960607  1
  Te  Te107  1  0.08713461  0.93863309  0.89547529  1
  Te  Te108  1  0.39743114  0.26239673  0.27084603  1
  Te  Te109  1  0.41957587  0.22798340  0.57324830  1
  Te  Te110  1  0.43905295  0.21152910  0.91905144  1
  Te  Te111  1  0.44513439  0.61295692  0.22741054  1
  Te  Te112  1  0.41507436  0.57722095  0.56997414  1
  Te  Te113  1  0.40734716  0.58888746  0.91705757  1
  Te  Te114  1  0.42626758  0.91020064  0.19630603  1
  Te  Te115  1  0.39634714  0.90002487  0.57415357  1
  Te  Te116  1  0.43626336  0.94329702  0.93951484  1
  Te  Te117  1  0.74347757  0.25448764  0.25577208  1
  Te  Te118  1  0.75567027  0.24514784  0.60814250  1
  Te  Te119  1  0.74628692  0.26298924  0.93024549  1
  Te  Te120  1  0.76128120  0.60108026  0.24215683  1
  Te  Te121  1  0.75136124  0.58867636  0.56890358  1
  Te  Te122  1  0.73453336  0.59648247  0.95906622  1
  Te  Te123  1  0.74277337  0.92925481  0.24688263  1
  Te  Te124  1  0.73805675  0.90656299  0.57834851  1
  Te  Te125  1  0.73764350  0.94317098  0.92840322  1
  Te  Te126  1  0.24191441  0.24351990  0.09265717  1
  Te  Te127  1  0.28648118  0.25718390  0.47775552  1
  Te  Te128  1  0.27264319  0.25621021  0.73282629  1
  Te  Te129  1  0.26164986  0.58849169  0.08663796  1
  Te  Te130  1  0.25185229  0.57943979  0.38848975  1
  Te  Te131  1  0.25934578  0.56558411  0.75374569  1
  Te  Te132  1  0.23903538  0.88836162  0.07266095  1
  Te  Te133  1  0.25998392  0.91542512  0.40511799  1
  Te  Te134  1  0.26003421  0.89850999  0.77036329  1
  Te  Te135  1  0.56087355  0.23090874  0.09360507  1
  Te  Te136  1  0.59564124  0.25795496  0.42182622  1
  Te  Te137  1  0.60880418  0.24564562  0.76210152  1
  Te  Te138  1  0.61078600  0.62344238  0.05261997  1
  Te  Te139  1  0.59306593  0.59828313  0.40142940  1
  Te  Te140  1  0.60126986  0.57737820  0.76360947  1
  Te  Te141  1  0.57020243  0.90647488  0.11612430  1
  Te  Te142  1  0.54723995  0.90032259  0.40867675  1
  Te  Te143  1  0.56464284  0.92936910  0.74967022  1
  Te  Te144  1  0.93367586  0.24355369  0.07447621  1
  Te  Te145  1  0.91076935  0.24507422  0.43318061  1
  Te  Te146  1  0.91509593  0.23317655  0.74379738  1
  Te  Te147  1  0.87268653  0.58878517  0.06397498  1
  Te  Te148  1  0.91981509  0.58224756  0.42525340  1
  Te  Te149  1  0.89885412  0.60243817  0.77282350  1
  Te  Te150  1  0.90991152  0.91859540  0.08871267  1
  Te  Te151  1  0.92976882  0.91611404  0.40597040  1
  Te  Te152  1  0.89486419  0.96688263  0.75609862  1
  Te  Te153  1  0.23678217  0.09456260  0.25995151  1
  Te  Te154  1  0.24968676  0.06733501  0.59660745  1
  Te  Te155  1  0.25445061  0.06655903  0.92290736  1
  Te  Te156  1  0.25733935  0.42049911  0.26898860  1
  Te  Te157  1  0.27947677  0.40181238  0.53453679  1
  Te  Te158  1  0.25009584  0.38581443  0.91498545  1
  Te  Te159  1  0.26864479  0.75868310  0.23054006  1
  Te  Te160  1  0.26071145  0.74897417  0.56887022  1
  Te  Te161  1  0.24446147  0.73826207  0.92175748  1
  Te  Te162  1  0.56688916  0.09183247  0.25331681  1
  Te  Te163  1  0.57398371  0.06391734  0.57174299  1
  Te  Te164  1  0.63768152  0.07215640  0.90082304  1
  Te  Te165  1  0.58988565  0.42336218  0.25972137  1
  Te  Te166  1  0.59326975  0.40779436  0.60487626  1
  Te  Te167  1  0.55648207  0.42269966  0.91198571  1
  Te  Te168  1  0.64151613  0.79797392  0.22419908  1
  Te  Te169  1  0.59191664  0.73144306  0.58524823  1
  Te  Te170  1  0.59351215  0.77435905  0.92855130  1
  Te  Te171  1  0.90566981  0.09371475  0.23435909  1
  Te  Te172  1  0.90486919  0.09482561  0.58207120  1
  Te  Te173  1  0.90392342  0.08239712  0.88399866  1
  Te  Te174  1  0.91400068  0.40583981  0.23060556  1
  Te  Te175  1  0.91642630  0.43616185  0.60384160  1
  Te  Te176  1  0.90821051  0.42237641  0.93006967  1
  Te  Te177  1  0.91110499  0.74906950  0.23295789  1
  Te  Te178  1  0.90893529  0.76939366  0.57929188  1
  Te  Te179  1  0.90255141  0.78417661  0.91349705  1
