# generated using pymatgen
data_In2Te3
_symmetry_space_group_name_H-M   'P 1'
_cell_length_a   19.01552939
_cell_length_b   18.97835279
_cell_length_c   18.96824555
_cell_angle_alpha   90.02966070
_cell_angle_beta   90.22977510
_cell_angle_gamma   89.85971138
_symmetry_Int_Tables_number   1
_chemical_formula_structural   In2Te3
_chemical_formula_sum   'In72 Te108'
_cell_volume   6845.24897858
_cell_formula_units_Z   36
loop_
 _symmetry_equiv_pos_site_id
 _symmetry_equiv_pos_as_xyz
  1  'x, y, z'
loop_
 _atom_site_type_symbol
 _atom_site_label
 _atom_site_symmetry_multiplicity
 _atom_site_fract_x
 _atom_site_fract_y
 _atom_site_fract_z
 _atom_site_occupancy
  In  In0  1  -0.01187042  0.16843900  0.18373480  1
  In  In1  1  0.49299209  -0.00004514  0.49231338  1
  In  In2  1  0.65885096  -0.01053747  0.01378485  1
  In  In3  1  0.16918348  0.19865083  -0.01549121  1
  In  In4  1  0.54209034  0.19544575  0.13251017  1
  In  In5  1  0.32996289  0.69019927  0.31243568  1
  In  In6  1  0.16438463  0.52755204  0.00974844  1
  In  In7  1  0.83261057  0.31005256  0.50717193  1
  In  In8  1  0.32240897  0.50618155  0.45877093  1
  In  In9  1  0.68531801  0.66023243  0.65976592  1
  In  In10  1  0.66533948  -0.00488654  0.68796084  1
  In  In11  1  0.15348410  0.65667661  0.82291514  1
  In  In12  1  0.15811479  0.14707422  0.66656531  1
  In  In13  1  -0.00357458  0.33823082  0.32933051  1
  In  In14  1  0.00721546  -0.01117954  0.36433683  1
  In  In15  1  0.67607279  0.83008385  0.17870752  1
  In  In16  1  0.33249785  0.46847623  0.19750010  1
  In  In17  1  0.47849634  0.85024988  0.31589115  1
  In  In18  1  -0.01113473  0.31353819  0.69064453  1
  In  In19  1  0.33098383  0.83658804  0.82753158  1
  In  In20  1  0.66485340  0.32998005  0.35920770  1
  In  In21  1  0.48897757  0.15839002  0.65555094  1
  In  In22  1  0.51100246  0.15167955  0.33132788  1
  In  In23  1  0.18177945  0.01731803  0.15408277  1
  In  In24  1  0.50045878  0.64854200  0.48305020  1
  In  In25  1  0.18211087  0.16310746  0.31755967  1
  In  In26  1  0.34117785  0.33138033  0.65743232  1
  In  In27  1  0.84072249  -0.00642970  0.49946008  1
  In  In28  1  0.17807476  0.81442031  0.65631681  1
  In  In29  1  0.33480973  -0.00699500  0.64144623  1
  In  In30  1  0.33878529  0.65971832  0.00078879  1
  In  In31  1  0.85865123  0.50964594  0.30589559  1
  In  In32  1  0.82535522  0.65597437  0.53266907  1
  In  In33  1  0.49652691  0.34491637  0.84889696  1
  In  In34  1  0.68934179  0.18259227  0.81481044  1
  In  In35  1  0.84672639  0.78361147  -0.02115814  1
  In  In36  1  0.52186637  0.49732060  0.35156520  1
  In  In37  1  0.81217953  0.17685231  0.35304046  1
  In  In38  1  0.00269318  -0.01829595  0.66445040  1
  In  In39  1  0.68617196  0.65149958  0.34896264  1
  In  In40  1  0.66291321  0.48456965  0.15175121  1
  In  In41  1  0.66385398  0.45880719  0.81432755  1
  In  In42  1  0.82793260  0.34213274  0.18278715  1
  In  In43  1  0.16361205  0.67330383  0.48638996  1
  In  In44  1  0.14471184  0.36458035  0.84886733  1
  In  In45  1  0.50208961  0.67853853  0.16034225  1
  In  In46  1  0.00018478  0.50648925  0.50321906  1
  In  In47  1  0.64077315  0.83932661  0.49924487  1
  In  In48  1  0.81586624  0.00678151  0.82793884  1
  In  In49  1  0.00174012  0.82185213  0.16604058  1
  In  In50  1  0.17308783  0.50162623  0.67837452  1
  In  In51  1  0.15560535  0.69132856  0.17040556  1
  In  In52  1  0.49875018  0.00295430  0.84982129  1
  In  In53  1  0.85364826  0.80901697  0.67873534  1
  In  In54  1  0.69526596  0.44866966  0.55804757  1
  In  In55  1  0.13937280  0.00539236  0.84339010  1
  In  In56  1  0.17768758  0.00060158  0.50335100  1
  In  In57  1  0.34978047  0.15534862  0.17766333  1
  In  In58  1  0.48689697  0.67610494  0.85043520  1
  In  In59  1  0.33130134  0.34789739  0.00708250  1
  In  In60  1  0.82127794  -0.01564648  0.18218883  1
  In  In61  1  0.16233492  0.84851250  0.34849942  1
  In  In62  1  0.15990431  0.32099286  0.47846126  1
  In  In63  1  0.49947622  0.50091494  0.66565607  1
  In  In64  1  0.64355995  0.83151605  0.83235678  1
  In  In65  1  0.81966965  0.16763042  -0.00646167  1
  In  In66  1  0.00082950  -0.01394887  0.00471952  1
  In  In67  1  0.36082714  -0.03419430  0.06599643  1
  In  In68  1  0.67491361  0.65508703  -0.02661895  1
  In  In69  1  0.00122640  0.37059252  0.00027210  1
  In  In70  1  0.32079565  0.19473570  0.82941907  1
  In  In71  1  0.85278176  0.54496818  0.00699004  1
  Te  Te72  1  0.07616396  0.10489663  0.07418524  1
  Te  Te73  1  0.09353021  0.09812212  0.42183068  1
  Te  Te74  1  0.05232282  0.09666826  0.75915259  1
  Te  Te75  1  0.11458232  0.41047111  0.08284127  1
  Te  Te76  1  0.08761295  0.43365035  0.40389104  1
  Te  Te77  1  0.05642258  0.43822773  0.75067918  1
  Te  Te78  1  0.09257103  0.77060823  0.06306504  1
  Te  Te79  1  0.07405794  0.74305362  0.39235006  1
  Te  Te80  1  0.07307378  0.75877075  0.74572471  1
  Te  Te81  1  0.43721016  0.09483117  0.07055141  1
  Te  Te82  1  0.40613159  0.07472022  0.40039814  1
  Te  Te83  1  0.40036388  0.08144913  0.76032717  1
  Te  Te84  1  0.42005265  0.43083298  0.08831442  1
  Te  Te85  1  0.43241647  0.41395270  0.43099874  1
  Te  Te86  1  0.40473263  0.42472940  0.75782035  1
  Te  Te87  1  0.39917311  0.75838770  0.09364030  1
  Te  Te88  1  0.41536014  0.75684683  0.41778146  1
  Te  Te89  1  0.41352216  0.74779016  0.74668684  1
  Te  Te90  1  0.74569212  0.08370706  0.09504240  1
  Te  Te91  1  0.74073651  0.08322961  0.43806772  1
  Te  Te92  1  0.77216761  0.10019098  0.71673868  1
  Te  Te93  1  0.77391036  0.42626330  0.07011271  1
  Te  Te94  1  0.78393286  0.41451370  0.40072873  1
  Te  Te95  1  0.75660922  0.37147856  0.73606241  1
  Te  Te96  1  0.74780351  0.73538054  0.08140423  1
  Te  Te97  1  0.75107691  0.75308857  0.43883951  1
  Te  Te98  1  0.74675539  0.74268063  0.77126984  1
  Te  Te99  1  0.09327350  0.25952687  0.24036108  1
  Te  Te100  1  0.07909071  0.24801513  0.58422177  1
  Te  Te101  1  0.05580453  0.25705769  0.90525418  1
  Te  Te102  1  0.04470635  0.60994680  0.22802098  1
  Te  Te103  1  0.08708292  0.59276499  0.59100860  1
  Te  Te104  1  0.06266490  0.58366875  0.91611134  1
  Te  Te105  1  0.07293624  0.94303318  0.23590017  1
  Te  Te106  1  0.08638800  0.90037329  0.56895402  1
  Te  Te107  1  0.06843289  0.89599751  0.91080711  1
  Te  Te108  1  0.44435006  0.25647046  0.23339613  1
  Te  Te109  1  0.40759278  0.24065490  0.56551867  1
  Te  Te110  1  0.41816626  0.24571658  0.93200472  1
  Te  Te111  1  0.43442136  0.58500258  0.26344012  1
  Te  Te112  1  0.40497198  0.57458951  0.57253857  1
  Te  Te113  1  0.42794209  0.56886739  0.92921925  1
  Te  Te114  1  0.42098267  0.91559624  0.19623566  1
  Te  Te115  1  0.43047084  0.90206868  0.58227168  1
  Te  Te116  1  0.41506570  0.90984642  0.93031240  1
  Te  Te117  1  0.73280155  0.24611696  0.24497143  1
  Te  Te118  1  0.71181358  0.29918707  0.59351568  1
  Te  Te119  1  0.76378482  0.27418444  0.90649447  1
  Te  Te120  1  0.74956832  0.58358439  0.23049085  1
  Te  Te121  1  0.78426482  0.54897401  0.63221663  1
  Te  Te122  1  0.75295000  0.56071009  0.88581772  1
  Te  Te123  1  0.76478404  0.89078825  0.27821931  1
  Te  Te124  1  0.74065486  0.89696705  0.60089079  1
  Te  Te125  1  0.74716561  0.90505614  0.92044865  1
  Te  Te126  1  0.25800476  0.24806194  0.09558471  1
  Te  Te127  1  0.26795334  0.26198330  0.39247942  1
  Te  Te128  1  0.22184098  0.27163192  0.74441763  1
  Te  Te129  1  0.25838244  0.58536715  0.11854427  1
  Te  Te130  1  0.23329978  0.59256757  0.37254351  1
  Te  Te131  1  0.26216250  0.59168803  0.74967387  1
  Te  Te132  1  0.22283319  0.91874795  0.05490177  1
  Te  Te133  1  0.26693356  0.91681150  0.42360364  1
  Te  Te134  1  0.23459306  0.93633693  0.74153327  1
  Te  Te135  1  0.60708624  0.28498144  0.03971324  1
  Te  Te136  1  0.59324144  0.22561265  0.42981932  1
  Te  Te137  1  0.56370695  0.24497448  0.75586564  1
  Te  Te138  1  0.58212019  0.58469626  0.07197041  1
  Te  Te139  1  0.62546734  0.55903954  0.45227774  1
  Te  Te140  1  0.58766897  0.58507459  0.75566821  1
  Te  Te141  1  0.57619041  0.91178545  0.10744956  1
  Te  Te142  1  0.58395524  0.92873908  0.39043791  1
  Te  Te143  1  0.55192619  0.90996818  0.74199822  1
  Te  Te144  1  0.91284140  0.25391070  0.08346421  1
  Te  Te145  1  0.93399606  0.23667187  0.42039876  1
  Te  Te146  1  0.87366905  0.27706323  0.77478623  1
  Te  Te147  1  0.94582808  0.60711584  0.10587904  1
  Te  Te148  1  0.91119770  0.59506822  0.41859293  1
  Te  Te149  1  0.92983514  0.69070632  0.74782583  1
  Te  Te150  1  0.89375915  0.90307453  0.07570363  1
  Te  Te151  1  0.91464817  0.89331690  0.42135395  1
  Te  Te152  1  0.91887449  0.91277638  0.77059955  1
  Te  Te153  1  0.27558782  0.05505938  0.26636607  1
  Te  Te154  1  0.26585308  0.10765337  0.56963214  1
  Te  Te155  1  0.24661934  0.09089709  0.91273438  1
  Te  Te156  1  0.27103722  0.38471373  0.29678065  1
  Te  Te157  1  0.24347339  0.41921461  0.56791594  1
  Te  Te158  1  0.25315518  0.44195419  0.91571221  1
  Te  Te159  1  0.24871564  0.79244196  0.23744321  1
  Te  Te160  1  0.26534121  0.74550056  0.56329974  1
  Te  Te161  1  0.24843971  0.74171337  0.91073517  1
  Te  Te162  1  0.59159946  0.09122839  0.22459042  1
  Te  Te163  1  0.59147107  0.07599858  0.58301905  1
  Te  Te164  1  0.60985283  0.08589336  0.90701782  1
  Te  Te165  1  0.58414750  0.40425529  0.24992890  1
  Te  Te166  1  0.56209758  0.39442350  0.58499036  1
  Te  Te167  1  0.59852096  0.40537155  0.94106334  1
  Te  Te168  1  0.58389991  0.73803578  0.27750022  1
  Te  Te169  1  0.57482721  0.73390321  0.58602680  1
  Te  Te170  1  0.57080643  0.76283719  0.94353095  1
  Te  Te171  1  0.90525032  0.07771943  0.27062391  1
  Te  Te172  1  0.92961306  0.07675081  0.58048284  1
  Te  Te173  1  0.91453817  0.07946123  0.91713721  1
  Te  Te174  1  0.94858682  0.42778563  0.21629294  1
  Te  Te175  1  0.92486358  0.40350600  0.58331457  1
  Te  Te176  1  0.91915942  0.45273013  0.91166327  1
  Te  Te177  1  0.92204182  0.71014639  0.22206827  1
  Te  Te178  1  0.93835529  0.73791645  0.58069471  1
  Te  Te179  1  0.93165054  0.68907556  0.90402311  1
