# generated using pymatgen
data_In2Te3
_symmetry_space_group_name_H-M   'P 1'
_cell_length_a   18.77434000
_cell_length_b   18.77840477
_cell_length_c   18.77390031
_cell_angle_alpha   89.86752875
_cell_angle_beta   90.01168338
_cell_angle_gamma   90.04298998
_symmetry_Int_Tables_number   1
_chemical_formula_structural   In2Te3
_chemical_formula_sum   'In72 Te108'
_cell_volume   6618.75934114
_cell_formula_units_Z   36
loop_
 _symmetry_equiv_pos_site_id
 _symmetry_equiv_pos_as_xyz
  1  'x, y, z'
loop_
 _atom_site_type_symbol
 _atom_site_label
 _atom_site_symmetry_multiplicity
 _atom_site_fract_x
 _atom_site_fract_y
 _atom_site_fract_z
 _atom_site_occupancy
  In  In0  1  0.01532085  0.32601305  -0.00551059  1
  In  In1  1  0.82707554  0.68445741  0.13833676  1
  In  In2  1  0.35333924  0.67429073  0.33158553  1
  In  In3  1  -0.00554082  0.50238246  0.15393291  1
  In  In4  1  0.80269684  -0.00952075  0.50763113  1
  In  In5  1  0.16651868  0.81723953  0.68023940  1
  In  In6  1  0.32720760  -0.00308339  0.35705440  1
  In  In7  1  0.17593767  0.84627010  0.34725454  1
  In  In8  1  0.51722152  0.13378522  -0.02009545  1
  In  In9  1  0.16865892  0.65343180  0.13534023  1
  In  In10  1  0.52200930  0.83511951  -0.03856183  1
  In  In11  1  0.50390888  0.51156789  0.68414624  1
  In  In12  1  0.65823938  0.31367315  0.66870416  1
  In  In13  1  0.84035899  0.51645862  0.33754802  1
  In  In14  1  0.82615289  0.49611898  0.66733646  1
  In  In15  1  0.79773201  0.85859842  0.69849186  1
  In  In16  1  0.65184085  0.31607229  0.33122892  1
  In  In17  1  0.35613150  0.16028467  0.51695310  1
  In  In18  1  0.00844657  0.81552955  0.52010357  1
  In  In19  1  0.32700360  0.33956382  0.30861754  1
  In  In20  1  0.16984321  0.67028296  0.51652670  1
  In  In21  1  0.15374527  0.00429956  0.85621704  1
  In  In22  1  0.50962366  0.67587037  0.14461112  1
  In  In23  1  0.16570928  0.47918237  0.32665948  1
  In  In24  1  0.34809044  0.00439933  0.66837510  1
  In  In25  1  0.17108472  0.66366161  0.83848821  1
  In  In26  1  0.83114330  0.64636775  0.51730588  1
  In  In27  1  0.51676092  0.85295642  0.36466430  1
  In  In28  1  0.50656562  -0.00697369  0.16508682  1
  In  In29  1  0.17172999  -0.00353664  0.13942667  1
  In  In30  1  0.49112273  0.50082589  0.31486906  1
  In  In31  1  0.17250838  0.32819872  0.52705391  1
  In  In32  1  0.81071274  0.14919388  -0.02090125  1
  In  In33  1  -0.00689158  0.01733158  0.32389758  1
  In  In34  1  0.16239876  0.16213144  0.32387402  1
  In  In35  1  0.66041298  0.81536435  0.14757046  1
  In  In36  1  0.35707183  0.18495221  0.15297979  1
  In  In37  1  0.66445501  0.51436879  0.81714621  1
  In  In38  1  0.17774940  0.18171495  0.67728833  1
  In  In39  1  0.01743528  0.32475650  0.34630431  1
  In  In40  1  0.50502949  0.32779655  0.15378860  1
  In  In41  1  0.34461808  0.82530633  0.84472704  1
  In  In42  1  -0.01040207  0.82422486  0.14659478  1
  In  In43  1  0.69573664  0.66048210  0.32860666  1
  In  In44  1  0.15484788  0.33784646  0.16402392  1
  In  In45  1  0.65851717  0.00505579  0.33771060  1
  In  In46  1  0.83818696  0.32323633  0.52996045  1
  In  In47  1  0.32838441  0.83852935  0.14221404  1
  In  In48  1  0.49768932  0.67989354  0.51048534  1
  In  In49  1  0.50494697  0.30705036  0.51783333  1
  In  In50  1  0.85376360  0.84163239  0.31315955  1
  In  In51  1  0.66660957  0.85220955  0.51116981  1
  In  In52  1  0.32775064  0.14847253  0.83132099  1
  In  In53  1  0.69287621  0.51655496  0.50422622  1
  In  In54  1  0.66875616  0.31285963  -0.01490308  1
  In  In55  1  0.32275704  0.51133041  0.82850501  1
  In  In56  1  -0.02497819  -0.02169518  0.68354303  1
  In  In57  1  0.84873397  0.00876746  0.14655565  1
  In  In58  1  0.00240615  0.66105276  0.67196039  1
  In  In59  1  -0.01460867  0.18256711  0.83606406  1
  In  In60  1  0.83652362  0.69751101  0.85393045  1
  In  In61  1  0.00431804  -0.01169228  0.00949588  1
  In  In62  1  0.02918822  0.48562990  0.82527972  1
  In  In63  1  0.51802383  0.30856208  0.81295744  1
  In  In64  1  0.31453961  0.34293372  -0.02019055  1
  In  In65  1  0.31493205  0.47791907  0.52080120  1
  In  In66  1  0.82266828  0.31932403  0.15756561  1
  In  In67  1  0.50823657  0.84843640  0.70132324  1
  In  In68  1  0.49630201  0.52562686  -0.00680782  1
  In  In69  1  0.85559703  0.49177516  -0.00498724  1
  In  In70  1  0.81564424  0.15344205  0.69089935  1
  In  In71  1  0.01105992  0.16617435  0.49490548  1
  Te  Te72  1  0.07339206  0.09303436  0.08665894  1
  Te  Te73  1  0.09982500  0.06456402  0.42378597  1
  Te  Te74  1  0.07574024  0.08106402  0.74420853  1
  Te  Te75  1  0.09643077  0.43642946  0.06208727  1
  Te  Te76  1  0.08318032  0.42189459  0.44238680  1
  Te  Te77  1  0.09720261  0.42244735  0.71276797  1
  Te  Te78  1  0.09500896  0.76009350  0.06383652  1
  Te  Te79  1  0.08362347  0.74067903  0.41032114  1
  Te  Te80  1  0.06067287  0.75897496  0.77023883  1
  Te  Te81  1  0.41049390  0.06788075  0.07102494  1
  Te  Te82  1  0.42791173  0.09056266  0.41018630  1
  Te  Te83  1  0.43842356  0.08888359  0.75247012  1
  Te  Te84  1  0.41569361  0.41695465  0.06973112  1
  Te  Te85  1  0.41696792  0.41300999  0.41611489  1
  Te  Te86  1  0.41939182  0.40744315  0.75451772  1
  Te  Te87  1  0.41923476  0.75511715  0.05309831  1
  Te  Te88  1  0.40442359  0.77492603  0.43527651  1
  Te  Te89  1  0.41261429  0.74268051  0.74280553  1
  Te  Te90  1  0.73367123  0.07207949  0.07991881  1
  Te  Te91  1  0.76983170  0.08333175  0.39860365  1
  Te  Te92  1  0.75580339  0.06373112  0.79685748  1
  Te  Te93  1  0.74453219  0.41641514  0.07016011  1
  Te  Te94  1  0.75525274  0.41046303  0.41387083  1
  Te  Te95  1  0.74806916  0.40029592  0.75762743  1
  Te  Te96  1  0.73505021  0.74794967  0.03978550  1
  Te  Te97  1  0.75908332  0.76157538  0.42478140  1
  Te  Te98  1  0.71710201  0.75968840  0.78289269  1
  Te  Te99  1  0.06416879  0.23408381  0.23192968  1
  Te  Te100  1  0.06158874  0.25641725  0.60564858  1
  Te  Te101  1  0.10164942  0.25161264  0.89822689  1
  Te  Te102  1  0.08378035  0.58135654  0.24890981  1
  Te  Te103  1  0.09298087  0.57100611  0.59730109  1
  Te  Te104  1  0.07257413  0.58791606  0.92204588  1
  Te  Te105  1  0.07739066  0.91677953  0.24263062  1
  Te  Te106  1  0.08741572  0.92012618  0.59548978  1
  Te  Te107  1  0.07813245  0.89288787  0.92164559  1
  Te  Te108  1  0.43906988  0.24569483  0.26683156  1
  Te  Te109  1  0.39797171  0.26563240  0.60980352  1
  Te  Te110  1  0.43016633  0.24958794  0.92498337  1
  Te  Te111  1  0.40719644  0.58502884  0.21798560  1
  Te  Te112  1  0.40854656  0.58133605  0.58692623  1
  Te  Te113  1  0.41106897  0.60625557  0.90343026  1
  Te  Te114  1  0.41394929  0.90459518  0.25396692  1
  Te  Te115  1  0.44510615  0.92520196  0.58924018  1
  Te  Te116  1  0.42935045  0.93775005  0.89902713  1
  Te  Te117  1  0.73809374  0.23368115  0.24280506  1
  Te  Te118  1  0.73212172  0.21715905  0.56857448  1
  Te  Te119  1  0.74801171  0.24407022  0.88155745  1
  Te  Te120  1  0.75608487  0.57178918  0.22274592  1
  Te  Te121  1  0.72616222  0.60530417  0.62237339  1
  Te  Te122  1  0.75605605  0.58146511  0.91890829  1
  Te  Te123  1  0.73957891  0.90994635  0.24109795  1
  Te  Te124  1  0.70571596  0.96087619  0.62440090  1
  Te  Te125  1  0.71309469  0.93570623  0.87810177  1
  Te  Te126  1  0.24102893  0.24634159  0.07588625  1
  Te  Te127  1  0.24719345  0.25498312  0.41118915  1
  Te  Te128  1  0.24318585  0.26164642  0.78317073  1
  Te  Te129  1  0.27507671  0.56343815  0.09699104  1
  Te  Te130  1  0.26083240  0.57630148  0.40736554  1
  Te  Te131  1  0.24505293  0.59407599  0.73110136  1
  Te  Te132  1  0.24559000  0.91173286  0.04339938  1
  Te  Te133  1  0.25164225  0.91451875  0.45313666  1
  Te  Te134  1  0.24911154  0.92721781  0.75747578  1
  Te  Te135  1  0.59108150  0.22429833  0.08222468  1
  Te  Te136  1  0.58723311  0.22410753  0.42969438  1
  Te  Te137  1  0.57376789  0.19611612  0.72498788  1
  Te  Te138  1  0.60323958  0.58529678  0.07691723  1
  Te  Te139  1  0.58208117  0.58537629  0.41424411  1
  Te  Te140  1  0.55191538  0.61395700  0.78601771  1
  Te  Te141  1  0.59615054  0.92499107  0.06195623  1
  Te  Te142  1  0.57070358  0.96129025  0.45648540  1
  Te  Te143  1  0.57123808  0.93440762  0.81172338  1
  Te  Te144  1  0.90890772  0.23909960  0.06147341  1
  Te  Te145  1  0.90722255  0.24505190  0.41564088  1
  Te  Te146  1  0.90860144  0.26004106  0.73554440  1
  Te  Te147  1  0.93353960  0.60632939  0.05928391  1
  Te  Te148  1  0.93186804  0.58930107  0.42656890  1
  Te  Te149  1  0.90603750  0.58476181  0.76566591  1
  Te  Te150  1  0.88006558  0.88831393  0.05473866  1
  Te  Te151  1  0.92402362  0.91495467  0.42759205  1
  Te  Te152  1  0.90728751  0.90066208  0.79192002  1
  Te  Te153  1  0.26298227  0.08498297  0.23847417  1
  Te  Te154  1  0.24422336  0.08227987  0.58305369  1
  Te  Te155  1  0.24766961  0.08410702  0.93769811  1
  Te  Te156  1  0.26281386  0.44025769  0.21117207  1
  Te  Te157  1  0.23453997  0.41751215  0.63436277  1
  Te  Te158  1  0.22243843  0.43027001  0.90439322  1
  Te  Te159  1  0.24874353  0.75283668  0.24741969  1
  Te  Te160  1  0.26581308  0.75093961  0.59320515  1
  Te  Te161  1  0.24846559  0.75148598  0.93126171  1
  Te  Te162  1  0.57807426  0.09124589  0.24775070  1
  Te  Te163  1  0.62881364  0.10359075  0.61207334  1
  Te  Te164  1  0.62764402  0.07426981  0.89477148  1
  Te  Te165  1  0.59383570  0.42345600  0.23480977  1
  Te  Te166  1  0.58932595  0.42819225  0.58239592  1
  Te  Te167  1  0.57768010  0.41627656  0.90710014  1
  Te  Te168  1  0.57717558  0.74820794  0.27107950  1
  Te  Te169  1  0.59099162  0.75542474  0.60235613  1
  Te  Te170  1  0.59626530  0.73173883  0.88320873  1
  Te  Te171  1  0.89897122  0.10246904  0.24944537  1
  Te  Te172  1  0.91200573  0.08080723  0.58320859  1
  Te  Te173  1  0.91815041  0.06573634  0.90778227  1
  Te  Te174  1  0.92191601  0.40676633  0.25067515  1
  Te  Te175  1  0.92177216  0.43615707  0.57253574  1
  Te  Te176  1  0.92104727  0.39788027  0.89652084  1
  Te  Te177  1  0.92651260  0.72665561  0.25005589  1
  Te  Te178  1  0.89232223  0.76407564  0.60658940  1
  Te  Te179  1  0.91695377  0.79591185  0.93110241  1
