# generated using pymatgen
data_In2Te3
_symmetry_space_group_name_H-M   'P 1'
_cell_length_a   18.92061956
_cell_length_b   18.90376497
_cell_length_c   18.92888351
_cell_angle_alpha   89.86355762
_cell_angle_beta   90.21646837
_cell_angle_gamma   90.00281279
_symmetry_Int_Tables_number   1
_chemical_formula_structural   In2Te3
_chemical_formula_sum   'In72 Te108'
_cell_volume   6770.24413814
_cell_formula_units_Z   36
loop_
 _symmetry_equiv_pos_site_id
 _symmetry_equiv_pos_as_xyz
  1  'x, y, z'
loop_
 _atom_site_type_symbol
 _atom_site_label
 _atom_site_symmetry_multiplicity
 _atom_site_fract_x
 _atom_site_fract_y
 _atom_site_fract_z
 _atom_site_occupancy
  In  In0  1  0.14205129  0.32044343  0.15550275  1
  In  In1  1  0.64659503  0.84293198  0.53694581  1
  In  In2  1  0.35929242  0.51832002  0.83495063  1
  In  In3  1  0.14836786  0.48397281  0.32717865  1
  In  In4  1  0.82928419  0.84116824  0.36167485  1
  In  In5  1  0.34893189  -0.01850655  0.35712553  1
  In  In6  1  -0.01461301  0.14340681  0.16416528  1
  In  In7  1  -0.00076317  0.80506733  0.18243511  1
  In  In8  1  -0.02874238  0.12475887  0.53489371  1
  In  In9  1  0.00157882  0.68123876  -0.03205227  1
  In  In10  1  0.17633058  -0.00392744  0.81204089  1
  In  In11  1  -0.00658427  0.29668011  0.32765940  1
  In  In12  1  0.19068369  0.32372012  0.81624186  1
  In  In13  1  0.70755014  0.70457277  0.13244207  1
  In  In14  1  0.83011364  0.83805029  0.66193918  1
  In  In15  1  0.32708772  0.64815602  0.33118736  1
  In  In16  1  -0.01314385  0.64502331  0.35640215  1
  In  In17  1  0.18541279  0.50628393  0.66869243  1
  In  In18  1  0.83045278  -0.01828097  0.15625703  1
  In  In19  1  0.37763006  0.85131712  0.54173719  1
  In  In20  1  0.82758911  0.32923876  0.85020402  1
  In  In21  1  0.33477571  0.15385483  0.16433538  1
  In  In22  1  0.51416296  -0.01146277  0.16415090  1
  In  In23  1  0.20499632  0.84048963  -0.02009299  1
  In  In24  1  0.67165898  0.31284777  0.32005357  1
  In  In25  1  0.52875616  0.30415196  0.12355234  1
  In  In26  1  -0.01634273  0.48993104  0.14670588  1
  In  In27  1  0.81691057  0.68410506  0.81502298  1
  In  In28  1  0.47058940  0.31882231  0.51129013  1
  In  In29  1  -0.00259472  0.51549353  0.53359282  1
  In  In30  1  0.15406107  0.32048713  0.49583195  1
  In  In31  1  0.00051778  0.16309512  0.83051444  1
  In  In32  1  0.82173083  0.51167684  0.33920004  1
  In  In33  1  -0.00175442  0.55775357  0.80055356  1
  In  In34  1  0.34342213  0.33753821  -0.00720671  1
  In  In35  1  0.34114631  0.31571549  0.35602224  1
  In  In36  1  0.82472538  0.33510229  0.48461495  1
  In  In37  1  0.52841840  0.50657782  0.30643541  1
  In  In38  1  0.63285258  0.84993468  0.84904718  1
  In  In39  1  0.81159497  0.33260433  0.15500984  1
  In  In40  1  0.00244262  -0.01439197  0.00407502  1
  In  In41  1  0.82529019  -0.01493920  0.80080532  1
  In  In42  1  0.18600410  0.65524200  0.14534320  1
  In  In43  1  0.50480390  0.80987272  0.34048992  1
  In  In44  1  0.38269876  0.82338128  0.80308945  1
  In  In45  1  0.18189364  0.70431670  0.52166494  1
  In  In46  1  0.66266429  0.00054389  0.34439076  1
  In  In47  1  0.00756775  0.35913798  -0.01979570  1
  In  In48  1  0.67779045  0.66487263  0.33270957  1
  In  In49  1  0.32391495  0.14014888  0.55121965  1
  In  In50  1  0.34618047  0.00141630  -0.02090356  1
  In  In51  1  0.65043824  0.32592569  0.67442665  1
  In  In52  1  -0.00607069  0.33660642  0.66189692  1
  In  In53  1  0.65265032  0.13750909  0.52360617  1
  In  In54  1  0.01816797  -0.00931477  0.35938256  1
  In  In55  1  0.49329260  0.80093543  0.02531364  1
  In  In56  1  0.50374102  0.32100085  0.82913115  1
  In  In57  1  0.32961009  0.15557357  0.80935090  1
  In  In58  1  0.66007784  0.54026393  0.51939281  1
  In  In59  1  0.32233518  0.51536391  0.17749770  1
  In  In60  1  0.82673981  0.51447394  0.00571992  1
  In  In61  1  0.15604939  0.70872076  0.79933611  1
  In  In62  1  0.01791057  0.85119620  0.57854318  1
  In  In63  1  0.48773101  0.51711153  0.67256605  1
  In  In64  1  0.33650590  0.50626184  0.51133168  1
  In  In65  1  0.49164642  0.14638448  0.33534395  1
  In  In66  1  0.55108455  0.07267728  0.80891499  1
  In  In67  1  0.18606617  0.00172441  0.15506491  1
  In  In68  1  0.82350852  0.17672175  -0.00229098  1
  In  In69  1  0.50501219  0.52615562  0.01222302  1
  In  In70  1  0.18821249  0.84257660  0.35198777  1
  In  In71  1  0.65140790  0.50894139  0.83204880  1
  Te  Te72  1  0.09302417  0.08823782  0.07117028  1
  Te  Te73  1  0.08132060  0.09383299  0.44113579  1
  Te  Te74  1  0.06297730  0.06434133  0.73839026  1
  Te  Te75  1  0.10419649  0.44114777  0.06896618  1
  Te  Te76  1  0.05025753  0.41343356  0.42823544  1
  Te  Te77  1  0.08239625  0.42441845  0.74995533  1
  Te  Te78  1  0.10077318  0.75849252  0.06882375  1
  Te  Te79  1  0.08364177  0.75128770  0.41333814  1
  Te  Te80  1  0.05569790  0.78762880  0.71988485  1
  Te  Te81  1  0.43339936  0.08330990  0.07467832  1
  Te  Te82  1  0.42349774  0.07685043  0.44781246  1
  Te  Te83  1  0.41161688  0.04624431  0.75055605  1
  Te  Te84  1  0.41979468  0.42032614  0.09524528  1
  Te  Te85  1  0.42199246  0.43760413  0.39955159  1
  Te  Te86  1  0.40997427  0.40708720  0.74421626  1
  Te  Te87  1  0.39624771  0.71248213  0.09122109  1
  Te  Te88  1  0.38900044  0.75302644  0.42146967  1
  Te  Te89  1  0.47552871  0.74049685  0.72414545  1
  Te  Te90  1  0.74996029  0.08192852  0.08323027  1
  Te  Te91  1  0.75025050  0.08034734  0.43098539  1
  Te  Te92  1  0.76583078  0.09300907  0.72094711  1
  Te  Te93  1  0.74175633  0.40261385  0.04851539  1
  Te  Te94  1  0.71869165  0.42931826  0.41910026  1
  Te  Te95  1  0.74336994  0.41542694  0.75496858  1
  Te  Te96  1  0.72015145  0.81361381  0.03086623  1
  Te  Te97  1  0.73282915  0.75459381  0.44074622  1
  Te  Te98  1  0.71879689  0.77618880  0.74451886  1
  Te  Te99  1  0.09367285  0.21435910  0.25382550  1
  Te  Te100  1  0.07362130  0.23176195  0.58908795  1
  Te  Te101  1  0.09243114  0.25422457  0.91127477  1
  Te  Te102  1  0.07775587  0.58924045  0.24032395  1
  Te  Te103  1  0.09249215  0.60953974  0.60357891  1
  Te  Te104  1  0.10537955  0.59704470  0.89893165  1
  Te  Te105  1  0.09080573  0.91410257  0.23899955  1
  Te  Te106  1  0.09567127  0.97357156  0.60673837  1
  Te  Te107  1  0.09128962  0.90974781  0.90770342  1
  Te  Te108  1  0.42647414  0.25544927  0.24306190  1
  Te  Te109  1  0.42497236  0.22719417  0.61511694  1
  Te  Te110  1  0.41526378  0.23164328  0.91423179  1
  Te  Te111  1  0.43593402  0.60482098  0.23331747  1
  Te  Te112  1  0.41161483  0.60886749  0.58357892  1
  Te  Te113  1  0.45943782  0.61110697  0.89703337  1
  Te  Te114  1  0.42183122  0.90331164  0.24986566  1
  Te  Te115  1  0.44687174  0.95161745  0.62873518  1
  Te  Te116  1  0.44253517  0.90492109  0.91753255  1
  Te  Te117  1  0.76908459  0.23056169  0.24978329  1
  Te  Te118  1  0.74326376  0.24895804  0.58127827  1
  Te  Te119  1  0.72581091  0.23034416  0.89651577  1
  Te  Te120  1  0.74714356  0.58004519  0.22717477  1
  Te  Te121  1  0.72226628  0.60150980  0.63574199  1
  Te  Te122  1  0.73878963  0.60095679  0.91685061  1
  Te  Te123  1  0.74180980  0.90589267  0.25482523  1
  Te  Te124  1  0.75912195  0.93746694  0.57291317  1
  Te  Te125  1  0.75042452  0.92176010  0.91412728  1
  Te  Te126  1  0.25166151  0.24871965  0.07776633  1
  Te  Te127  1  0.25424651  0.22374519  0.43505420  1
  Te  Te128  1  0.23748864  0.22680251  0.71788226  1
  Te  Te129  1  0.29217617  0.60055546  0.05464250  1
  Te  Te130  1  0.22232783  0.57562551  0.42498037  1
  Te  Te131  1  0.26610636  0.60372747  0.74792719  1
  Te  Te132  1  0.28554359  0.91049270  0.08760004  1
  Te  Te133  1  0.24916059  0.92850939  0.45814588  1
  Te  Te134  1  0.26407321  0.89756974  0.74164795  1
  Te  Te135  1  0.60921400  0.21768501  0.03909974  1
  Te  Te136  1  0.57350114  0.24918785  0.42210449  1
  Te  Te137  1  0.57491541  0.21595708  0.74692230  1
  Te  Te138  1  0.61204900  0.59861089  0.08477044  1
  Te  Te139  1  0.56671164  0.60350443  0.41921103  1
  Te  Te140  1  0.59872234  0.60707577  0.72699434  1
  Te  Te141  1  0.59735307  0.90244922  0.07441178  1
  Te  Te142  1  0.56764607  0.91713180  0.42716338  1
  Te  Te143  1  0.60010010  0.94872601  0.73670123  1
  Te  Te144  1  0.93619838  0.26543029  0.07747504  1
  Te  Te145  1  0.90964523  0.22309322  0.42782028  1
  Te  Te146  1  0.90468088  0.24740235  0.74756204  1
  Te  Te147  1  0.92056260  0.61040250  0.07833787  1
  Te  Te148  1  0.88523817  0.58824204  0.45372284  1
  Te  Te149  1  0.88506138  0.59564059  0.71555884  1
  Te  Te150  1  0.91812264  0.88330208  0.07978144  1
  Te  Te151  1  0.93278353  0.90679359  0.44986517  1
  Te  Te152  1  0.93666289  0.88393669  0.76473331  1
  Te  Te153  1  0.26021165  0.07219142  0.26799625  1
  Te  Te154  1  0.24157993  0.02953364  0.60231125  1
  Te  Te155  1  0.24033582  0.08837706  0.91502168  1
  Te  Te156  1  0.24368243  0.38996908  0.25632424  1
  Te  Te157  1  0.25314454  0.40093504  0.58170956  1
  Te  Te158  1  0.25657773  0.42689503  0.90651731  1
  Te  Te159  1  0.24960814  0.75037447  0.24779465  1
  Te  Te160  1  0.26171899  0.78675456  0.61562030  1
  Te  Te161  1  0.27571210  0.74611679  0.88948289  1
  Te  Te162  1  0.59496775  0.09277591  0.24072665  1
  Te  Te163  1  0.57511138  0.03834185  0.60296438  1
  Te  Te164  1  0.61811291  0.09816092  0.93926795  1
  Te  Te165  1  0.59828352  0.40199764  0.22124665  1
  Te  Te166  1  0.56895404  0.41866049  0.57795969  1
  Te  Te167  1  0.57298490  0.41616896  0.92294439  1
  Te  Te168  1  0.60063501  0.75427453  0.23924114  1
  Te  Te169  1  0.52922447  0.76080389  0.58103988  1
  Te  Te170  1  0.56767466  0.73053318  0.91524917  1
  Te  Te171  1  0.91586253  0.05464392  0.26298159  1
  Te  Te172  1  0.87047965  0.04894160  0.62616696  1
  Te  Te173  1  0.91082279  0.07429895  0.91882157  1
  Te  Te174  1  0.91524456  0.41656413  0.26176140  1
  Te  Te175  1  0.88985260  0.42223027  0.59150468  1
  Te  Te176  1  0.92117145  0.45153749  0.89507809  1
  Te  Te177  1  0.89869388  0.73644586  0.27088705  1
  Te  Te178  1  0.91327538  0.74881339  0.57793972  1
  Te  Te179  1  0.91261208  0.77059954  0.89193516  1
