# generated using pymatgen
data_In2Te3
_symmetry_space_group_name_H-M   'P 1'
_cell_length_a   18.96465925
_cell_length_b   18.94237716
_cell_length_c   18.96236936
_cell_angle_alpha   90.07785669
_cell_angle_beta   89.89800819
_cell_angle_gamma   89.92283216
_symmetry_Int_Tables_number   1
_chemical_formula_structural   In2Te3
_chemical_formula_sum   'In72 Te108'
_cell_volume   6811.93728691
_cell_formula_units_Z   36
loop_
 _symmetry_equiv_pos_site_id
 _symmetry_equiv_pos_as_xyz
  1  'x, y, z'
loop_
 _atom_site_type_symbol
 _atom_site_label
 _atom_site_symmetry_multiplicity
 _atom_site_fract_x
 _atom_site_fract_y
 _atom_site_fract_z
 _atom_site_occupancy
  In  In0  1  0.48106789  0.69244306  0.82980492  1
  In  In1  1  0.32061332  0.65442244  0.34349063  1
  In  In2  1  0.68055629  0.15378218  0.47721413  1
  In  In3  1  0.17434203  0.49656942  0.64209142  1
  In  In4  1  0.67242276  0.68683037  0.63430637  1
  In  In5  1  0.49077413  0.50685731  0.34651351  1
  In  In6  1  0.48284296  0.00167564  0.48647783  1
  In  In7  1  0.32365948  0.14845243  0.16653028  1
  In  In8  1  0.30581127  0.33412419  -0.02598099  1
  In  In9  1  0.34957502  0.67176341  0.67589355  1
  In  In10  1  0.67928906  0.17382750  0.84196822  1
  In  In11  1  0.65052282  0.85813376  0.84280495  1
  In  In12  1  0.84871384  0.32364331  0.13170735  1
  In  In13  1  0.18369789  0.83532338  0.67363276  1
  In  In14  1  0.49114321  0.33190061  0.82011382  1
  In  In15  1  0.31876111  0.49096711  0.85843133  1
  In  In16  1  0.51736175  0.49425694  0.01684136  1
  In  In17  1  0.67537578  0.49455942  0.80528760  1
  In  In18  1  0.83443528  0.48837468  0.32606355  1
  In  In19  1  0.93234393  0.82549460  0.29025621  1
  In  In20  1  -0.01256932  0.50672889  0.51247955  1
  In  In21  1  0.85185893  0.68318815  0.83801122  1
  In  In22  1  0.16685650  0.02307246  0.50599052  1
  In  In23  1  0.65571560  0.81460053  0.50254806  1
  In  In24  1  0.49676332  -0.00597208  0.18029332  1
  In  In25  1  0.28143792  0.48358228  0.18143635  1
  In  In26  1  0.33368074  -0.00730663  0.00178494  1
  In  In27  1  0.67070416  0.34554243  0.65644405  1
  In  In28  1  0.00443929  0.29122526  0.31439803  1
  In  In29  1  0.47094619  0.30530898  0.15164873  1
  In  In30  1  0.48995244  0.48654461  0.69090840  1
  In  In31  1  0.00281538  0.13335635  0.87797912  1
  In  In32  1  -0.02202930  0.15563741  0.46997877  1
  In  In33  1  0.15389825  0.67134005  0.17449694  1
  In  In34  1  0.50629421  0.66389105  0.50034818  1
  In  In35  1  -0.00858218  0.02145980  0.29612580  1
  In  In36  1  0.31494690  0.02906851  0.66080326  1
  In  In37  1  0.68879865  0.65463709  0.01202333  1
  In  In38  1  0.66489626  0.33922544  0.33273703  1
  In  In39  1  0.31423772  0.69760211  -0.00895676  1
  In  In40  1  0.87293208  0.85921420  0.03749896  1
  In  In41  1  0.83007304  0.16662402  0.68031427  1
  In  In42  1  0.68163538  0.67890498  0.33792765  1
  In  In43  1  0.68302847  -0.02049022  0.32118502  1
  In  In44  1  0.01878269  0.85557350  0.86882492  1
  In  In45  1  0.13300915  0.69145522  0.46963985  1
  In  In46  1  0.30598369  0.84287367  0.15604276  1
  In  In47  1  0.31541917  0.47927298  0.48866300  1
  In  In48  1  0.00603668  0.32828883  0.67846228  1
  In  In49  1  0.32323789  0.83709463  0.48145397  1
  In  In50  1  0.86613483  0.49521654  0.01761937  1
  In  In51  1  0.49347000  0.85028019  0.00754874  1
  In  In52  1  0.15378512  0.16033428  0.01718360  1
  In  In53  1  0.47574832  0.30618068  0.52043279  1
  In  In54  1  0.00504728  -0.00675868  0.67640167  1
  In  In55  1  0.00036227  0.51059541  0.85259653  1
  In  In56  1  0.32594992  0.18207815  0.82155049  1
  In  In57  1  0.84243625  0.66905400  0.50549314  1
  In  In58  1  0.66608587  0.51013418  0.20100304  1
  In  In59  1  0.83458370  0.49405695  0.68939882  1
  In  In60  1  0.14891190  0.30410984  0.46689772  1
  In  In61  1  0.64934838  0.01305785  0.68114593  1
  In  In62  1  0.04975709  0.46360061  0.14277820  1
  In  In63  1  0.67734319  0.15120913  0.15940026  1
  In  In64  1  0.17058917  0.16452465  0.68017376  1
  In  In65  1  0.83138815  -0.01263903  0.47118126  1
  In  In66  1  0.69626337  0.31335421  -0.00500129  1
  In  In67  1  0.15963246  0.68205453  0.84586633  1
  In  In68  1  0.69219876  0.01634392  -0.00755702  1
  In  In69  1  0.83920365  0.84618405  0.67008668  1
  In  In70  1  0.31273179  0.01020206  0.33004163  1
  In  In71  1  0.68876495  0.82579017  0.18214234  1
  Te  Te72  1  0.04116672  0.09502815  0.09359661  1
  Te  Te73  1  0.09013417  0.08886802  0.39304548  1
  Te  Te74  1  0.09516027  0.06751124  0.77153797  1
  Te  Te75  1  0.06893763  0.38095362  0.02008190  1
  Te  Te76  1  0.05009499  0.40446664  0.41796541  1
  Te  Te77  1  0.08817028  0.43244486  0.74866960  1
  Te  Te78  1  0.07425025  0.77914479  0.10752620  1
  Te  Te79  1  0.03607279  0.74710284  0.37704663  1
  Te  Te80  1  0.07495748  0.76658438  0.75351516  1
  Te  Te81  1  0.43109801  0.08135939  0.07810758  1
  Te  Te82  1  0.40350273  0.09535054  0.40721060  1
  Te  Te83  1  0.42152009  0.11180544  0.72928475  1
  Te  Te84  1  0.39988619  0.41712606  0.07507857  1
  Te  Te85  1  0.41100676  0.39477059  0.40895636  1
  Te  Te86  1  0.37758484  0.40374804  0.74750283  1
  Te  Te87  1  0.41335635  0.75270800  0.09127529  1
  Te  Te88  1  0.42287837  0.74799108  0.40699819  1
  Te  Te89  1  0.37554588  0.77726247  0.77475331  1
  Te  Te90  1  0.78539495  0.07264503  0.09400859  1
  Te  Te91  1  0.77483852  0.08996558  0.37630913  1
  Te  Te92  1  0.76092245  0.06507257  0.76756067  1
  Te  Te93  1  0.73661366  0.43228096  0.08453597  1
  Te  Te94  1  0.74469251  0.42337433  0.42088164  1
  Te  Te95  1  0.76920104  0.38145578  0.76781982  1
  Te  Te96  1  0.77886534  0.74585135  0.08957042  1
  Te  Te97  1  0.77247910  0.77169194  0.41718502  1
  Te  Te98  1  0.73968431  0.75182371  0.75421197  1
  Te  Te99  1  0.13460226  0.28658619  0.23714131  1
  Te  Te100  1  0.06474009  0.22608821  0.57972529  1
  Te  Te101  1  0.08021511  0.25542983  0.92399664  1
  Te  Te102  1  0.11968929  0.54455553  0.24643424  1
  Te  Te103  1  0.08162546  0.60154642  0.58422195  1
  Te  Te104  1  0.07580682  0.60380968  0.93660380  1
  Te  Te105  1  0.05499896  0.90022497  0.22410011  1
  Te  Te106  1  0.09139456  0.91333783  0.58103109  1
  Te  Te107  1  0.11538484  0.91735414  0.96093454  1
  Te  Te108  1  0.40450307  0.23168194  0.25845949  1
  Te  Te109  1  0.41435569  0.22830741  0.62557118  1
  Te  Te110  1  0.42036843  0.24871616  0.92507917  1
  Te  Te111  1  0.39772114  0.56851848  0.24519842  1
  Te  Te112  1  0.40878947  0.56869800  0.57285611  1
  Te  Te113  1  0.42997756  0.57777389  0.91872438  1
  Te  Te114  1  0.40210359  0.90683894  0.25639213  1
  Te  Te115  1  0.39540560  0.92264889  0.58194295  1
  Te  Te116  1  0.41834504  0.91990504  0.90443668  1
  Te  Te117  1  0.75103656  0.26291582  0.23209404  1
  Te  Te118  1  0.75336454  0.24471062  0.57643873  1
  Te  Te119  1  0.79221810  0.21517255  0.93499466  1
  Te  Te120  1  0.77552062  0.60371508  0.24390947  1
  Te  Te121  1  0.75362132  0.57106002  0.58395784  1
  Te  Te122  1  0.76554938  0.57341995  0.90579656  1
  Te  Te123  1  0.79475150  0.90388529  0.25339408  1
  Te  Te124  1  0.73799286  0.92417445  0.57959883  1
  Te  Te125  1  0.76410579  0.89675226  0.93182126  1
  Te  Te126  1  0.24481016  0.25887441  0.08980988  1
  Te  Te127  1  0.22820738  0.24514155  0.35506752  1
  Te  Te128  1  0.22093205  0.26956082  0.76839072  1
  Te  Te129  1  0.24852562  0.59519771  0.07849166  1
  Te  Te130  1  0.21856036  0.57207684  0.41978816  1
  Te  Te131  1  0.24964268  0.58549048  0.75289857  1
  Te  Te132  1  0.21676803  0.94147448  0.08324405  1
  Te  Te133  1  0.21757241  0.91484353  0.41007283  1
  Te  Te134  1  0.23782887  0.94484626  0.75373648  1
  Te  Te135  1  0.58958203  0.24061178  0.07402184  1
  Te  Te136  1  0.57839018  0.24898332  0.41830153  1
  Te  Te137  1  0.59091428  0.24906868  0.74153983  1
  Te  Te138  1  0.58325686  0.59775473  0.10617404  1
  Te  Te139  1  0.60248399  0.57828250  0.42145350  1
  Te  Te140  1  0.57890239  0.59743482  0.74522642  1
  Te  Te141  1  0.60130832  0.92051964  0.09080613  1
  Te  Te142  1  0.58185860  0.91041913  0.41084540  1
  Te  Te143  1  0.56050954  0.91594567  0.74477626  1
  Te  Te144  1  0.96189600  0.23042090  0.10389879  1
  Te  Te145  1  0.89710369  0.26160368  0.41157544  1
  Te  Te146  1  0.93941158  0.22394047  0.76538575  1
  Te  Te147  1  0.95513292  0.57678325  0.10100040  1
  Te  Te148  1  0.92192198  0.58813897  0.40237325  1
  Te  Te149  1  0.93068322  0.59705249  0.74220056  1
  Te  Te150  1  0.96983645  0.95223992  0.10191011  1
  Te  Te151  1  0.95289289  0.92681376  0.41118809  1
  Te  Te152  1  0.91565283  0.92308637  0.77689514  1
  Te  Te153  1  0.22462761  0.05094149  0.21760067  1
  Te  Te154  1  0.26050143  0.12919593  0.55880064  1
  Te  Te155  1  0.25275872  0.09459938  0.92204506  1
  Te  Te156  1  0.24055622  0.38853393  0.28723348  1
  Te  Te157  1  0.23689752  0.37813588  0.56916426  1
  Te  Te158  1  0.20571948  0.44006135  0.94190374  1
  Te  Te159  1  0.24101084  0.75743133  0.26503647  1
  Te  Te160  1  0.25420505  0.73254437  0.57012956  1
  Te  Te161  1  0.21879762  0.79275388  0.92982302  1
  Te  Te162  1  0.58720366  0.08383319  0.26172865  1
  Te  Te163  1  0.57989915  0.08742960  0.56942419  1
  Te  Te164  1  0.59059818  0.08012316  0.91025868  1
  Te  Te165  1  0.55776024  0.40858822  0.23755072  1
  Te  Te166  1  0.56520009  0.42010823  0.57803007  1
  Te  Te167  1  0.59215320  0.41307417  0.91019721  1
  Te  Te168  1  0.58601901  0.75182156  0.25524623  1
  Te  Te169  1  0.54759327  0.76707459  0.60269782  1
  Te  Te170  1  0.58968366  0.74068717  0.93220485  1
  Te  Te171  1  0.95219350  0.15711918  0.24199057  1
  Te  Te172  1  0.90562173  0.06824876  0.58497995  1
  Te  Te173  1  0.88368292  0.09015340  0.95590045  1
  Te  Te174  1  0.92519960  0.41138203  0.23079036  1
  Te  Te175  1  0.90818723  0.40350755  0.59079318  1
  Te  Te176  1  0.91889828  0.40385365  0.91603743  1
  Te  Te177  1  0.96572264  0.71711880  0.18847275  1
  Te  Te178  1  0.92277536  0.75997174  0.58786282  1
  Te  Te179  1  0.93416566  0.75164307  0.94260987  1
