# generated using pymatgen
data_In2Te3
_symmetry_space_group_name_H-M   'P 1'
_cell_length_a   18.98985018
_cell_length_b   18.96629677
_cell_length_c   18.94808193
_cell_angle_alpha   89.87108602
_cell_angle_beta   89.97942618
_cell_angle_gamma   89.87810101
_symmetry_Int_Tables_number   1
_chemical_formula_structural   In2Te3
_chemical_formula_sum   'In72 Te108'
_cell_volume   6824.44322014
_cell_formula_units_Z   36
loop_
 _symmetry_equiv_pos_site_id
 _symmetry_equiv_pos_as_xyz
  1  'x, y, z'
loop_
 _atom_site_type_symbol
 _atom_site_label
 _atom_site_symmetry_multiplicity
 _atom_site_fract_x
 _atom_site_fract_y
 _atom_site_fract_z
 _atom_site_occupancy
  In  In0  1  0.82442283  0.65352247  0.82647934  1
  In  In1  1  0.65181698  0.49663547  0.50128689  1
  In  In2  1  0.29484855  0.79137690  0.51292811  1
  In  In3  1  0.48250739  0.48305157  0.00781604  1
  In  In4  1  0.50497202  0.48820157  0.34335022  1
  In  In5  1  0.16451659  0.53348551  0.65311899  1
  In  In6  1  0.67334068  -0.00967172  0.65889738  1
  In  In7  1  -0.00805906  0.50659164  0.18781018  1
  In  In8  1  0.33646408  0.64338189  0.00489619  1
  In  In9  1  0.33320537  -0.01090817  0.67325073  1
  In  In10  1  0.01947432  0.00877484  -0.00414536  1
  In  In11  1  0.83750809  0.84022570  0.34968766  1
  In  In12  1  0.17179714  0.33987982  0.84332390  1
  In  In13  1  0.83002227  0.00038306  0.51375157  1
  In  In14  1  0.48950226  0.33951083  0.83038855  1
  In  In15  1  0.01499327  0.33507230  0.67205560  1
  In  In16  1  0.65489399  0.82415318  0.15336808  1
  In  In17  1  0.67975389  0.00069422  -0.00296027  1
  In  In18  1  0.49692254  -0.02805176  0.49817916  1
  In  In19  1  0.50870599  0.82790430  -0.03301202  1
  In  In20  1  0.17255536  0.14759340  0.67994061  1
  In  In21  1  0.00131807  0.65845904  0.65752100  1
  In  In22  1  0.32405461  0.20414324  0.17850109  1
  In  In23  1  0.34813452  0.00484419  0.32016161  1
  In  In24  1  0.35625881  0.02608563  -0.00284924  1
  In  In25  1  0.17605970  0.50669456  -0.00290368  1
  In  In26  1  0.84330897  0.20651617  0.64539821  1
  In  In27  1  0.14896792  0.32590480  0.20033759  1
  In  In28  1  -0.00740316  0.34344620  -0.01308813  1
  In  In29  1  0.16506707  0.17737708  0.02205553  1
  In  In30  1  0.66060246  0.34204887  0.34503928  1
  In  In31  1  0.85051183  -0.00636594  0.17882924  1
  In  In32  1  0.17726082  0.32606952  0.48190280  1
  In  In33  1  0.46555344  0.23727203  0.05378579  1
  In  In34  1  0.52161672  -0.01883108  0.83440341  1
  In  In35  1  0.62154013  0.66714633  0.66258467  1
  In  In36  1  0.84042727  0.33598812  0.16518347  1
  In  In37  1  0.68086209  0.16432688  0.50541658  1
  In  In38  1  0.85203114  0.01007302  0.80744503  1
  In  In39  1  0.84531122  0.86174033  -0.03026158  1
  In  In40  1  0.33829003  0.85684179  0.18326139  1
  In  In41  1  0.33198297  0.15071653  0.82048048  1
  In  In42  1  0.61997417  0.80897819  0.82292302  1
  In  In43  1  0.88712913  0.20635596  0.37333821  1
  In  In44  1  0.16349259  0.81988059  0.33785248  1
  In  In45  1  0.63591452  -0.00327542  0.36698744  1
  In  In46  1  0.48674321  0.48862349  0.65862733  1
  In  In47  1  0.00544241  0.67104057  0.34758662  1
  In  In48  1  0.01049941  0.01728042  0.34319086  1
  In  In49  1  0.33417769  0.51178540  0.50793496  1
  In  In50  1  0.82758475  0.47046847  0.67131448  1
  In  In51  1  0.18182996  0.01097681  0.18533004  1
  In  In52  1  0.46663585  0.19856480  0.63303105  1
  In  In53  1  0.00917520  0.67532034  0.00349893  1
  In  In54  1  0.17318661  0.64143621  0.82634957  1
  In  In55  1  0.48649283  0.17087021  0.32568294  1
  In  In56  1  0.33049562  0.65564489  0.34103006  1
  In  In57  1  0.00355562  -0.00521560  0.65410607  1
  In  In58  1  0.15920289  0.48703388  0.34261404  1
  In  In59  1  0.66713113  0.67951427  -0.02198797  1
  In  In60  1  0.67734176  0.51792631  0.14347492  1
  In  In61  1  0.16777822  0.01968967  0.49302535  1
  In  In62  1  0.16440299  -0.01980888  0.81448183  1
  In  In63  1  0.16823816  0.82638354  -0.01727454  1
  In  In64  1  0.85205610  0.64580012  0.50954956  1
  In  In65  1  0.47488450  0.67387262  0.18331912  1
  In  In66  1  0.66707439  0.63463216  0.34142377  1
  In  In67  1  0.64204361  0.19245932  0.16792478  1
  In  In68  1  0.84998576  0.49948621  -0.02307408  1
  In  In69  1  0.64280505  0.17389678  0.82380238  1
  In  In70  1  0.81881211  0.67553628  0.19446380  1
  In  In71  1  0.81567237  0.19152988  -0.00441901  1
  Te  Te72  1  0.07683580  0.09202613  0.10974269  1
  Te  Te73  1  0.09002897  0.12304585  0.41436678  1
  Te  Te74  1  0.06544893  0.08258610  0.76337410  1
  Te  Te75  1  0.07359053  0.42400306  0.08687046  1
  Te  Te76  1  0.06314978  0.38950308  0.40629926  1
  Te  Te77  1  0.09670812  0.43398597  0.75250763  1
  Te  Te78  1  0.09926790  0.75198670  0.08727352  1
  Te  Te79  1  0.07975320  0.75730948  0.43905028  1
  Te  Te80  1  0.10211867  0.73750640  0.73707894  1
  Te  Te81  1  0.41512240  0.09875810  0.11039519  1
  Te  Te82  1  0.41717993  0.08222592  0.42938727  1
  Te  Te83  1  0.44254476  0.08187042  0.74316867  1
  Te  Te84  1  0.42544736  0.37763101  0.09454578  1
  Te  Te85  1  0.41950822  0.40653699  0.43711230  1
  Te  Te86  1  0.39636245  0.39865722  0.73440730  1
  Te  Te87  1  0.41466682  0.76614996  0.07658239  1
  Te  Te88  1  0.40195690  0.75505867  0.42036286  1
  Te  Te89  1  0.47882503  0.77272565  0.77254291  1
  Te  Te90  1  0.75328496  0.08704635  0.09731085  1
  Te  Te91  1  0.75659238  0.07824008  0.40317321  1
  Te  Te92  1  0.74909489  0.09783214  0.73698212  1
  Te  Te93  1  0.75859206  0.41576012  0.06612607  1
  Te  Te94  1  0.75334032  0.40745633  0.43846203  1
  Te  Te95  1  0.77933824  0.37335483  0.77130041  1
  Te  Te96  1  0.76308057  0.76322540  0.06456633  1
  Te  Te97  1  0.75886585  0.72954660  0.41564591  1
  Te  Te98  1  0.73304763  0.73982655  0.74645718  1
  Te  Te99  1  0.10831839  0.21910548  0.29179948  1
  Te  Te100  1  0.10064259  0.24183279  0.58687782  1
  Te  Te101  1  0.07996561  0.24203473  0.91414856  1
  Te  Te102  1  0.09660561  0.59228287  0.25014393  1
  Te  Te103  1  0.05569553  0.56340218  0.55869166  1
  Te  Te104  1  0.06800915  0.57102380  0.91189027  1
  Te  Te105  1  0.08295767  0.91910389  0.25290855  1
  Te  Te106  1  0.10936341  0.92235923  0.58398124  1
  Te  Te107  1  0.06585696  0.90110227  0.89913494  1
  Te  Te108  1  0.44113076  0.28050137  0.23567547  1
  Te  Te109  1  0.38555049  0.27274466  0.53498263  1
  Te  Te110  1  0.39775497  0.24620168  0.91381991  1
  Te  Te111  1  0.40642604  0.55759582  0.25049570  1
  Te  Te112  1  0.40707312  0.60231921  0.59995101  1
  Te  Te113  1  0.39353631  0.54587029  0.90679063  1
  Te  Te114  1  0.44420539  0.90663307  0.26969004  1
  Te  Te115  1  0.39550555  0.89074845  0.57655499  1
  Te  Te116  1  0.40003656  0.91838400  0.90278102  1
  Te  Te117  1  0.74911119  0.25241454  0.25573101  1
  Te  Te118  1  0.74726383  0.28326181  0.56347078  1
  Te  Te119  1  0.74397575  0.26493696  0.88716786  1
  Te  Te120  1  0.76689882  0.55163861  0.26206821  1
  Te  Te121  1  0.74118288  0.57575760  0.59856101  1
  Te  Te122  1  0.73067860  0.56335869  0.90435195  1
  Te  Te123  1  0.74244873  0.90866885  0.24601477  1
  Te  Te124  1  0.76222814  0.89586046  0.59133989  1
  Te  Te125  1  0.73252388  0.91529824  0.88406640  1
  Te  Te126  1  0.24168785  0.28968832  0.08044095  1
  Te  Te127  1  0.30135347  0.29198066  0.40499228  1
  Te  Te128  1  0.25557795  0.25663745  0.74446346  1
  Te  Te129  1  0.26108560  0.56358917  0.10087708  1
  Te  Te130  1  0.22794421  0.58979235  0.43019054  1
  Te  Te131  1  0.28081129  0.60967204  0.71770783  1
  Te  Te132  1  0.25076123  0.93111460  0.07548358  1
  Te  Te133  1  0.25274271  0.92369615  0.40753160  1
  Te  Te134  1  0.25985409  0.89011384  0.75146193  1
  Te  Te135  1  0.60890314  0.27352450  0.05114651  1
  Te  Te136  1  0.57761062  0.24274029  0.42269973  1
  Te  Te137  1  0.57278834  0.26139206  0.72046649  1
  Te  Te138  1  0.57241095  0.60766160  0.08159588  1
  Te  Te139  1  0.55560127  0.59658273  0.43591596  1
  Te  Te140  1  0.58463815  0.55573794  0.74785923  1
  Te  Te141  1  0.57270221  0.92115308  0.07102782  1
  Te  Te142  1  0.60717614  0.87719010  0.45158721  1
  Te  Te143  1  0.55661245  0.89552825  0.70741402  1
  Te  Te144  1  0.92868572  0.24382529  0.08288843  1
  Te  Te145  1  0.94365273  0.30471069  0.46818690  1
  Te  Te146  1  0.92926165  0.24796763  0.75598716  1
  Te  Te147  1  0.90100364  0.59268078  0.08801729  1
  Te  Te148  1  0.91583021  0.56954518  0.40218040  1
  Te  Te149  1  0.91742557  0.56654884  0.74769873  1
  Te  Te150  1  0.93434497  0.91317414  0.08131017  1
  Te  Te151  1  0.93380328  0.92172288  0.43283554  1
  Te  Te152  1  0.91631347  0.90462351  0.73205455  1
  Te  Te153  1  0.24626333  0.11544151  0.27471102  1
  Te  Te154  1  0.27094312  0.09179951  0.57963048  1
  Te  Te155  1  0.23150258  0.08182514  0.91907933  1
  Te  Te156  1  0.25562240  0.39580753  0.27599296  1
  Te  Te157  1  0.23935056  0.42077913  0.58443880  1
  Te  Te158  1  0.26703103  0.43820600  0.90111258  1
  Te  Te159  1  0.25453894  0.74671099  0.24104801  1
  Te  Te160  1  0.22455698  0.72137246  0.62365054  1
  Te  Te161  1  0.26163463  0.73433459  0.90770692  1
  Te  Te162  1  0.58179906  0.07802766  0.24983338  1
  Te  Te163  1  0.57784605  0.07975594  0.57941222  1
  Te  Te164  1  0.57427447  0.08769735  0.92891022  1
  Te  Te165  1  0.59585359  0.42761302  0.23723848  1
  Te  Te166  1  0.57494170  0.39960888  0.57840016  1
  Te  Te167  1  0.57929738  0.40629612  0.92760849  1
  Te  Te168  1  0.58801883  0.73962001  0.25927133  1
  Te  Te169  1  0.59056607  0.77783252  0.57296699  1
  Te  Te170  1  0.53768449  0.69218599  0.89269653  1
  Te  Te171  1  0.91654182  0.10192629  0.25930184  1
  Te  Te172  1  0.92457090  0.10033487  0.57408915  1
  Te  Te173  1  0.90307947  0.08235243  0.92894629  1
  Te  Te174  1  0.93303471  0.39507140  0.26246694  1
  Te  Te175  1  0.93341776  0.41953332  0.57637414  1
  Te  Te176  1  0.90579780  0.40097812  0.88002770  1
  Te  Te177  1  0.92318235  0.76535337  0.24869979  1
  Te  Te178  1  0.91211607  0.75317260  0.58746890  1
  Te  Te179  1  0.91823925  0.74648070  0.90365593  1
