# generated using pymatgen
data_In2Te3
_symmetry_space_group_name_H-M   'P 1'
_cell_length_a   18.77969556
_cell_length_b   18.78606494
_cell_length_c   18.76851657
_cell_angle_alpha   90.01660817
_cell_angle_beta   90.00867635
_cell_angle_gamma   89.96652416
_symmetry_Int_Tables_number   1
_chemical_formula_structural   In2Te3
_chemical_formula_sum   'In72 Te108'
_cell_volume   6621.46698189
_cell_formula_units_Z   36
loop_
 _symmetry_equiv_pos_site_id
 _symmetry_equiv_pos_as_xyz
  1  'x, y, z'
loop_
 _atom_site_type_symbol
 _atom_site_label
 _atom_site_symmetry_multiplicity
 _atom_site_fract_x
 _atom_site_fract_y
 _atom_site_fract_z
 _atom_site_occupancy
  In  In0  1  0.32939438  0.02871518  0.33568293  1
  In  In1  1  -0.01814635  0.35415205  0.31878372  1
  In  In2  1  0.16408352  0.33294979  0.83523164  1
  In  In3  1  0.35032543  0.35531301  0.31298200  1
  In  In4  1  0.15876563  0.50748135  0.66749630  1
  In  In5  1  0.16108132  0.15597281  0.01960624  1
  In  In6  1  0.15259086  0.82619153  -0.00619832  1
  In  In7  1  0.82998039  0.34224473  0.49214153  1
  In  In8  1  0.67828829  0.31865482  0.32126467  1
  In  In9  1  0.52693282  0.18118809  0.69607898  1
  In  In10  1  -0.00017064  0.66858274  0.32972216  1
  In  In11  1  -0.02171757  0.17431695  0.13333599  1
  In  In12  1  0.49405782  0.83077421  -0.01172890  1
  In  In13  1  0.16240859  0.51070368  -0.01698331  1
  In  In14  1  0.80427650  0.47337011  -0.00393675  1
  In  In15  1  0.53232903  0.83084774  0.32980419  1
  In  In16  1  0.33062435  0.82961360  0.14682949  1
  In  In17  1  0.66231814  0.49366223  0.51239231  1
  In  In18  1  0.17379659  0.16452189  0.32644864  1
  In  In19  1  0.50818817  0.66293552  0.83394488  1
  In  In20  1  0.32645657  0.66111911  0.33327594  1
  In  In21  1  0.85784830  -0.00222492  0.83445064  1
  In  In22  1  -0.02247463  0.33539270  -0.01255575  1
  In  In23  1  -0.02014863  0.49543778  0.50027513  1
  In  In24  1  -0.01046096  -0.00668789  0.32361423  1
  In  In25  1  0.33270223  0.02376841  0.68223189  1
  In  In26  1  0.66473953  0.00117573  0.69325563  1
  In  In27  1  0.47685210  0.65347873  0.50853486  1
  In  In28  1  -0.01038357  0.51171332  0.16664869  1
  In  In29  1  0.68662988  0.36745839  0.70207182  1
  In  In30  1  0.15686542  0.81267060  0.67347056  1
  In  In31  1  -0.00730309  0.16905489  0.50683272  1
  In  In32  1  0.14609192  -0.04174613  0.51713932  1
  In  In33  1  -0.02494983  0.30793979  0.70120509  1
  In  In34  1  0.66633748  0.00436871  0.33570669  1
  In  In35  1  0.18536921  0.33559210  0.16873859  1
  In  In36  1  0.48834220  0.01195922  0.16244827  1
  In  In37  1  0.15962964  0.15454479  0.69846775  1
  In  In38  1  0.65348922  0.17213120  0.48697618  1
  In  In39  1  0.83225322  0.66039078  0.84349082  1
  In  In40  1  0.81637378  -0.00702940  0.51274357  1
  In  In41  1  0.33860914  0.52021518  0.49738055  1
  In  In42  1  0.36099816  0.33751287  0.69236600  1
  In  In43  1  0.51900746  0.31082322  0.15214995  1
  In  In44  1  0.33056003  0.83992266  0.53208890  1
  In  In45  1  0.33798161  0.49175266  0.14104179  1
  In  In46  1  0.14014305  0.82809619  0.33431943  1
  In  In47  1  0.68111635  0.84603513  0.51188420  1
  In  In48  1  0.35700455  0.01039131  -0.00974381  1
  In  In49  1  0.50549134  0.48931276  0.33407157  1
  In  In50  1  0.31965563  0.67931661  -0.00186156  1
  In  In51  1  0.83679029  0.84297920  0.00200431  1
  In  In52  1  0.15975075  0.34620887  0.49024357  1
  In  In53  1  0.82895251  0.00239276  0.14698057  1
  In  In54  1  0.33855921  0.49563213  0.81581955  1
  In  In55  1  0.50546233  0.84536709  0.67105300  1
  In  In56  1  -0.01027844  0.67659857  0.68441291  1
  In  In57  1  0.52819493  0.48101863  -0.00515125  1
  In  In58  1  0.32953469  0.66574483  0.65978695  1
  In  In59  1  0.66828506  0.65493842  0.00776109  1
  In  In60  1  0.66084516  0.02796233  -0.02249942  1
  In  In61  1  0.32806128  0.16024639  0.16235713  1
  In  In62  1  0.82300473  0.16594417  0.68400616  1
  In  In63  1  0.70256872  0.63466868  0.29961557  1
  In  In64  1  0.34984291  0.15549225  0.50914826  1
  In  In65  1  0.86072685  0.82118784  0.33434747  1
  In  In66  1  0.15165905  -0.01268871  0.84084767  1
  In  In67  1  0.68090168  0.16373974  0.13525652  1
  In  In68  1  0.66879337  0.81722821  0.15448289  1
  In  In69  1  0.01079717  0.67542562  -0.01069755  1
  In  In70  1  0.67214423  0.65538036  0.69143917  1
  In  In71  1  0.84324239  0.66839124  0.50175171  1
  Te  Te72  1  0.06140702  0.06436120  0.08011132  1
  Te  Te73  1  0.08652170  0.08068631  0.42032311  1
  Te  Te74  1  0.05152547  0.08226500  0.77187434  1
  Te  Te75  1  0.08535306  0.40960874  0.07855616  1
  Te  Te76  1  0.08153368  0.43793370  0.39833030  1
  Te  Te77  1  0.06885279  0.41916001  0.75502335  1
  Te  Te78  1  0.08484997  0.74433699  0.09749302  1
  Te  Te79  1  0.05852318  0.75834081  0.43418750  1
  Te  Te80  1  0.08683188  0.73827802  0.78014796  1
  Te  Te81  1  0.44135685  0.11902528  0.06332294  1
  Te  Te82  1  0.43862155  0.09323463  0.40893741  1
  Te  Te83  1  0.42043398  0.10296993  0.77669572  1
  Te  Te84  1  0.42289044  0.39094537  0.06251283  1
  Te  Te85  1  0.42428419  0.40957329  0.43584833  1
  Te  Te86  1  0.44939574  0.40063451  0.79139420  1
  Te  Te87  1  0.43336660  0.73371349  0.08799136  1
  Te  Te88  1  0.41582439  0.76386616  0.41856106  1
  Te  Te89  1  0.41342754  0.75294159  0.75233416  1
  Te  Te90  1  0.78180364  0.09811910  0.03704813  1
  Te  Te91  1  0.76316191  0.09452801  0.41224441  1
  Te  Te92  1  0.73943353  0.09237194  0.78784946  1
  Te  Te93  1  0.72233867  0.43202471  0.11370806  1
  Te  Te94  1  0.74853223  0.43234523  0.40163745  1
  Te  Te95  1  0.79417219  0.44095930  0.77297383  1
  Te  Te96  1  0.77547879  0.73243525  0.08845694  1
  Te  Te97  1  0.74025076  0.75014660  0.40706909  1
  Te  Te98  1  0.75110570  0.75645071  0.76187268  1
  Te  Te99  1  0.07890235  0.25052168  0.24258811  1
  Te  Te100  1  0.08462923  0.25895307  0.59285061  1
  Te  Te101  1  0.07824796  0.24024229  0.91962187  1
  Te  Te102  1  0.08981508  0.58682777  0.24336567  1
  Te  Te103  1  0.06998484  0.59015671  0.57676266  1
  Te  Te104  1  0.07180962  0.58038969  0.89068011  1
  Te  Te105  1  0.07589488  0.91481203  0.23429541  1
  Te  Te106  1  0.05442086  0.91794744  0.62963296  1
  Te  Te107  1  0.05413623  0.91997624  0.93096562  1
  Te  Te108  1  0.42472597  0.23928279  0.25187492  1
  Te  Te109  1  0.43629174  0.25107890  0.59028895  1
  Te  Te110  1  0.44530737  0.20148382  0.90101430  1
  Te  Te111  1  0.41675896  0.57576250  0.24459511  1
  Te  Te112  1  0.42911311  0.55673220  0.61600178  1
  Te  Te113  1  0.41496462  0.57928488  0.92714873  1
  Te  Te114  1  0.42108191  0.90821795  0.25187917  1
  Te  Te115  1  0.42400001  0.94564330  0.58606446  1
  Te  Te116  1  0.42352388  0.91826692  0.89310718  1
  Te  Te117  1  0.76465252  0.23649296  0.23389784  1
  Te  Te118  1  0.74360636  0.25449981  0.58527067  1
  Te  Te119  1  0.71862140  0.27227352  0.92253545  1
  Te  Te120  1  0.77345967  0.54788062  0.20212658  1
  Te  Te121  1  0.76058917  0.57729726  0.59314119  1
  Te  Te122  1  0.72453154  0.56390873  0.89972644  1
  Te  Te123  1  0.75156824  0.90860437  0.25202259  1
  Te  Te124  1  0.76314750  0.90404723  0.62584312  1
  Te  Te125  1  0.74510125  0.91903750  0.90838372  1
  Te  Te126  1  0.26621463  0.25999734  0.06444831  1
  Te  Te127  1  0.25877242  0.25793879  0.41312974  1
  Te  Te128  1  0.26466062  0.24075042  0.76577469  1
  Te  Te129  1  0.23429978  0.59276224  0.09023834  1
  Te  Te130  1  0.23332641  0.58984162  0.42293799  1
  Te  Te131  1  0.23829728  0.59740139  0.76218958  1
  Te  Te132  1  0.25207300  0.92797538  0.06586339  1
  Te  Te133  1  0.25746203  0.91820407  0.41429913  1
  Te  Te134  1  0.25029566  0.91464809  0.74567386  1
  Te  Te135  1  0.61204039  0.26121927  0.03882721  1
  Te  Te136  1  0.57209326  0.26792261  0.41049189  1
  Te  Te137  1  0.62313004  0.25685574  0.78568038  1
  Te  Te138  1  0.57544874  0.57946148  0.09444910  1
  Te  Te139  1  0.58455905  0.59377710  0.41535848  1
  Te  Te140  1  0.57493586  0.56045926  0.74950726  1
  Te  Te141  1  0.59119785  0.92851382  0.08140845  1
  Te  Te142  1  0.57794561  0.93083125  0.43667246  1
  Te  Te143  1  0.56952624  0.92429454  0.77867753  1
  Te  Te144  1  0.87869830  0.26615979  0.07427446  1
  Te  Te145  1  0.91155974  0.24736972  0.40357970  1
  Te  Te146  1  0.88956309  0.23649327  0.80338457  1
  Te  Te147  1  0.91496613  0.57090901  0.04803293  1
  Te  Te148  1  0.89851226  0.57261722  0.39703492  1
  Te  Te149  1  0.90172132  0.56976226  0.74499863  1
  Te  Te150  1  0.93614975  0.92691271  0.07572256  1
  Te  Te151  1  0.92437142  0.91341099  0.43722968  1
  Te  Te152  1  0.94117949  0.92358497  0.73832915  1
  Te  Te153  1  0.22823286  0.06288993  0.22592147  1
  Te  Te154  1  0.23090573  0.08389152  0.57531597  1
  Te  Te155  1  0.24572578  0.08513391  0.91385946  1
  Te  Te156  1  0.24262139  0.44500519  0.25775482  1
  Te  Te157  1  0.25389233  0.40977476  0.59478685  1
  Te  Te158  1  0.26186800  0.41283151  0.92076275  1
  Te  Te159  1  0.24245320  0.75268749  0.24446793  1
  Te  Te160  1  0.23014344  0.73187279  0.56344092  1
  Te  Te161  1  0.25100714  0.76429975  0.90070082  1
  Te  Te162  1  0.58831675  0.09533685  0.24226040  1
  Te  Te163  1  0.58493216  0.08347178  0.59163763  1
  Te  Te164  1  0.54835949  0.09447270  0.90110508  1
  Te  Te165  1  0.59333743  0.42006881  0.22973989  1
  Te  Te166  1  0.58678501  0.40271284  0.59918896  1
  Te  Te167  1  0.62475878  0.39015652  0.92129850  1
  Te  Te168  1  0.58636104  0.72119034  0.23976518  1
  Te  Te169  1  0.58055351  0.74509701  0.58079156  1
  Te  Te170  1  0.60239508  0.75540739  0.91155278  1
  Te  Te171  1  0.90500932  0.09180618  0.24551677  1
  Te  Te172  1  0.91442637  0.07683610  0.59847234  1
  Te  Te173  1  0.93829200  0.11203604  0.88875453  1
  Te  Te174  1  0.88621219  0.41842787  0.22476762  1
  Te  Te175  1  0.90852185  0.40930623  0.60366275  1
  Te  Te176  1  0.90019204  0.41933773  0.88917334  1
  Te  Te177  1  0.92109780  0.74363889  0.22637094  1
  Te  Te178  1  0.91058446  0.76273309  0.59159810  1
  Te  Te179  1  0.92444404  0.76868723  0.90167694  1
