# generated using pymatgen
data_In2Te3
_symmetry_space_group_name_H-M   'P 1'
_cell_length_a   18.91493327
_cell_length_b   18.92691170
_cell_length_c   18.91122122
_cell_angle_alpha   89.90109123
_cell_angle_beta   89.89100046
_cell_angle_gamma   90.06313248
_symmetry_Int_Tables_number   1
_chemical_formula_structural   In2Te3
_chemical_formula_sum   'In72 Te108'
_cell_volume   6770.21477630
_cell_formula_units_Z   36
loop_
 _symmetry_equiv_pos_site_id
 _symmetry_equiv_pos_as_xyz
  1  'x, y, z'
loop_
 _atom_site_type_symbol
 _atom_site_label
 _atom_site_symmetry_multiplicity
 _atom_site_fract_x
 _atom_site_fract_y
 _atom_site_fract_z
 _atom_site_occupancy
  In  In0  1  0.68246001  0.84029162  0.18417382  1
  In  In1  1  0.34185334  0.83931364  0.50613461  1
  In  In2  1  -0.00585912  0.83611954  0.81985363  1
  In  In3  1  0.49815985  0.82631597  0.66659090  1
  In  In4  1  0.32295674  0.01871987  0.32982942  1
  In  In5  1  0.66755469  0.16079478  0.15107456  1
  In  In6  1  0.33866200  0.32562770  0.34774654  1
  In  In7  1  -0.06971847  0.52060453  0.19698545  1
  In  In8  1  0.15568921  0.67054804  0.18186672  1
  In  In9  1  0.81619245  0.31998602  0.82269519  1
  In  In10  1  0.85805130  0.14527170  0.31977792  1
  In  In11  1  0.37442612  0.04548364  -0.04122408  1
  In  In12  1  0.83912682  0.48000757  0.68672303  1
  In  In13  1  0.14390210  0.50815796  0.00454004  1
  In  In14  1  0.17107562  0.02111606  0.50862605  1
  In  In15  1  0.85380064  0.83793208  0.33746929  1
  In  In16  1  0.17156179  0.31193606  0.15273184  1
  In  In17  1  0.48362267  -0.00303398  0.15733584  1
  In  In18  1  0.33957456  0.48172176  0.50785817  1
  In  In19  1  0.51395073  0.01503779  0.79480986  1
  In  In20  1  0.51149911  0.83391007  0.35937330  1
  In  In21  1  0.64667699  0.34446832  0.34315715  1
  In  In22  1  0.19245635  0.01689475  0.83003456  1
  In  In23  1  0.34649189  0.50289289  0.18106495  1
  In  In24  1  0.83410428  0.65849865  0.83674936  1
  In  In25  1  0.15837698  -0.00599155  0.15379757  1
  In  In26  1  0.32610614  0.69298507  -0.00341724  1
  In  In27  1  -0.00225215  -0.00525636  0.67365117  1
  In  In28  1  0.00680976  0.66648932  0.33558919  1
  In  In29  1  0.82428717  0.66876523  0.49036343  1
  In  In30  1  -0.01291893  0.50841164  0.85743446  1
  In  In31  1  0.16176646  0.15909610  0.31383606  1
  In  In32  1  0.66738320  0.32422545  0.00514230  1
  In  In33  1  0.34818274  0.49298789  0.81924690  1
  In  In34  1  0.84718584  0.83308242  0.66365984  1
  In  In35  1  0.68488103  0.53104938  0.30664393  1
  In  In36  1  0.17008525  0.48578913  0.37125869  1
  In  In37  1  0.18537488  0.17522956  0.67324914  1
  In  In38  1  0.52001730  0.05079711  0.55515931  1
  In  In39  1  0.35392640  0.18932059  0.51608652  1
  In  In40  1  0.33330123  0.64724805  0.65395068  1
  In  In41  1  0.50597367  0.33321808  0.79461068  1
  In  In42  1  -0.00869420  0.33309243  0.66619376  1
  In  In43  1  0.82466374  0.33207274  0.17636963  1
  In  In44  1  0.80698375  0.85328246  -0.03141474  1
  In  In45  1  0.46988842  0.65673181  0.19115810  1
  In  In46  1  0.68555183  0.82565256  0.51369978  1
  In  In47  1  0.17394871  0.84431668  0.69014555  1
  In  In48  1  0.80868638  0.16600954  -0.02252090  1
  In  In49  1  0.18444302  0.85265700  -0.01453529  1
  In  In50  1  0.67682209  -0.01465947  0.34266401  1
  In  In51  1  -0.00726078  0.03172272  -0.00267563  1
  In  In52  1  0.50265035  0.48869231  0.02482019  1
  In  In53  1  0.51089702  0.87216991  -0.01901445  1
  In  In54  1  0.17515061  0.48964521  0.64631814  1
  In  In55  1  0.78975781  0.14672039  0.69546800  1
  In  In56  1  0.83196595  -0.00067110  0.48804368  1
  In  In57  1  0.51053531  0.66295620  0.83244262  1
  In  In58  1  0.16089325  0.82431545  0.30353135  1
  In  In59  1  0.65719359  0.48562659  0.50782270  1
  In  In60  1  0.00526814  0.85236817  0.15296075  1
  In  In61  1  0.64126194  0.69184438  0.01246542  1
  In  In62  1  -0.01955776  0.32701934  -0.01982116  1
  In  In63  1  0.65627320  0.66756393  0.67755533  1
  In  In64  1  0.18085638  0.32568288  0.82373264  1
  In  In65  1  0.00048521  0.47810385  0.50176190  1
  In  In66  1  -0.00742350  0.18369474  0.49936133  1
  In  In67  1  0.50563844  0.18389563  0.33935790  1
  In  In68  1  0.80475840  0.52196522  0.06746086  1
  In  In69  1  0.31457928  0.81817690  0.16761406  1
  In  In70  1  0.35218124  0.31785693  -0.02725275  1
  In  In71  1  0.67481286  0.50369253  0.81777713  1
  Te  Te72  1  0.07561525  0.10090263  0.09726864  1
  Te  Te73  1  0.07195012  0.08515927  0.41521700  1
  Te  Te74  1  0.08526160  0.09170782  0.75133598  1
  Te  Te75  1  0.06804157  0.40244315  0.07965852  1
  Te  Te76  1  0.08293742  0.38244080  0.42557754  1
  Te  Te77  1  0.07085777  0.42029048  0.76184385  1
  Te  Te78  1  0.09803040  0.76135417  0.07468156  1
  Te  Te79  1  0.09600027  0.75238997  0.41253396  1
  Te  Te80  1  0.07623925  0.74647775  0.74008862  1
  Te  Te81  1  0.44180854  0.10937392  0.07299804  1
  Te  Te82  1  0.42463752  0.07888846  0.42459654  1
  Te  Te83  1  0.42381950  0.13033414  0.75633653  1
  Te  Te84  1  0.41012421  0.39413026  0.09624973  1
  Te  Te85  1  0.43162559  0.42466812  0.40391560  1
  Te  Te86  1  0.39194433  0.39428112  0.71884290  1
  Te  Te87  1  0.43395583  0.76650225  0.07603989  1
  Te  Te88  1  0.41815916  0.74348148  0.42627377  1
  Te  Te89  1  0.40792165  0.73995739  0.75327675  1
  Te  Te90  1  0.76289929  0.07383386  0.08363094  1
  Te  Te91  1  0.74242106  0.09822674  0.41787517  1
  Te  Te92  1  0.71666614  0.07181229  0.80394934  1
  Te  Te93  1  0.70847603  0.41388940  0.11975104  1
  Te  Te94  1  0.75497782  0.43048881  0.40391085  1
  Te  Te95  1  0.72000627  0.39130672  0.72567968  1
  Te  Te96  1  0.75843971  0.75888890  0.08083770  1
  Te  Te97  1  0.74110838  0.75142224  0.39307924  1
  Te  Te98  1  0.75092383  0.75625602  0.75568350  1
  Te  Te99  1  0.07009856  0.24119222  0.23446559  1
  Te  Te100  1  0.09532894  0.25898924  0.58418535  1
  Te  Te101  1  0.08032055  0.25308312  0.90264655  1
  Te  Te102  1  0.08332499  0.55906142  0.25234699  1
  Te  Te103  1  0.08369783  0.57608877  0.57292608  1
  Te  Te104  1  0.08432142  0.60395226  0.91197607  1
  Te  Te105  1  0.05914762  0.94100640  0.26595744  1
  Te  Te106  1  0.08964459  0.91716875  0.58309418  1
  Te  Te107  1  0.08038241  0.93055584  0.90734453  1
  Te  Te108  1  0.40921930  0.24331790  0.24791411  1
  Te  Te109  1  0.46816762  0.26719643  0.57131012  1
  Te  Te110  1  0.44915006  0.23670731  0.89489386  1
  Te  Te111  1  0.42827853  0.55626147  0.29291071  1
  Te  Te112  1  0.43348348  0.56331493  0.58949356  1
  Te  Te113  1  0.42186749  0.58251679  0.93057051  1
  Te  Te114  1  0.40805469  0.90560844  0.26094404  1
  Te  Te115  1  0.42211097  0.93471601  0.59132653  1
  Te  Te116  1  0.41279422  0.92374292  0.88038555  1
  Te  Te117  1  0.73367930  0.23978224  0.26258284  1
  Te  Te118  1  0.73257613  0.24735758  0.60587137  1
  Te  Te119  1  0.70306966  0.24031887  0.88640756  1
  Te  Te120  1  0.78933747  0.58433839  0.21030151  1
  Te  Te121  1  0.75713358  0.58289772  0.59996460  1
  Te  Te122  1  0.72934661  0.59001074  0.93076647  1
  Te  Te123  1  0.78384773  0.93929436  0.24426537  1
  Te  Te124  1  0.75014213  0.93210361  0.59916295  1
  Te  Te125  1  0.71721031  0.95867374  0.91331607  1
  Te  Te126  1  0.24764003  0.24001937  0.04629532  1
  Te  Te127  1  0.24410516  0.23374814  0.42263920  1
  Te  Te128  1  0.28348340  0.23100694  0.76994729  1
  Te  Te129  1  0.25665162  0.59127004  0.08777994  1
  Te  Te130  1  0.24538223  0.58119143  0.44977412  1
  Te  Te131  1  0.24081398  0.57618019  0.75437310  1
  Te  Te132  1  0.27885904  0.93126501  0.07406597  1
  Te  Te133  1  0.23919940  0.91927531  0.40872866  1
  Te  Te134  1  0.27499336  0.93987446  0.73786681  1
  Te  Te135  1  0.56855081  0.24243408  0.07912225  1
  Te  Te136  1  0.57911877  0.25804319  0.44847813  1
  Te  Te137  1  0.54696896  0.20793354  0.71548565  1
  Te  Te138  1  0.57900463  0.59064202  0.10668590  1
  Te  Te139  1  0.60443317  0.58704182  0.41642272  1
  Te  Te140  1  0.56140953  0.55998385  0.73225490  1
  Te  Te141  1  0.60142019  0.92852888  0.08948356  1
  Te  Te142  1  0.58458027  0.93175262  0.45266425  1
  Te  Te143  1  0.59869575  0.91765844  0.72255540  1
  Te  Te144  1  0.89813971  0.24353938  0.07819711  1
  Te  Te145  1  0.89804344  0.25217787  0.41105378  1
  Te  Te146  1  0.91278782  0.23303441  0.74835242  1
  Te  Te147  1  0.93724010  0.58378652  0.06397915  1
  Te  Te148  1  0.91456382  0.57522414  0.41393726  1
  Te  Te149  1  0.92742585  0.59100790  0.73856318  1
  Te  Te150  1  0.90779995  0.92369698  0.06260947  1
  Te  Te151  1  0.92917591  0.89336288  0.45169562  1
  Te  Te152  1  0.89323890  0.93640941  0.76726595  1
  Te  Te153  1  0.26048537  0.09353279  0.21674909  1
  Te  Te154  1  0.27769804  0.08259430  0.59525372  1
  Te  Te155  1  0.24070417  0.10525470  0.93936866  1
  Te  Te156  1  0.24334680  0.41162543  0.24899499  1
  Te  Te157  1  0.26862508  0.38640117  0.60008373  1
  Te  Te158  1  0.25012615  0.43017936  0.92609120  1
  Te  Te159  1  0.26881556  0.71857684  0.27154809  1
  Te  Te160  1  0.24754050  0.75381939  0.58786876  1
  Te  Te161  1  0.25300205  0.76289794  0.89194752  1
  Te  Te162  1  0.57811552  0.06776722  0.26026585  1
  Te  Te163  1  0.64656688  0.12310088  0.60942881  1
  Te  Te164  1  0.59787469  0.06122018  0.91016634  1
  Te  Te165  1  0.58871432  0.43302922  0.24109583  1
  Te  Te166  1  0.57973678  0.37713945  0.57081281  1
  Te  Te167  1  0.57726156  0.42131151  0.91042525  1
  Te  Te168  1  0.57845358  0.75199729  0.25008106  1
  Te  Te169  1  0.57553609  0.73635536  0.56971430  1
  Te  Te170  1  0.59252412  0.77449850  0.89536075  1
  Te  Te171  1  0.93195753  0.03566005  0.26012295  1
  Te  Te172  1  0.91112323  0.08969462  0.58986839  1
  Te  Te173  1  0.91429947  0.10314532  0.89613448  1
  Te  Te174  1  0.92494309  0.39142549  0.26500277  1
  Te  Te175  1  0.89082194  0.39592454  0.57242381  1
  Te  Te176  1  0.87460492  0.42083193  0.91929260  1
  Te  Te177  1  0.92713868  0.75184456  0.23614504  1
  Te  Te178  1  0.92100143  0.75748522  0.56093164  1
  Te  Te179  1  0.91470263  0.75417022  0.92168379  1
