# generated using pymatgen
data_In2Te3
_symmetry_space_group_name_H-M   'P 1'
_cell_length_a   18.86870072
_cell_length_b   18.87119783
_cell_length_c   18.87094543
_cell_angle_alpha   90.01908195
_cell_angle_beta   89.82384095
_cell_angle_gamma   90.11443975
_symmetry_Int_Tables_number   1
_chemical_formula_structural   In2Te3
_chemical_formula_sum   'In72 Te108'
_cell_volume   6719.42607202
_cell_formula_units_Z   36
loop_
 _symmetry_equiv_pos_site_id
 _symmetry_equiv_pos_as_xyz
  1  'x, y, z'
loop_
 _atom_site_type_symbol
 _atom_site_label
 _atom_site_symmetry_multiplicity
 _atom_site_fract_x
 _atom_site_fract_y
 _atom_site_fract_z
 _atom_site_occupancy
  In  In0  1  0.84673781  0.66866355  0.18244909  1
  In  In1  1  0.00751984  0.64024667  0.34922438  1
  In  In2  1  0.84154377  0.33455449  0.50637323  1
  In  In3  1  0.32369598  0.66219765  0.34376262  1
  In  In4  1  0.20139903  0.81274416  -0.02710535  1
  In  In5  1  0.48499110  0.16157703  0.65624462  1
  In  In6  1  0.48581493  0.84555944  0.68245723  1
  In  In7  1  0.00858648  0.83529076  0.82088468  1
  In  In8  1  0.31273000  0.00473851  0.34136243  1
  In  In9  1  0.01303357  0.00223038  0.33907950  1
  In  In10  1  0.66390997  0.67259725  -0.02394861  1
  In  In11  1  0.32534537  0.49239006  0.16714455  1
  In  In12  1  0.00353980  0.82904035  0.49898005  1
  In  In13  1  0.85551077  0.87618748  0.02958335  1
  In  In14  1  0.00666116  0.48581267  0.81336439  1
  In  In15  1  0.82984577  0.02119721  0.85759850  1
  In  In16  1  -0.01851744  0.03044762  0.00263769  1
  In  In17  1  0.00843994  0.64793261  -0.00400928  1
  In  In18  1  0.69065997  0.34716589  0.35824243  1
  In  In19  1  0.32983483  0.84453564  0.16357312  1
  In  In20  1  0.48228360  0.85620546  0.00086837  1
  In  In21  1  0.64515994  0.16685698  0.16227750  1
  In  In22  1  0.51838180  0.69567115  0.14658938  1
  In  In23  1  0.50410784  0.32262000  0.14195028  1
  In  In24  1  0.79706909  0.14388957  0.37238650  1
  In  In25  1  0.49857732  0.00113358  0.50215583  1
  In  In26  1  0.16339094  0.48389991  -0.00033689  1
  In  In27  1  0.85319423  0.65228364  0.84785062  1
  In  In28  1  0.85348231  0.49935199  0.00059725  1
  In  In29  1  0.30724339  0.16435174  0.17151705  1
  In  In30  1  -0.01087117  0.49620896  0.51552145  1
  In  In31  1  0.33075564  -0.00049628  -0.01439448  1
  In  In32  1  0.15335508  0.19112000  0.64468075  1
  In  In33  1  0.34288301  0.65060937  0.66817458  1
  In  In34  1  0.48981343  0.49793132  0.32611885  1
  In  In35  1  0.67120310  0.33909382  0.68056768  1
  In  In36  1  0.66251789  0.01444717  -0.00440623  1
  In  In37  1  0.83783142  0.18593575  -0.00536571  1
  In  In38  1  0.16295463  0.65367516  0.49781519  1
  In  In39  1  0.49385486  0.66089904  0.48967996  1
  In  In40  1  0.32461823  0.49598406  0.81806173  1
  In  In41  1  0.18893331  0.82074289  0.66699195  1
  In  In42  1  0.48904313  0.33313187  0.83817922  1
  In  In43  1  0.85039303  0.34056587  0.18522387  1
  In  In44  1  0.50332856  0.32946973  0.52276512  1
  In  In45  1  0.49758826  0.16286528  -0.01603465  1
  In  In46  1  0.69078719  0.81339570  0.19568724  1
  In  In47  1  0.34730616  -0.00414863  0.67917913  1
  In  In48  1  0.64900070  0.83756059  0.80826884  1
  In  In49  1  0.83484103  0.17029369  0.66857172  1
  In  In50  1  0.49180929  0.16588913  0.33157603  1
  In  In51  1  0.17142682  0.33385331  0.15937532  1
  In  In52  1  0.16176568  0.64401554  0.17230940  1
  In  In53  1  -0.00337103  0.68293164  0.68853464  1
  In  In54  1  0.29638275  0.31177075  0.37304740  1
  In  In55  1  0.51985073  -0.00121529  0.17671763  1
  In  In56  1  0.16094412  -0.00688360  0.50200282  1
  In  In57  1  -0.03334083  0.01086805  0.66900387  1
  In  In58  1  0.01151869  0.33483127  0.33887418  1
  In  In59  1  0.84739795  -0.02525890  0.17316212  1
  In  In60  1  0.69124487  0.49397015  0.16035999  1
  In  In61  1  0.16509380  0.02270838  0.83716257  1
  In  In62  1  0.01320311  0.14724711  0.16927649  1
  In  In63  1  0.51486305  0.52173451  0.66852940  1
  In  In64  1  0.29643387  0.35022097  0.63516837  1
  In  In65  1  0.80263636  0.82714963  0.65067246  1
  In  In66  1  0.13952782  0.30859158  0.84048373  1
  In  In67  1  0.48491070  0.49833164  -0.02941609  1
  In  In68  1  0.66201398  0.84545918  0.50969254  1
  In  In69  1  0.85421241  0.82608689  0.34373098  1
  In  In70  1  0.83531969  0.33440958  0.81550594  1
  In  In71  1  0.66782887  0.66611688  0.33471522  1
  Te  Te72  1  0.09874157  0.11705768  0.04785253  1
  Te  Te73  1  0.08547658  0.09829659  0.42801719  1
  Te  Te74  1  0.07645789  0.09426503  0.73684399  1
  Te  Te75  1  0.07045670  0.41599320  0.09015201  1
  Te  Te76  1  0.09461792  0.42008788  0.43505896  1
  Te  Te77  1  0.09890417  0.40232904  0.73392251  1
  Te  Te78  1  0.10292931  0.74321406  0.06709693  1
  Te  Te79  1  0.09500146  0.75475774  0.40533619  1
  Te  Te80  1  0.11296443  0.73718420  0.77153577  1
  Te  Te81  1  0.42225194  0.08111619  0.09642023  1
  Te  Te82  1  0.39941285  0.09495594  0.42782891  1
  Te  Te83  1  0.41496339  0.09262747  0.76670437  1
  Te  Te84  1  0.40524009  0.40954397  0.06660479  1
  Te  Te85  1  0.41760325  0.39870460  0.41445077  1
  Te  Te86  1  0.41694765  0.40639542  0.72273566  1
  Te  Te87  1  0.39995061  0.74685952  0.06864225  1
  Te  Te88  1  0.41483388  0.75537820  0.40966648  1
  Te  Te89  1  0.39556729  0.75506115  0.76490696  1
  Te  Te90  1  0.76172068  0.08092002  0.09040142  1
  Te  Te91  1  0.71912345  0.06824277  0.47107161  1
  Te  Te92  1  0.74859189  0.08093267  0.75280954  1
  Te  Te93  1  0.76235860  0.39705013  0.07033242  1
  Te  Te94  1  0.76099841  0.44227509  0.44394793  1
  Te  Te95  1  0.76137965  0.43869526  0.74095474  1
  Te  Te96  1  0.76037424  0.73974082  0.07855659  1
  Te  Te97  1  0.75379292  0.74808438  0.42836527  1
  Te  Te98  1  0.75381103  0.73451833  0.76381722  1
  Te  Te99  1  0.09706280  0.24022640  0.25629066  1
  Te  Te100  1  0.10726389  0.28259559  0.53517969  1
  Te  Te101  1  0.06398311  0.21737759  0.93058498  1
  Te  Te102  1  0.08993363  0.55394056  0.26340061  1
  Te  Te103  1  0.07967082  0.58499887  0.60373954  1
  Te  Te104  1  0.09718805  0.57740668  0.89738773  1
  Te  Te105  1  0.08718877  0.93487376  0.23345088  1
  Te  Te106  1  0.07156724  0.90502326  0.61340256  1
  Te  Te107  1  0.07083281  0.93112205  0.91952075  1
  Te  Te108  1  0.40972137  0.26182515  0.24670497  1
  Te  Te109  1  0.38818234  0.24355304  0.57202170  1
  Te  Te110  1  0.39861590  0.25250794  0.92371889  1
  Te  Te111  1  0.42410509  0.59464756  0.22824354  1
  Te  Te112  1  0.40911933  0.55952944  0.56473290  1
  Te  Te113  1  0.40370329  0.59601793  0.89612438  1
  Te  Te114  1  0.41850689  0.92214560  0.25846914  1
  Te  Te115  1  0.40137701  0.90432451  0.57074692  1
  Te  Te116  1  0.43482431  0.94526339  0.89432399  1
  Te  Te117  1  0.74380648  0.24755710  0.24965478  1
  Te  Te118  1  0.73853981  0.24886310  0.57873834  1
  Te  Te119  1  0.75122863  0.23369795  0.88722891  1
  Te  Te120  1  0.76664176  0.57094837  0.26709644  1
  Te  Te121  1  0.66541484  0.62646739  0.62512973  1
  Te  Te122  1  0.74721278  0.56241372  0.91174857  1
  Te  Te123  1  0.75131888  0.92228106  0.28080691  1
  Te  Te124  1  0.76119746  0.94457457  0.56802566  1
  Te  Te125  1  0.74383628  0.90183785  0.92318761  1
  Te  Te126  1  0.25699389  0.25493491  0.06776775  1
  Te  Te127  1  0.20656115  0.21330201  0.44076034  1
  Te  Te128  1  0.25013549  0.25284307  0.74399507  1
  Te  Te129  1  0.25618858  0.58405352  0.06794674  1
  Te  Te130  1  0.25353267  0.55920743  0.42437776  1
  Te  Te131  1  0.23613766  0.56370564  0.72207544  1
  Te  Te132  1  0.23391712  0.92213965  0.07465316  1
  Te  Te133  1  0.23637485  0.90257616  0.41602815  1
  Te  Te134  1  0.25109882  0.91616278  0.76771386  1
  Te  Te135  1  0.60402341  0.25599956  0.04777377  1
  Te  Te136  1  0.58410450  0.25482356  0.41635536  1
  Te  Te137  1  0.57572259  0.24368100  0.74986894  1
  Te  Te138  1  0.58948410  0.57682646  0.08104859  1
  Te  Te139  1  0.59068594  0.56472745  0.41772302  1
  Te  Te140  1  0.59165229  0.61411206  0.75228330  1
  Te  Te141  1  0.60435912  0.90199769  0.09521183  1
  Te  Te142  1  0.57585447  0.91286874  0.41234036  1
  Te  Te143  1  0.59887602  0.93657336  0.71274357  1
  Te  Te144  1  0.93294780  0.25418662  0.09175142  1
  Te  Te145  1  0.90862069  0.23928467  0.40761557  1
  Te  Te146  1  0.93438804  0.27143656  0.72142695  1
  Te  Te147  1  0.93602478  0.57141320  0.10579916  1
  Te  Te148  1  0.90574307  0.59685097  0.44653421  1
  Te  Te149  1  0.90482801  0.56828828  0.73257250  1
  Te  Te150  1  0.98319742  0.92196002  0.11915386  1
  Te  Te151  1  0.91497952  0.93356345  0.43372746  1
  Te  Te152  1  0.88875924  0.90532131  0.75955791  1
  Te  Te153  1  0.22075745  0.06941822  0.24449084  1
  Te  Te154  1  0.24394376  0.07479824  0.59919506  1
  Te  Te155  1  0.24979933  0.10633601  0.92447811  1
  Te  Te156  1  0.24600613  0.41334699  0.26821282  1
  Te  Te157  1  0.22614037  0.42139267  0.52439520  1
  Te  Te158  1  0.24820390  0.39942205  0.90718293  1
  Te  Te159  1  0.24412274  0.74934547  0.24695614  1
  Te  Te160  1  0.26798403  0.74090045  0.56714201  1
  Te  Te161  1  0.29623702  0.74214151  0.88691346  1
  Te  Te162  1  0.60314861  0.07581791  0.27760286  1
  Te  Te163  1  0.59069369  0.10035662  0.56746237  1
  Te  Te164  1  0.57511163  0.07213797  0.89481139  1
  Te  Te165  1  0.58821818  0.40792242  0.24179829  1
  Te  Te166  1  0.60039790  0.43020457  0.57943230  1
  Te  Te167  1  0.58801007  0.42459407  0.89880628  1
  Te  Te168  1  0.56833897  0.76271318  0.27258368  1
  Te  Te169  1  0.57006541  0.74673958  0.59467953  1
  Te  Te170  1  0.56229976  0.75845879  0.90802760  1
  Te  Te171  1  0.89914375  0.09224545  0.26066112  1
  Te  Te172  1  0.93093527  0.11199742  0.57037316  1
  Te  Te173  1  0.94049419  0.12588581  0.88627562  1
  Te  Te174  1  0.91824799  0.43099741  0.27813090  1
  Te  Te175  1  0.93829824  0.38736417  0.60795750  1
  Te  Te176  1  0.93421905  0.40289530  0.91761161  1
  Te  Te177  1  0.94872888  0.75397829  0.25029664  1
  Te  Te178  1  0.90703257  0.74187595  0.58009644  1
  Te  Te179  1  0.92239782  0.76007838  0.93240034  1
