# generated using pymatgen
data_In2Te3
_symmetry_space_group_name_H-M   'P 1'
_cell_length_a   18.75727197
_cell_length_b   18.76237071
_cell_length_c   18.76228902
_cell_angle_alpha   90.08105652
_cell_angle_beta   89.94839610
_cell_angle_gamma   89.96399237
_symmetry_Int_Tables_number   1
_chemical_formula_structural   In2Te3
_chemical_formula_sum   'In72 Te108'
_cell_volume   6603.01848087
_cell_formula_units_Z   36
loop_
 _symmetry_equiv_pos_site_id
 _symmetry_equiv_pos_as_xyz
  1  'x, y, z'
loop_
 _atom_site_type_symbol
 _atom_site_label
 _atom_site_symmetry_multiplicity
 _atom_site_fract_x
 _atom_site_fract_y
 _atom_site_fract_z
 _atom_site_occupancy
  In  In0  1  0.32883811  0.34890654  0.34724613  1
  In  In1  1  0.16527503  0.66552395  0.50476365  1
  In  In2  1  0.33339372  0.84617357  0.16568318  1
  In  In3  1  0.17063106  0.50839124  -0.01276114  1
  In  In4  1  0.66973745  0.81392084  0.50505288  1
  In  In5  1  0.33804548  0.32460972  0.66000572  1
  In  In6  1  0.31994082  -0.00699615  0.66111292  1
  In  In7  1  0.50727454  0.50515944  -0.02114922  1
  In  In8  1  0.83371876  0.50459580  0.00370290  1
  In  In9  1  0.32119561  0.66143292  0.34406715  1
  In  In10  1  0.13027957  -0.03591101  0.82723035  1
  In  In11  1  0.51321486  0.32997776  0.84265110  1
  In  In12  1  0.67463303  0.49178832  0.51009545  1
  In  In13  1  0.14187800  0.64123825  0.18555085  1
  In  In14  1  0.47956937  0.83972482  0.33473343  1
  In  In15  1  0.49570892  0.17639841  0.66412518  1
  In  In16  1  0.14656771  0.69114504  0.82065407  1
  In  In17  1  -0.00737974  0.67138158  -0.00848117  1
  In  In18  1  0.32458547  0.82480448  0.51224895  1
  In  In19  1  0.66317455  0.83022563  0.14553126  1
  In  In20  1  0.02904587  0.17689611  0.15677427  1
  In  In21  1  0.33112912  0.49933569  0.17810941  1
  In  In22  1  0.50022451  0.65051258  0.80677463  1
  In  In23  1  0.48071813  0.50371781  0.35112070  1
  In  In24  1  0.49235290  0.50835420  0.64190144  1
  In  In25  1  0.67216395  0.16087096  0.82946630  1
  In  In26  1  -0.01693060  0.33720786  -0.00549857  1
  In  In27  1  0.00001005  0.16741872  0.50795446  1
  In  In28  1  0.66871362  0.19764193  0.51402288  1
  In  In29  1  0.83372002  0.00232854  0.51922798  1
  In  In30  1  0.14748481  0.49885246  0.65782267  1
  In  In31  1  0.33845477  0.79963653  0.82312107  1
  In  In32  1  0.34173844  0.19004442  0.84009224  1
  In  In33  1  0.85936518  0.52936588  0.36557809  1
  In  In34  1  0.15654188  0.83298740  0.37036790  1
  In  In35  1  0.86262295  0.18422498  0.34212362  1
  In  In36  1  0.80882296  0.36416514  0.79989572  1
  In  In37  1  0.82042590  0.17330016  0.66304569  1
  In  In38  1  0.67126963  0.68005980  0.34023968  1
  In  In39  1  0.17998979  0.01285603  0.16170459  1
  In  In40  1  0.16905371  0.34225705  0.49116808  1
  In  In41  1  0.64638109  0.32767370  0.35440760  1
  In  In42  1  0.00790573  -0.00585423  0.34631991  1
  In  In43  1  0.18223723  -0.00303129  0.49411666  1
  In  In44  1  0.34029141  0.16583030  0.17236251  1
  In  In45  1  0.65928101  0.01343494  0.32203882  1
  In  In46  1  0.67785842  0.66920440  0.00024636  1
  In  In47  1  -0.01334161  0.35522081  0.65270606  1
  In  In48  1  0.67267975  0.65199041  0.66756870  1
  In  In49  1  0.85441664  0.14780843  -0.02159854  1
  In  In50  1  0.16006884  0.34559320  0.17127688  1
  In  In51  1  0.66138145  -0.00355492  0.68051956  1
  In  In52  1  0.50726759  0.33435541  0.15548642  1
  In  In53  1  0.64144056  0.16138441  0.16361688  1
  In  In54  1  0.00958818  0.14830306  0.83116918  1
  In  In55  1  0.67540165  0.50885643  0.15063691  1
  In  In56  1  0.86987543  0.65022828  0.81322226  1
  In  In57  1  0.82444195  -0.01304588  0.15897736  1
  In  In58  1  0.18215780  0.15793853  0.00983138  1
  In  In59  1  0.00154961  0.81408869  0.52950540  1
  In  In60  1  0.31525831  0.51612449  0.82856243  1
  In  In61  1  -0.00857532  0.81202949  0.16535600  1
  In  In62  1  0.46941032  0.02501971  0.47361981  1
  In  In63  1  0.84945127  0.79082521  0.32780562  1
  In  In64  1  0.49435862  0.84069076  0.01578615  1
  In  In65  1  0.82514421  0.36203625  0.19255374  1
  In  In66  1  0.82089040  0.82369785  -0.01377576  1
  In  In67  1  0.33468025  0.01027010  0.00761926  1
  In  In68  1  0.52814760  -0.00570665  0.83471091  1
  In  In69  1  0.00514427  0.33975437  0.34794719  1
  In  In70  1  0.18499177  0.33321858  0.81763660  1
  In  In71  1  0.67052293  0.84149950  0.83223541  1
  Te  Te72  1  0.07218577  0.06486213  0.06360036  1
  Te  Te73  1  0.09607150  0.09757449  0.41157947  1
  Te  Te74  1  0.09855851  0.07647699  0.73787417  1
  Te  Te75  1  0.07383271  0.42946245  0.07731891  1
  Te  Te76  1  0.06989230  0.44179742  0.43709514  1
  Te  Te77  1  0.07305439  0.41962793  0.76543258  1
  Te  Te78  1  0.09634145  0.74322972  0.07775090  1
  Te  Te79  1  0.05403550  0.73089679  0.40781810  1
  Te  Te80  1  0.04597807  0.76005232  0.73153376  1
  Te  Te81  1  0.43188233  0.09033509  0.08274551  1
  Te  Te82  1  0.36120349  0.08848350  0.39699346  1
  Te  Te83  1  0.42009604  0.07873459  0.75478873  1
  Te  Te84  1  0.41486157  0.42467403  0.07451684  1
  Te  Te85  1  0.41485935  0.41730315  0.44919430  1
  Te  Te86  1  0.41352018  0.42075189  0.75612230  1
  Te  Te87  1  0.41118886  0.74550211  0.09001720  1
  Te  Te88  1  0.42155561  0.73698823  0.43176061  1
  Te  Te89  1  0.41118120  0.72598556  0.71091962  1
  Te  Te90  1  0.75037695  0.08890334  0.07605235  1
  Te  Te91  1  0.75847788  0.09236289  0.42063450  1
  Te  Te92  1  0.77061028  0.06449909  0.76090483  1
  Te  Te93  1  0.74404165  0.39870511  0.06908165  1
  Te  Te94  1  0.75998581  0.41740435  0.40506869  1
  Te  Te95  1  0.71105127  0.43713911  0.71792268  1
  Te  Te96  1  0.77301124  0.73441475  0.10094872  1
  Te  Te97  1  0.77851125  0.72326024  0.44468642  1
  Te  Te98  1  0.75900119  0.74437063  0.75597272  1
  Te  Te99  1  0.10125051  0.24444283  0.27074152  1
  Te  Te100  1  0.08880390  0.25850084  0.59402838  1
  Te  Te101  1  0.09179297  0.25392609  0.92379615  1
  Te  Te102  1  0.05406740  0.55949646  0.26987983  1
  Te  Te103  1  0.05437874  0.59756445  0.58937668  1
  Te  Te104  1  0.07100119  0.57953772  0.89668506  1
  Te  Te105  1  0.08849131  0.91083788  0.24638417  1
  Te  Te106  1  0.08610242  0.92615782  0.58625114  1
  Te  Te107  1  0.05452056  0.87526688  0.91489885  1
  Te  Te108  1  0.42227362  0.26302838  0.25899178  1
  Te  Te109  1  0.41519153  0.24455138  0.56119169  1
  Te  Te110  1  0.43461752  0.24624724  0.93838482  1
  Te  Te111  1  0.42403100  0.59919992  0.24694670  1
  Te  Te112  1  0.41459868  0.62107340  0.59241813  1
  Te  Te113  1  0.40493091  0.60214098  0.91744533  1
  Te  Te114  1  0.42424418  0.93728533  0.23912334  1
  Te  Te115  1  0.42666082  0.92056609  0.57740700  1
  Te  Te116  1  0.40979442  0.91418003  0.90197485  1
  Te  Te117  1  0.74806549  0.24480430  0.25692828  1
  Te  Te118  1  0.75850816  0.28662191  0.59033097  1
  Te  Te119  1  0.77061807  0.25125611  0.90450738  1
  Te  Te120  1  0.75517396  0.57994159  0.25945171  1
  Te  Te121  1  0.77678176  0.57469741  0.58601630  1
  Te  Te122  1  0.75699359  0.58697879  0.90006741  1
  Te  Te123  1  0.75734231  0.89993492  0.26766740  1
  Te  Te124  1  0.75334266  0.90216818  0.60074998  1
  Te  Te125  1  0.73794552  0.93135356  0.92714697  1
  Te  Te126  1  0.25889347  0.26497386  0.08616234  1
  Te  Te127  1  0.26035633  0.24240763  0.42723599  1
  Te  Te128  1  0.24287366  0.22517093  0.72825096  1
  Te  Te129  1  0.25041673  0.59220563  0.08674716  1
  Te  Te130  1  0.24592686  0.56723072  0.42875833  1
  Te  Te131  1  0.23834881  0.59953555  0.72986657  1
  Te  Te132  1  0.23525227  0.90933993  0.06348110  1
  Te  Te133  1  0.27692588  0.91942825  0.39972795  1
  Te  Te134  1  0.24233448  0.89343890  0.74626665  1
  Te  Te135  1  0.59751956  0.26087860  0.06416820  1
  Te  Te136  1  0.55891276  0.22966727  0.42075770  1
  Te  Te137  1  0.59991759  0.25922866  0.73695885  1
  Te  Te138  1  0.57204903  0.59889231  0.08494214  1
  Te  Te139  1  0.58636137  0.58649394  0.42581667  1
  Te  Te140  1  0.60179033  0.54376485  0.75684912  1
  Te  Te141  1  0.58528067  0.93647099  0.08147934  1
  Te  Te142  1  0.58917795  0.91746271  0.42262716  1
  Te  Te143  1  0.56587797  0.88825927  0.73060804  1
  Te  Te144  1  0.90909642  0.25226455  0.10036290  1
  Te  Te145  1  0.90875697  0.27753576  0.45239892  1
  Te  Te146  1  0.91905171  0.25316658  0.75549723  1
  Te  Te147  1  0.92017266  0.58675043  0.08982877  1
  Te  Te148  1  0.96429969  0.57993545  0.45898102  1
  Te  Te149  1  0.92342880  0.55578865  0.71025324  1
  Te  Te150  1  0.92089951  0.90951403  0.07129710  1
  Te  Te151  1  0.91138631  0.90669840  0.42509709  1
  Te  Te152  1  0.96117043  0.88429549  0.68897305  1
  Te  Te153  1  0.25970774  0.08213470  0.26889366  1
  Te  Te154  1  0.26136994  0.09539699  0.57215116  1
  Te  Te155  1  0.24695010  0.07567353  0.89852943  1
  Te  Te156  1  0.22806748  0.43801232  0.27219564  1
  Te  Te157  1  0.26012471  0.43018968  0.58115752  1
  Te  Te158  1  0.26562531  0.40528971  0.92441321  1
  Te  Te159  1  0.23489954  0.75311480  0.25687748  1
  Te  Te160  1  0.21937599  0.76708005  0.59831543  1
  Te  Te161  1  0.24467769  0.74030962  0.91998749  1
  Te  Te162  1  0.55125183  0.08995194  0.25724657  1
  Te  Te163  1  0.58574845  0.07661917  0.57513401  1
  Te  Te164  1  0.57536908  0.10076340  0.92442702  1
  Te  Te165  1  0.58746301  0.43073304  0.25380644  1
  Te  Te166  1  0.57432111  0.40397493  0.57653439  1
  Te  Te167  1  0.60809025  0.41714177  0.91721686  1
  Te  Te168  1  0.57658756  0.75600450  0.24710782  1
  Te  Te169  1  0.57638380  0.72992167  0.58501138  1
  Te  Te170  1  0.57685625  0.74482187  0.91088216  1
  Te  Te171  1  0.92256044  0.07796953  0.24706492  1
  Te  Te172  1  0.93048252  0.07769692  0.60960756  1
  Te  Te173  1  0.92592384  0.04591918  0.89845169  1
  Te  Te174  1  0.94151127  0.44181330  0.24944407  1
  Te  Te175  1  0.89223257  0.45534495  0.59556888  1
  Te  Te176  1  0.91224928  0.42903761  0.89606059  1
  Te  Te177  1  0.93504926  0.69918278  0.24615945  1
  Te  Te178  1  0.91389580  0.75044680  0.63315033  1
  Te  Te179  1  0.93235021  0.77868780  0.88787412  1
