# generated using pymatgen
data_In2Te3
_symmetry_space_group_name_H-M   'P 1'
_cell_length_a   18.75542882
_cell_length_b   18.74994886
_cell_length_c   18.75982590
_cell_angle_alpha   90.03330727
_cell_angle_beta   90.09901660
_cell_angle_gamma   90.00825091
_symmetry_Int_Tables_number   1
_chemical_formula_structural   In2Te3
_chemical_formula_sum   'In72 Te108'
_cell_volume   6597.13183395
_cell_formula_units_Z   36
loop_
 _symmetry_equiv_pos_site_id
 _symmetry_equiv_pos_as_xyz
  1  'x, y, z'
loop_
 _atom_site_type_symbol
 _atom_site_label
 _atom_site_symmetry_multiplicity
 _atom_site_fract_x
 _atom_site_fract_y
 _atom_site_fract_z
 _atom_site_occupancy
  In  In0  1  0.02794456  0.36973019  0.33578011  1
  In  In1  1  0.50474609  0.66173862  0.83496231  1
  In  In2  1  0.16241991  -0.01063043  0.17191490  1
  In  In3  1  0.84810999  0.34331897  0.16169087  1
  In  In4  1  -0.01528046  0.81127955  0.83473516  1
  In  In5  1  0.01045081  0.80408873  0.16922763  1
  In  In6  1  0.17269135  0.16619811  0.00209418  1
  In  In7  1  0.79781920  0.85323434  0.31054121  1
  In  In8  1  0.49003591  0.15684311  0.66152951  1
  In  In9  1  -0.01462498  0.00425627  -0.00078335  1
  In  In10  1  0.18605329  0.66701604  0.48630494  1
  In  In11  1  -0.01231968  0.31933857  0.64875838  1
  In  In12  1  0.16979849  0.18802254  0.31894619  1
  In  In13  1  0.49260366  0.65887873  0.49293716  1
  In  In14  1  0.34414074  0.81373215  0.51223713  1
  In  In15  1  0.01753444  0.66507818  0.65058139  1
  In  In16  1  0.52541000  -0.00127245  0.15154298  1
  In  In17  1  0.51295768  0.31476324  0.17659747  1
  In  In18  1  0.84481844  0.64333804  0.14420421  1
  In  In19  1  0.81384143  0.18676023  0.66815828  1
  In  In20  1  0.18715030  0.51392224  0.66392283  1
  In  In21  1  0.16813315  0.78768108  0.33369286  1
  In  In22  1  0.01802775  0.80540088  0.48966423  1
  In  In23  1  0.81857449  0.83615438  -0.00150633  1
  In  In24  1  0.50885619  0.49956446  -0.01883520  1
  In  In25  1  0.49643230  -0.01194980  0.49008218  1
  In  In26  1  0.32106702  0.81208056  0.17308583  1
  In  In27  1  0.81322834  0.50878212  0.66272225  1
  In  In28  1  -0.04521168  0.00296821  0.30861921  1
  In  In29  1  0.82511307  0.15477559  0.32230439  1
  In  In30  1  0.66681485  0.66276555  -0.00719679  1
  In  In31  1  0.63963566  0.64977247  0.65596341  1
  In  In32  1  0.50471741  0.16481264  0.01439637  1
  In  In33  1  0.34884975  0.84105474  0.83294597  1
  In  In34  1  -0.01213416  0.48403048  0.85001858  1
  In  In35  1  0.68867617  0.19313428  0.86373062  1
  In  In36  1  0.51153597  -0.00427020  0.85234946  1
  In  In37  1  0.50567922  0.81759206  0.34492079  1
  In  In38  1  0.15830422  0.00930004  0.50608533  1
  In  In39  1  0.67976424  0.47923393  0.17918778  1
  In  In40  1  0.33809614  -0.00248119  0.34968277  1
  In  In41  1  0.18228140  0.49638327  -0.00310552  1
  In  In42  1  0.15244544  0.33934453  0.15335867  1
  In  In43  1  0.15884313  0.15948261  0.63646179  1
  In  In44  1  0.49105257  0.67399506  0.18430842  1
  In  In45  1  0.63561504  0.35993484  0.63339883  1
  In  In46  1  0.17493736  0.35386285  0.83756683  1
  In  In47  1  0.82073589  0.33668164  0.50644970  1
  In  In48  1  -0.00594588  -0.02610524  0.67122198  1
  In  In49  1  0.33230809  0.16240384  0.83399115  1
  In  In50  1  0.33665970  0.17269896  0.49421949  1
  In  In51  1  0.83802177  0.51743346  0.34788817  1
  In  In52  1  -0.02981779  0.15224966  0.84838924  1
  In  In53  1  0.30977451  0.34539415  -0.00154681  1
  In  In54  1  0.81452285  0.01070915  0.48358777  1
  In  In55  1  0.65421350  0.00224895  0.68916643  1
  In  In56  1  0.66799648  0.82646660  0.49322519  1
  In  In57  1  0.17824789  0.65725693  0.82538480  1
  In  In58  1  0.36105704  0.34179568  0.67496949  1
  In  In59  1  0.63386713  0.32836141  0.35181924  1
  In  In60  1  0.15309369  0.80752274  0.02033872  1
  In  In61  1  0.86681767  0.83681414  0.67201122  1
  In  In62  1  -0.00623372  0.35182876  0.00724219  1
  In  In63  1  0.35342073  0.35667503  0.32993713  1
  In  In64  1  0.83131140  0.67156980  0.85074068  1
  In  In65  1  0.67154716  0.15989792  0.15881619  1
  In  In66  1  -0.00619575  0.17410544  0.49297551  1
  In  In67  1  0.34120037  0.51221562  0.50362104  1
  In  In68  1  0.17765221  -0.00429735  0.83210350  1
  In  In69  1  0.66512483  0.82044990  0.84276338  1
  In  In70  1  0.33840599  0.50715035  0.17498581  1
  In  In71  1  0.50732198  0.35186350  0.81897085  1
  Te  Te72  1  0.07741849  0.08772883  0.09130867  1
  Te  Te73  1  0.07598922  0.08519554  0.39927525  1
  Te  Te74  1  0.07805442  0.09151941  0.74877635  1
  Te  Te75  1  0.06450635  0.45898195  0.09720099  1
  Te  Te76  1  0.08827388  0.46415589  0.43110501  1
  Te  Te77  1  0.07751410  0.42095713  0.73808964  1
  Te  Te78  1  0.08813981  0.69455275  0.09967713  1
  Te  Te79  1  0.04153416  0.69419447  0.38047200  1
  Te  Te80  1  0.09375959  0.75846425  0.74395166  1
  Te  Te81  1  0.41492730  0.07323162  0.08600086  1
  Te  Te82  1  0.43769019  0.10174256  0.40270351  1
  Te  Te83  1  0.41281159  0.06239234  0.75251131  1
  Te  Te84  1  0.42192161  0.40605052  0.08446878  1
  Te  Te85  1  0.44305391  0.42379506  0.43277325  1
  Te  Te86  1  0.44653700  0.45289124  0.72658939  1
  Te  Te87  1  0.42468856  0.75871719  0.08212318  1
  Te  Te88  1  0.39326423  0.72792781  0.39720109  1
  Te  Te89  1  0.42211135  0.74580085  0.74440170  1
  Te  Te90  1  0.76448343  0.05593554  0.10563477  1
  Te  Te91  1  0.72013669  0.08970005  0.40306362  1
  Te  Te92  1  0.75436056  0.08669984  0.76619703  1
  Te  Te93  1  0.75875926  0.42073617  0.06934588  1
  Te  Te94  1  0.73595262  0.42649159  0.41796222  1
  Te  Te95  1  0.73644938  0.40447708  0.73255838  1
  Te  Te96  1  0.73900034  0.75024967  0.09648004  1
  Te  Te97  1  0.75556835  0.74797537  0.40476261  1
  Te  Te98  1  0.75602769  0.74612369  0.73943307  1
  Te  Te99  1  0.05779149  0.25400034  0.23946012  1
  Te  Te100  1  0.09617758  0.27127676  0.55222654  1
  Te  Te101  1  0.08450533  0.25388679  0.91196578  1
  Te  Te102  1  0.10013967  0.63520055  0.24524208  1
  Te  Te103  1  0.08459616  0.56230898  0.55904594  1
  Te  Te104  1  0.08169486  0.58356199  0.91746141  1
  Te  Te105  1  0.07818003  0.90495172  0.26824244  1
  Te  Te106  1  0.09529559  0.89621183  0.58847197  1
  Te  Te107  1  0.08186204  0.91043528  0.91972189  1
  Te  Te108  1  0.40544391  0.24463953  0.24905714  1
  Te  Te109  1  0.44426580  0.26798803  0.56304983  1
  Te  Te110  1  0.41720770  0.25947211  0.91575954  1
  Te  Te111  1  0.42500123  0.57551738  0.27455802  1
  Te  Te112  1  0.41681167  0.59282619  0.60481019  1
  Te  Te113  1  0.40870572  0.59395455  0.92892586  1
  Te  Te114  1  0.41565313  0.90783962  0.25303032  1
  Te  Te115  1  0.41585176  0.91665272  0.58982838  1
  Te  Te116  1  0.42308448  0.91607896  0.93933764  1
  Te  Te117  1  0.74204678  0.27117507  0.25456836  1
  Te  Te118  1  0.71719762  0.24283890  0.56581275  1
  Te  Te119  1  0.78124839  0.27934563  0.93849647  1
  Te  Te120  1  0.74522616  0.59469969  0.25379431  1
  Te  Te121  1  0.74000538  0.59188204  0.56091649  1
  Te  Te122  1  0.75221065  0.56773899  0.91819074  1
  Te  Te123  1  0.73190159  0.95041005  0.21888826  1
  Te  Te124  1  0.75536032  0.92055789  0.59464572  1
  Te  Te125  1  0.73799183  0.92712889  0.91460512  1
  Te  Te126  1  0.26011652  0.24324379  0.10127827  1
  Te  Te127  1  0.25078384  0.27140076  0.41522408  1
  Te  Te128  1  0.24517435  0.24776528  0.74100485  1
  Te  Te129  1  0.27451791  0.58826498  0.06782689  1
  Te  Te130  1  0.23950464  0.55753805  0.40135561  1
  Te  Te131  1  0.28327444  0.60009485  0.73607395  1
  Te  Te132  1  0.25154108  0.91230046  0.07704994  1
  Te  Te133  1  0.23750579  0.90600608  0.41898802  1
  Te  Te134  1  0.25344931  0.91165989  0.74004732  1
  Te  Te135  1  0.60688506  0.26597125  0.06760692  1
  Te  Te136  1  0.54374361  0.25485694  0.44065788  1
  Te  Te137  1  0.58609300  0.23757091  0.74965485  1
  Te  Te138  1  0.58598018  0.57475431  0.09264436  1
  Te  Te139  1  0.60800991  0.57454251  0.45175138  1
  Te  Te140  1  0.59612502  0.56336196  0.76722573  1
  Te  Te141  1  0.63027260  0.90430511  0.10942839  1
  Te  Te142  1  0.60094591  0.92614176  0.39725536  1
  Te  Te143  1  0.56740589  0.89463033  0.74897780  1
  Te  Te144  1  0.92033884  0.24291556  0.07735136  1
  Te  Te145  1  0.91132000  0.26546308  0.40339188  1
  Te  Te146  1  0.90572303  0.26390003  0.76410766  1
  Te  Te147  1  0.93711516  0.55030474  0.07773759  1
  Te  Te148  1  0.93430066  0.59102144  0.43134891  1
  Te  Te149  1  0.92592315  0.59006739  0.74946439  1
  Te  Te150  1  0.91996683  0.90411536  0.09327966  1
  Te  Te151  1  0.91902088  0.91260534  0.42922259  1
  Te  Te152  1  0.90292681  0.93198096  0.78756561  1
  Te  Te153  1  0.25634745  0.08235165  0.25026845  1
  Te  Te154  1  0.27339151  0.06987856  0.58841297  1
  Te  Te155  1  0.26718175  0.06772918  0.93422921  1
  Te  Te156  1  0.23375191  0.42315841  0.25078097  1
  Te  Te157  1  0.25702641  0.40537491  0.58307188  1
  Te  Te158  1  0.28392981  0.44580589  0.88558395  1
  Te  Te159  1  0.24544733  0.69735280  0.23958381  1
  Te  Te160  1  0.24758374  0.74050660  0.59806178  1
  Te  Te161  1  0.25246734  0.74936243  0.92174007  1
  Te  Te162  1  0.57357865  0.09849962  0.25089277  1
  Te  Te163  1  0.58949423  0.07893148  0.57532221  1
  Te  Te164  1  0.60697126  0.08234837  0.93575980  1
  Te  Te165  1  0.56185073  0.43245921  0.26357036  1
  Te  Te166  1  0.56219347  0.45773044  0.54552444  1
  Te  Te167  1  0.60351645  0.40620689  0.91674849  1
  Te  Te168  1  0.59983084  0.73741937  0.26473145  1
  Te  Te169  1  0.56499938  0.76278088  0.58394079  1
  Te  Te170  1  0.56525902  0.76334349  0.94145921  1
  Te  Te171  1  0.89701298  0.09422218  0.20483714  1
  Te  Te172  1  0.91632654  0.08782870  0.59214249  1
  Te  Te173  1  0.87865305  0.09689892  0.95003329  1
  Te  Te174  1  0.92804043  0.44412928  0.24733726  1
  Te  Te175  1  0.91680049  0.43188895  0.57520988  1
  Te  Te176  1  0.88061122  0.40144635  0.91619129  1
  Te  Te177  1  0.89309026  0.74957309  0.24991582  1
  Te  Te178  1  0.90664191  0.73232410  0.56824056  1
  Te  Te179  1  0.92756924  0.73463143  0.95164944  1
