# generated using pymatgen
data_In2Te3
_symmetry_space_group_name_H-M   'P 1'
_cell_length_a   18.97351248
_cell_length_b   18.95646615
_cell_length_c   18.96519192
_cell_angle_alpha   89.95057929
_cell_angle_beta   90.09925009
_cell_angle_gamma   89.89956521
_symmetry_Int_Tables_number   1
_chemical_formula_structural   In2Te3
_chemical_formula_sum   'In72 Te108'
_cell_volume   6821.20147976
_cell_formula_units_Z   36
loop_
 _symmetry_equiv_pos_site_id
 _symmetry_equiv_pos_as_xyz
  1  'x, y, z'
loop_
 _atom_site_type_symbol
 _atom_site_label
 _atom_site_symmetry_multiplicity
 _atom_site_fract_x
 _atom_site_fract_y
 _atom_site_fract_z
 _atom_site_occupancy
  In  In0  1  0.83045810  0.84812344  0.01288952  1
  In  In1  1  0.83686356  0.14822122  0.01055081  1
  In  In2  1  0.66816343  0.67026783  0.66217748  1
  In  In3  1  0.17958667  0.35633678  0.79564736  1
  In  In4  1  0.19047279  0.67148657  0.81101234  1
  In  In5  1  0.03200255  0.69230877  0.03051067  1
  In  In6  1  0.17500152  0.01263034  0.82348453  1
  In  In7  1  0.48212608  0.34135146  0.49074406  1
  In  In8  1  0.49838734  0.15859821  0.68038820  1
  In  In9  1  0.20135639  0.87413823  0.01865897  1
  In  In10  1  0.49343513  0.49985365  0.33238355  1
  In  In11  1  0.04201061  0.47438597  0.82379954  1
  In  In12  1  0.85565776  0.15295316  0.32398199  1
  In  In13  1  -0.01281666  0.85334364  0.81191415  1
  In  In14  1  0.16709767  0.16805404  0.33078343  1
  In  In15  1  0.80782559  0.17330318  0.66059752  1
  In  In16  1  0.64268629  0.17418740  0.52260576  1
  In  In17  1  0.34445213  0.32567040  0.65727157  1
  In  In18  1  0.68215220  0.31348156  0.32654793  1
  In  In19  1  0.30874475  0.66989673  0.32693246  1
  In  In20  1  0.47406336  0.31721612  0.19327390  1
  In  In21  1  0.68116471  0.84430362  0.46940416  1
  In  In22  1  0.65050072  0.17403889  0.81776543  1
  In  In23  1  0.17967539  0.02252703  0.51363696  1
  In  In24  1  0.84085939  0.65956406  0.84847777  1
  In  In25  1  0.16713402  0.83604274  0.64697049  1
  In  In26  1  -0.00893899  -0.00209528  0.00525861  1
  In  In27  1  0.01780208  0.63537927  0.64019753  1
  In  In28  1  0.47998870  0.85570817  0.33588528  1
  In  In29  1  0.66091742  0.47353053  0.47269000  1
  In  In30  1  0.67284822  0.64667913  0.32535054  1
  In  In31  1  0.47405666  0.85973212  0.66415448  1
  In  In32  1  0.16141311  0.16215351  0.01950206  1
  In  In33  1  0.03387647  -0.01180848  0.32541678  1
  In  In34  1  0.03483360  0.68935192  0.33306371  1
  In  In35  1  0.19513743  0.36087399  0.19140963  1
  In  In36  1  -0.01177423  0.30846267  -0.01748755  1
  In  In37  1  0.31810679  -0.01305080  0.32542158  1
  In  In38  1  0.47741572  0.84266621  0.00869665  1
  In  In39  1  0.82062325  0.31406951  0.84515297  1
  In  In40  1  0.02440884  0.16490633  0.81296751  1
  In  In41  1  0.82623150  0.66815800  0.16119735  1
  In  In42  1  0.48509996  0.49220933  0.65987166  1
  In  In43  1  0.81543208  0.48837551  0.00750655  1
  In  In44  1  0.35087884  0.81778842  0.83808449  1
  In  In45  1  0.87051648  0.63385456  0.52022585  1
  In  In46  1  0.48325043  0.66999598  0.54082569  1
  In  In47  1  0.47302123  0.14080173  0.01888852  1
  In  In48  1  0.16364502  0.50371615  0.64499452  1
  In  In49  1  -0.00170261  0.48024850  0.16643064  1
  In  In50  1  0.65295610  0.34712185  0.03299889  1
  In  In51  1  0.84834048  0.82061199  0.34341441  1
  In  In52  1  0.49927645  0.50925992  0.01792230  1
  In  In53  1  0.85800574  0.47231842  0.65823463  1
  In  In54  1  0.51575014  0.68087186  0.15681319  1
  In  In55  1  0.64824457  0.00873263  0.32533465  1
  In  In56  1  0.46661241  0.13970704  0.33559477  1
  In  In57  1  0.84879758  0.83232456  0.64395813  1
  In  In58  1  0.84427239  0.01237535  0.48300365  1
  In  In59  1  0.17366665  0.29971166  0.50621152  1
  In  In60  1  0.61902543  0.83622760  0.85260775  1
  In  In61  1  0.34688666  0.67117849  0.01990606  1
  In  In62  1  0.32816522  0.34432119  0.00446096  1
  In  In63  1  0.17213546  0.69324716  0.15600594  1
  In  In64  1  0.34515954  0.17718552  0.82630489  1
  In  In65  1  0.17333400  0.50869546  0.00017146  1
  In  In66  1  0.66990934  0.84727961  0.16081799  1
  In  In67  1  0.01745255  0.49216939  0.49783185  1
  In  In68  1  0.65830305  0.49902199  0.81847754  1
  In  In69  1  0.32628945  0.84078957  0.51560220  1
  In  In70  1  -0.00649199  0.32009797  0.33836300  1
  In  In71  1  0.67616164  0.01048025  -0.02642076  1
  Te  Te72  1  0.07115316  0.07935506  0.09919879  1
  Te  Te73  1  0.07782647  0.09497374  0.42777497  1
  Te  Te74  1  0.08288916  0.06648332  0.71586983  1
  Te  Te75  1  0.08655562  0.40318812  0.06446698  1
  Te  Te76  1  0.09905173  0.39962639  0.41318307  1
  Te  Te77  1  0.06371498  0.38980611  0.69406559  1
  Te  Te78  1  0.08414697  0.81723203  0.10571750  1
  Te  Te79  1  0.09057208  0.74164553  0.45725188  1
  Te  Te80  1  0.07348323  0.74357817  0.74424156  1
  Te  Te81  1  0.39384913  0.06337353  0.11821138  1
  Te  Te82  1  0.39567845  0.05358615  0.43403634  1
  Te  Te83  1  0.41346343  0.06760191  0.75928322  1
  Te  Te84  1  0.40752459  0.42363194  0.10567331  1
  Te  Te85  1  0.39225315  0.41117255  0.39379646  1
  Te  Te86  1  0.43558246  0.38892903  0.75465705  1
  Te  Te87  1  0.40018616  0.77288748  0.11813212  1
  Te  Te88  1  0.41502537  0.74844229  0.42223894  1
  Te  Te89  1  0.40985774  0.74092132  0.72615135  1
  Te  Te90  1  0.75126288  0.05907173  0.09028658  1
  Te  Te91  1  0.73177640  0.09549432  0.41848489  1
  Te  Te92  1  0.75752246  0.08843981  0.76899492  1
  Te  Te93  1  0.77245401  0.39094350  0.10648968  1
  Te  Te94  1  0.76828937  0.40896495  0.39942170  1
  Te  Te95  1  0.75091583  0.40597652  0.74493094  1
  Te  Te96  1  0.73443611  0.74479538  0.06815475  1
  Te  Te97  1  0.76844913  0.72209180  0.43446917  1
  Te  Te98  1  0.77075005  0.74622265  0.74445276  1
  Te  Te99  1  0.09177242  0.26063258  0.23696692  1
  Te  Te100  1  0.08543459  0.25969227  0.61538957  1
  Te  Te101  1  0.11110448  0.25940975  0.90037053  1
  Te  Te102  1  0.08508573  0.58870441  0.22768272  1
  Te  Te103  1  0.13206008  0.61374804  0.53720363  1
  Te  Te104  1  0.08530049  0.59329084  0.91012679  1
  Te  Te105  1  0.09980484  0.87786220  0.25162766  1
  Te  Te106  1  0.08045829  0.94152534  0.59326624  1
  Te  Te107  1  0.08765049  0.91822353  0.90868926  1
  Te  Te108  1  0.37548008  0.24149391  0.27512077  1
  Te  Te109  1  0.41667990  0.22922527  0.56763168  1
  Te  Te110  1  0.42447371  0.25616415  0.92883376  1
  Te  Te111  1  0.42069396  0.60126525  0.24691344  1
  Te  Te112  1  0.39841678  0.55341371  0.55733178  1
  Te  Te113  1  0.42011804  0.59071482  0.92290064  1
  Te  Te114  1  0.43035839  0.94696809  0.22952620  1
  Te  Te115  1  0.39856482  0.95397766  0.57741644  1
  Te  Te116  1  0.39962400  0.92820556  0.91879852  1
  Te  Te117  1  0.74711688  0.21162910  0.24360461  1
  Te  Te118  1  0.73312846  0.27224898  0.58134668  1
  Te  Te119  1  0.72768879  0.24304569  0.94006317  1
  Te  Te120  1  0.76678589  0.56751438  0.24836027  1
  Te  Te121  1  0.74915535  0.56510870  0.58899441  1
  Te  Te122  1  0.73266432  0.58365611  0.92130254  1
  Te  Te123  1  0.75542731  0.91497664  0.26746905  1
  Te  Te124  1  0.75313287  0.92716252  0.57294468  1
  Te  Te125  1  0.75070460  0.90297142  0.89648649  1
  Te  Te126  1  0.25506428  0.25267923  0.09975686  1
  Te  Te127  1  0.27005564  0.23555494  0.41288281  1
  Te  Te128  1  0.23697644  0.23033244  0.72613910  1
  Te  Te129  1  0.25826996  0.57897685  0.10224721  1
  Te  Te130  1  0.22235681  0.56770564  0.38397378  1
  Te  Te131  1  0.25765271  0.56119659  0.74359244  1
  Te  Te132  1  0.26248811  0.97818744  0.10623101  1
  Te  Te133  1  0.22935853  0.90907470  0.42360143  1
  Te  Te134  1  0.25188631  0.90267621  0.75447215  1
  Te  Te135  1  0.56220959  0.24250475  0.09413672  1
  Te  Te136  1  0.56576666  0.24687645  0.40406972  1
  Te  Te137  1  0.56296810  0.27255767  0.75116888  1
  Te  Te138  1  0.59907830  0.57421208  0.10405842  1
  Te  Te139  1  0.57640766  0.59537193  0.43415237  1
  Te  Te140  1  0.56744929  0.59436196  0.74374486  1
  Te  Te141  1  0.58546994  0.93048662  0.07067997  1
  Te  Te142  1  0.56682967  0.93572020  0.43172741  1
  Te  Te143  1  0.58196539  0.92317849  0.74214453  1
  Te  Te144  1  0.91638850  0.24328506  0.08929417  1
  Te  Te145  1  0.92094963  0.23044134  0.43197073  1
  Te  Te146  1  0.91593756  0.25031539  0.74890475  1
  Te  Te147  1  0.92431906  0.58356546  0.06863111  1
  Te  Te148  1  0.94336280  0.58158352  0.40021630  1
  Te  Te149  1  0.92344166  0.57850132  0.74818937  1
  Te  Te150  1  0.90058352  0.93627092  0.10544024  1
  Te  Te151  1  0.93892022  0.91163378  0.42023364  1
  Te  Te152  1  0.90692794  0.93965357  0.72700589  1
  Te  Te153  1  0.22430771  0.06541320  0.23704975  1
  Te  Te154  1  0.21665747  0.11323716  0.62554916  1
  Te  Te155  1  0.25532101  0.09471525  0.92217573  1
  Te  Te156  1  0.25762383  0.44668895  0.29339398  1
  Te  Te157  1  0.25863743  0.41326516  0.56869784  1
  Te  Te158  1  0.26187267  0.43430004  0.90188361  1
  Te  Te159  1  0.23725034  0.78197939  0.25712698  1
  Te  Te160  1  0.27796699  0.74193754  0.61488202  1
  Te  Te161  1  0.23801669  0.74816532  0.93505766  1
  Te  Te162  1  0.56604811  0.09267114  0.23797164  1
  Te  Te163  1  0.59586652  0.06975441  0.61297687  1
  Te  Te164  1  0.56268972  0.08609191  0.90789550  1
  Te  Te165  1  0.58122150  0.40857257  0.25218975  1
  Te  Te166  1  0.58542499  0.40444905  0.58242557  1
  Te  Te167  1  0.58071325  0.41991011  0.92216680  1
  Te  Te168  1  0.59407264  0.76475881  0.27094825  1
  Te  Te169  1  0.59270428  0.77044668  0.57572654  1
  Te  Te170  1  0.54687684  0.73742092  0.92961380  1
  Te  Te171  1  0.94505573  0.07032369  0.23978146  1
  Te  Te172  1  0.90774970  0.11759148  0.56478014  1
  Te  Te173  1  0.92566432  0.08863968  0.90278355  1
  Te  Te174  1  0.90790500  0.40455289  0.25180946  1
  Te  Te175  1  0.91040535  0.40096318  0.54263536  1
  Te  Te176  1  0.91660952  0.42436774  0.90286025  1
  Te  Te177  1  0.92702875  0.75081066  0.23700223  1
  Te  Te178  1  0.95217356  0.75552102  0.56248371  1
  Te  Te179  1  0.92842714  0.75755977  0.92773174  1
