# generated using pymatgen
data_In2Te3
_symmetry_space_group_name_H-M   'P 1'
_cell_length_a   18.98358721
_cell_length_b   18.97437155
_cell_length_c   18.96095403
_cell_angle_alpha   90.06140839
_cell_angle_beta   90.10579460
_cell_angle_gamma   89.82720535
_symmetry_Int_Tables_number   1
_chemical_formula_structural   In2Te3
_chemical_formula_sum   'In72 Te108'
_cell_volume   6829.72009547
_cell_formula_units_Z   36
loop_
 _symmetry_equiv_pos_site_id
 _symmetry_equiv_pos_as_xyz
  1  'x, y, z'
loop_
 _atom_site_type_symbol
 _atom_site_label
 _atom_site_symmetry_multiplicity
 _atom_site_fract_x
 _atom_site_fract_y
 _atom_site_fract_z
 _atom_site_occupancy
  In  In0  1  0.68197888  0.15781215  0.18443938  1
  In  In1  1  0.82715360  0.51411741  0.32034845  1
  In  In2  1  0.15463177  0.32099781  0.49856810  1
  In  In3  1  0.35218327  0.84500666  0.17164211  1
  In  In4  1  0.83915073  0.17385980  0.01976645  1
  In  In5  1  0.18436114  0.48615736  0.68173141  1
  In  In6  1  0.64634552  0.83616913  0.84178254  1
  In  In7  1  0.66321513  0.82528860  0.49914982  1
  In  In8  1  0.84620046  0.66231226  0.51300249  1
  In  In9  1  0.68756495  -0.02009892  0.30341328  1
  In  In10  1  0.18370622  0.48955213  0.29633403  1
  In  In11  1  0.01925368  0.64943916  -0.00252309  1
  In  In12  1  0.68173240  0.64977894  0.67979439  1
  In  In13  1  0.48049839  0.67964219  0.81709550  1
  In  In14  1  0.66725966  0.67614944  0.30530199  1
  In  In15  1  0.32943868  0.68335858  0.65010153  1
  In  In16  1  0.16516794  0.84823857  0.32971438  1
  In  In17  1  0.48307725  -0.01863384  0.54061504  1
  In  In18  1  0.02251676  -0.01061669  0.01664747  1
  In  In19  1  0.00122441  0.83154057  0.16622745  1
  In  In20  1  0.84854637  0.17823941  0.65191575  1
  In  In21  1  0.47292056  0.02429114  0.83957509  1
  In  In22  1  0.00784890  0.17224073  0.49814441  1
  In  In23  1  0.67509473  0.48264897  0.16156575  1
  In  In24  1  0.20243857  0.04926777  0.17078048  1
  In  In25  1  0.31958666  0.17372961  0.50822916  1
  In  In26  1  0.82853741  0.81262858  0.65744437  1
  In  In27  1  0.18506286  0.83978865  0.69961459  1
  In  In28  1  0.01207283  0.85267788  0.49567059  1
  In  In29  1  -0.02100118  0.48863938  0.50135168  1
  In  In30  1  0.68162199  0.54500062  0.51159102  1
  In  In31  1  0.67267118  -0.06619175  0.08511828  1
  In  In32  1  0.85689137  0.34753434  0.86302358  1
  In  In33  1  0.47697282  0.31932151  0.18442958  1
  In  In34  1  0.03031825  0.17457164  0.85937353  1
  In  In35  1  0.01829142  0.15476188  0.16064634  1
  In  In36  1  0.35392854  0.67049778  0.31530695  1
  In  In37  1  -0.00023063  0.02786713  0.69245202  1
  In  In38  1  -0.01860875  -0.00299003  0.31938371  1
  In  In39  1  0.16393641  0.00033070  0.49043475  1
  In  In40  1  0.49885889  0.50357628  -0.01353537  1
  In  In41  1  0.17867450  0.85248047  -0.03571603  1
  In  In42  1  0.43843209  0.47464105  0.70742573  1
  In  In43  1  0.66673776  0.35292339  -0.00300013  1
  In  In44  1  0.01716643  0.31928362  0.33066754  1
  In  In45  1  0.33773430  0.01146731  -0.02160225  1
  In  In46  1  0.63613556  0.17684962  0.82537567  1
  In  In47  1  0.65908019  0.31840862  0.66673154  1
  In  In48  1  0.85697060  0.63028490  0.85117675  1
  In  In49  1  0.05163526  0.33635418  -0.01026648  1
  In  In50  1  0.18296848  0.64678894  0.87681459  1
  In  In51  1  0.68205744  0.33615152  0.31663318  1
  In  In52  1  0.50274487  0.65949752  0.17131541  1
  In  In53  1  0.46777148  0.52366864  0.33671470  1
  In  In54  1  0.01373799  0.33585629  0.65874187  1
  In  In55  1  0.13981270  0.65686300  0.50163031  1
  In  In56  1  0.50498100  0.68236986  0.53628510  1
  In  In57  1  0.51539491  0.83114950  0.01976102  1
  In  In58  1  0.41167592  0.19263426  0.70011958  1
  In  In59  1  0.49687093  0.17567586  0.00506517  1
  In  In60  1  0.46976349  0.85864516  0.35118750  1
  In  In61  1  0.30956989  0.48820152  0.49211007  1
  In  In62  1  0.67489851  0.50207431  0.83085901  1
  In  In63  1  0.81183834  0.00017122  0.85133590  1
  In  In64  1  0.18763795  0.64069636  0.12480764  1
  In  In65  1  0.30714777  0.31880717  0.00029701  1
  In  In66  1  -0.01217564  0.80277240  0.81503748  1
  In  In67  1  0.67710478  -0.00949959  0.65795934  1
  In  In68  1  0.48318666  0.16631859  0.33941208  1
  In  In69  1  0.50243292  0.36867741  0.48313301  1
  In  In70  1  0.00660567  0.49795966  0.16022092  1
  In  In71  1  0.66412291  0.13058347  0.48017546  1
  Te  Te72  1  0.11706011  0.09972440  0.05520465  1
  Te  Te73  1  0.08011306  0.08482879  0.39819387  1
  Te  Te74  1  0.11204654  0.08513092  0.77081074  1
  Te  Te75  1  0.11859926  0.43272209  0.08469114  1
  Te  Te76  1  0.09690970  0.43514981  0.40891290  1
  Te  Te77  1  0.09586617  0.39942426  0.76191247  1
  Te  Te78  1  0.10613052  0.75953159  0.07013320  1
  Te  Te79  1  0.07402669  0.75057877  0.40033635  1
  Te  Te80  1  0.10037047  0.72933793  0.75475812  1
  Te  Te81  1  0.40977709  0.08588244  0.08506170  1
  Te  Te82  1  0.41653271  0.07576388  0.44081080  1
  Te  Te83  1  0.37541196  0.04931450  0.72783982  1
  Te  Te84  1  0.42390491  0.39708951  0.06836875  1
  Te  Te85  1  0.38628956  0.40611736  0.38926447  1
  Te  Te86  1  0.35057423  0.39669518  0.79982271  1
  Te  Te87  1  0.41035410  0.73873036  0.07975987  1
  Te  Te88  1  0.41058338  0.74729686  0.43487952  1
  Te  Te89  1  0.41445171  0.78087359  0.72652323  1
  Te  Te90  1  0.74925106  0.07094812  0.08221666  1
  Te  Te91  1  0.76150934  0.07628231  0.38622345  1
  Te  Te92  1  0.74925895  0.09936179  0.74539789  1
  Te  Te93  1  0.77219661  0.41396665  0.07642202  1
  Te  Te94  1  0.73864092  0.43753286  0.41549778  1
  Te  Te95  1  0.75537382  0.39439990  0.75902304  1
  Te  Te96  1  0.68798747  0.79336273  0.13191834  1
  Te  Te97  1  0.75225632  0.73629571  0.41667838  1
  Te  Te98  1  0.75454353  0.74877954  0.77396175  1
  Te  Te99  1  0.10574026  0.25497942  0.23059430  1
  Te  Te100  1  0.10199257  0.22545779  0.60423864  1
  Te  Te101  1  0.13753169  0.27342038  0.88575144  1
  Te  Te102  1  0.09563372  0.59804615  0.23833080  1
  Te  Te103  1  0.07733595  0.55755663  0.59489190  1
  Te  Te104  1  0.06268812  0.55823779  0.88916868  1
  Te  Te105  1  0.10068569  0.94295680  0.23015027  1
  Te  Te106  1  0.08073083  0.92281620  0.61427178  1
  Te  Te107  1  0.06198116  0.91364408  0.89104176  1
  Te  Te108  1  0.38088389  0.22074450  0.24291947  1
  Te  Te109  1  0.42529505  0.27061929  0.56641017  1
  Te  Te110  1  0.38955341  0.22626178  0.91365663  1
  Te  Te111  1  0.39029697  0.56402706  0.21201119  1
  Te  Te112  1  0.41285859  0.56234945  0.57549287  1
  Te  Te113  1  0.40774549  0.59063006  0.90980285  1
  Te  Te114  1  0.37541956  0.94512346  0.27779752  1
  Te  Te115  1  0.41495191  0.86665622  0.59506277  1
  Te  Te116  1  0.42534666  0.90366530  0.91791936  1
  Te  Te117  1  0.77456102  0.25961555  0.23496776  1
  Te  Te118  1  0.73817308  0.23650913  0.56616517  1
  Te  Te119  1  0.74462818  0.24161991  0.91397208  1
  Te  Te120  1  0.76230352  0.60174557  0.21553010  1
  Te  Te121  1  0.79479843  0.56101258  0.62299577  1
  Te  Te122  1  0.75522300  0.56618679  0.93420332  1
  Te  Te123  1  0.77044934  0.87443946  0.23120186  1
  Te  Te124  1  0.76800570  0.91641265  0.56311824  1
  Te  Te125  1  0.73297768  0.90968242  0.94112360  1
  Te  Te126  1  0.22418637  0.27019069  0.11408868  1
  Te  Te127  1  0.23622501  0.24061677  0.40342929  1
  Te  Te128  1  0.29661166  0.25375854  0.77193343  1
  Te  Te129  1  0.24715610  0.57656607  0.00275798  1
  Te  Te130  1  0.24754796  0.59661670  0.40512461  1
  Te  Te131  1  0.26345895  0.59422259  0.74989388  1
  Te  Te132  1  0.25536788  0.92415034  0.08308559  1
  Te  Te133  1  0.26128492  0.91635751  0.41722697  1
  Te  Te134  1  0.26518770  0.93851163  0.77820558  1
  Te  Te135  1  0.59351474  0.25727393  0.09867992  1
  Te  Te136  1  0.58548415  0.25687727  0.40855131  1
  Te  Te137  1  0.54237334  0.26387390  0.74695449  1
  Te  Te138  1  0.59291333  0.58064916  0.07853084  1
  Te  Te139  1  0.57426975  0.60406795  0.41539537  1
  Te  Te140  1  0.56510961  0.56993798  0.73927634  1
  Te  Te141  1  0.52599178  0.95241385  0.10325194  1
  Te  Te142  1  0.58720647  0.92878964  0.42001869  1
  Te  Te143  1  0.57724747  0.93966889  0.75848106  1
  Te  Te144  1  0.94688558  0.26165311  0.07503722  1
  Te  Te145  1  0.91906367  0.26441092  0.42490555  1
  Te  Te146  1  0.92489081  0.24358199  0.76640576  1
  Te  Te147  1  0.92749626  0.60871737  0.10381643  1
  Te  Te148  1  0.92623989  0.59300975  0.40358392  1
  Te  Te149  1  0.90676764  0.57445651  0.72911016  1
  Te  Te150  1  0.91534220  0.91434980  0.07988199  1
  Te  Te151  1  0.90669160  0.89665833  0.40012283  1
  Te  Te152  1  0.89563830  0.92165957  0.74981916  1
  Te  Te153  1  0.26121725  0.12260373  0.28306720  1
  Te  Te154  1  0.24906507  0.07097664  0.58699906  1
  Te  Te155  1  0.23063260  0.04791244  0.88243348  1
  Te  Te156  1  0.23907663  0.40755814  0.18703193  1
  Te  Te157  1  0.25637402  0.38792179  0.59065639  1
  Te  Te158  1  0.26242603  0.43917568  0.92362073  1
  Te  Te159  1  0.24829305  0.74842563  0.23757002  1
  Te  Te160  1  0.22549523  0.75958722  0.57109920  1
  Te  Te161  1  0.27148365  0.76333538  0.89719578  1
  Te  Te162  1  0.57693035  0.07850711  0.25811627  1
  Te  Te163  1  0.57678544  0.08743580  0.59654778  1
  Te  Te164  1  0.58623692  0.07987909  0.92677101  1
  Te  Te165  1  0.56808440  0.43071067  0.25772330  1
  Te  Te166  1  0.60397217  0.43019344  0.57789808  1
  Te  Te167  1  0.57131059  0.40676060  0.89418086  1
  Te  Te168  1  0.55800382  0.77189636  0.25880882  1
  Te  Te169  1  0.59895109  0.76489468  0.62109131  1
  Te  Te170  1  0.58036131  0.72789856  0.92177255  1
  Te  Te171  1  0.90891526  0.09331860  0.23583424  1
  Te  Te172  1  0.91910282  0.07190065  0.57048922  1
  Te  Te173  1  0.91879698  0.08267733  0.92168857  1
  Te  Te174  1  0.92254973  0.41612417  0.25583396  1
  Te  Te175  1  0.90616095  0.38127556  0.56991022  1
  Te  Te176  1  0.95443606  0.43536633  0.92851381  1
  Te  Te177  1  0.90260144  0.79374121  0.26734127  1
  Te  Te178  1  0.94544128  0.74718906  0.58876058  1
  Te  Te179  1  0.91419542  0.74622867  0.93131706  1
