# generated using pymatgen
data_In2Te3
_symmetry_space_group_name_H-M   'P 1'
_cell_length_a   18.86990371
_cell_length_b   18.85573884
_cell_length_c   18.87424801
_cell_angle_alpha   90.13966144
_cell_angle_beta   90.05903747
_cell_angle_gamma   90.02126545
_symmetry_Int_Tables_number   1
_chemical_formula_structural   In2Te3
_chemical_formula_sum   'In72 Te108'
_cell_volume   6715.54625379
_cell_formula_units_Z   36
loop_
 _symmetry_equiv_pos_site_id
 _symmetry_equiv_pos_as_xyz
  1  'x, y, z'
loop_
 _atom_site_type_symbol
 _atom_site_label
 _atom_site_symmetry_multiplicity
 _atom_site_fract_x
 _atom_site_fract_y
 _atom_site_fract_z
 _atom_site_occupancy
  In  In0  1  0.70347333  0.71417551  0.32527529  1
  In  In1  1  0.84418000  0.49940569  0.66772455  1
  In  In2  1  0.13581028  0.49050924  0.68683669  1
  In  In3  1  0.17014644  0.34993990  0.84430482  1
  In  In4  1  0.19231314  0.18076513  0.00868104  1
  In  In5  1  -0.03344848  0.19138617  0.82140659  1
  In  In6  1  0.35165001  0.83281997  0.18737451  1
  In  In7  1  0.34807731  0.86133241  0.84959641  1
  In  In8  1  0.52309857  0.31465926  0.47525793  1
  In  In9  1  0.16580593  0.15377902  0.66145475  1
  In  In10  1  0.30361389  0.50746592  0.50933164  1
  In  In11  1  0.50149577  0.32703780  0.81002672  1
  In  In12  1  0.80369322  0.85627070  0.65017629  1
  In  In13  1  0.17411221  0.81406738  0.02632266  1
  In  In14  1  0.14734644  0.33440291  0.16103084  1
  In  In15  1  -0.02354382  0.34112426  0.34925435  1
  In  In16  1  0.49200002  0.66526854  0.17318392  1
  In  In17  1  0.12912397  0.56073898  0.29373890  1
  In  In18  1  0.67577425  0.30868407  -0.00665467  1
  In  In19  1  0.18044853  0.02367815  0.84164899  1
  In  In20  1  0.65835656  0.31215201  0.64504280  1
  In  In21  1  0.67043478  -0.00468158  0.00227435  1
  In  In22  1  0.53120717  -0.00382059  0.51023351  1
  In  In23  1  -0.01361631  0.66491900  0.68779150  1
  In  In24  1  0.48866509  0.51741258  -0.00525720  1
  In  In25  1  0.01285037  0.84870030  0.50119051  1
  In  In26  1  0.35212619  0.17066628  0.50789774  1
  In  In27  1  0.81277391  0.02125947  0.80626416  1
  In  In28  1  0.31433294  0.49064701  0.15528293  1
  In  In29  1  0.17053051  -0.02919816  0.17267747  1
  In  In30  1  0.50806492  0.27686939  0.15042253  1
  In  In31  1  0.15329269  0.65862753  0.82339957  1
  In  In32  1  0.49400198  0.53990021  0.67909769  1
  In  In33  1  0.00280799  0.65997191  0.00492726  1
  In  In34  1  0.34504044  0.16279551  0.82969279  1
  In  In35  1  0.66468607  0.46115018  0.15590290  1
  In  In36  1  0.50315780  0.67978483  0.84239894  1
  In  In37  1  -0.03641388  0.15499302  0.48850378  1
  In  In38  1  0.36512203  -0.02045915  0.65157684  1
  In  In39  1  0.18265065  0.67709419  0.51070161  1
  In  In40  1  0.33123306  0.66261586  0.01943743  1
  In  In41  1  0.83943223  0.67011317  0.16353450  1
  In  In42  1  0.17044818  0.81663653  0.32268351  1
  In  In43  1  0.32479622  0.69561815  0.66962541  1
  In  In44  1  0.84286467  0.33269633  0.17363828  1
  In  In45  1  0.33603598  0.34035233  -0.01545398  1
  In  In46  1  -0.02960436  0.01147310  0.34748662  1
  In  In47  1  0.16752671  0.14142158  0.34357863  1
  In  In48  1  0.66991749  0.82781624  0.81304126  1
  In  In49  1  0.67786141  0.88224699  0.17727862  1
  In  In50  1  0.49288783  0.84875296  0.34493659  1
  In  In51  1  0.14045658  0.30534555  0.49026106  1
  In  In52  1  0.82513959  0.67984009  0.48231963  1
  In  In53  1  0.35570847  0.33486496  0.64863746  1
  In  In54  1  0.64829966  0.28617730  0.32067819  1
  In  In55  1  0.53760612  -0.00059026  0.82455560  1
  In  In56  1  0.67697258  0.67696621  -0.02983740  1
  In  In57  1  0.85602334  0.83546699  0.01028082  1
  In  In58  1  0.68358392  0.48565159  0.83380762  1
  In  In59  1  0.63663812  0.52565338  0.49342395  1
  In  In60  1  -0.03519140  0.50386674  0.49898193  1
  In  In61  1  -0.02078198  -0.00203076  0.64351039  1
  In  In62  1  0.81675536  0.32801311  0.50648086  1
  In  In63  1  0.32666281  -0.00351700  0.33218468  1
  In  In64  1  0.82541137  0.48585466  0.31830857  1
  In  In65  1  0.00174786  0.14054985  0.17434229  1
  In  In66  1  0.35870802  0.33601746  0.30447029  1
  In  In67  1  0.82208717  0.15508610  0.00441707  1
  In  In68  1  0.01663451  0.82188936  0.83125694  1
  In  In69  1  -0.01735762  -0.02804854  0.01693449  1
  In  In70  1  0.50305104  0.51681014  0.35639429  1
  In  In71  1  -0.00541949  0.35509940  -0.01673455  1
  Te  Te72  1  0.09635113  0.07450420  0.07413456  1
  Te  Te73  1  0.08172332  0.06758223  0.44156686  1
  Te  Te74  1  0.06795281  0.08083022  0.75540849  1
  Te  Te75  1  0.08458657  0.43183501  0.07163082  1
  Te  Te76  1  0.07795179  0.42809094  0.42357255  1
  Te  Te77  1  0.05203489  0.38918352  0.75906573  1
  Te  Te78  1  0.05869832  0.76129243  0.10298585  1
  Te  Te79  1  0.07826597  0.73987866  0.41947164  1
  Te  Te80  1  0.10163960  0.75979455  0.72105948  1
  Te  Te81  1  0.43260266  0.15203600  0.12745177  1
  Te  Te82  1  0.42581971  0.07099766  0.42251697  1
  Te  Te83  1  0.43406049  0.08370223  0.73858606  1
  Te  Te84  1  0.43287690  0.41396851  0.09208020  1
  Te  Te85  1  0.40869590  0.41526939  0.43527603  1
  Te  Te86  1  0.40697690  0.43155988  0.75329564  1
  Te  Te87  1  0.43105423  0.76212709  0.07225355  1
  Te  Te88  1  0.44220164  0.72099570  0.39367178  1
  Te  Te89  1  0.42667066  0.77434844  0.75135433  1
  Te  Te90  1  0.77870144  0.04578464  0.09377777  1
  Te  Te91  1  0.77752600  0.02238444  0.42668551  1
  Te  Te92  1  0.70126377  0.09804703  0.74747517  1
  Te  Te93  1  0.77126177  0.40805028  0.06138886  1
  Te  Te94  1  0.73339598  0.42398244  0.42279818  1
  Te  Te95  1  0.75449885  0.39487679  0.73493262  1
  Te  Te96  1  0.73684413  0.76302740  0.08348376  1
  Te  Te97  1  0.71776191  0.77826260  0.45732423  1
  Te  Te98  1  0.76376101  0.74335087  0.73578111  1
  Te  Te99  1  0.07607078  0.24323523  0.27242971  1
  Te  Te100  1  0.05607598  0.23337723  0.59148401  1
  Te  Te101  1  0.08769584  0.23468780  0.91467720  1
  Te  Te102  1  0.03396699  0.65556571  0.22635825  1
  Te  Te103  1  0.07356224  0.58203595  0.58098183  1
  Te  Te104  1  0.08487598  0.57124198  0.91802724  1
  Te  Te105  1  0.06891794  0.91809421  0.26849205  1
  Te  Te106  1  0.09641689  0.92461415  0.59485002  1
  Te  Te107  1  0.09778600  0.91409931  0.92317251  1
  Te  Te108  1  0.43521344  0.21068436  0.27165708  1
  Te  Te109  1  0.45733862  0.23701389  0.59520143  1
  Te  Te110  1  0.43548072  0.24525383  0.92093102  1
  Te  Te111  1  0.40503344  0.57107816  0.25210714  1
  Te  Te112  1  0.40599800  0.60639046  0.56566103  1
  Te  Te113  1  0.39502551  0.58862662  0.90129357  1
  Te  Te114  1  0.43784040  0.94766678  0.23965660  1
  Te  Te115  1  0.44078866  0.89059384  0.56187624  1
  Te  Te116  1  0.43927142  0.94879454  0.92334957  1
  Te  Te117  1  0.73924832  0.23095942  0.21103160  1
  Te  Te118  1  0.72702081  0.21818650  0.55201995  1
  Te  Te119  1  0.77820675  0.25195680  0.89736098  1
  Te  Te120  1  0.72510138  0.57686695  0.24834638  1
  Te  Te121  1  0.75458933  0.58080722  0.57625541  1
  Te  Te122  1  0.76615466  0.57008190  0.92379499  1
  Te  Te123  1  0.74274832  0.93494357  0.29976803  1
  Te  Te124  1  0.75658609  0.97770558  0.57555368  1
  Te  Te125  1  0.76360302  0.91168375  0.90638368  1
  Te  Te126  1  0.27161288  0.26626062  0.10412175  1
  Te  Te127  1  0.26059639  0.24933593  0.41228134  1
  Te  Te128  1  0.25154275  0.25068606  0.74672697  1
  Te  Te129  1  0.22900045  0.60345764  0.10855599  1
  Te  Te130  1  0.24184121  0.59078421  0.39959242  1
  Te  Te131  1  0.24994542  0.57744881  0.73609455  1
  Te  Te132  1  0.27541332  0.91437516  0.07852651  1
  Te  Te133  1  0.25521138  0.89804724  0.41414013  1
  Te  Te134  1  0.25390793  0.92863158  0.75034429  1
  Te  Te135  1  0.60450946  0.19728254  0.06170391  1
  Te  Te136  1  0.60432399  0.19323031  0.43413595  1
  Te  Te137  1  0.60256975  0.23187833  0.75945506  1
  Te  Te138  1  0.59521538  0.58385590  0.08076937  1
  Te  Te139  1  0.57447202  0.64274046  0.41040187  1
  Te  Te140  1  0.61290731  0.60473057  0.76603847  1
  Te  Te141  1  0.57162081  0.95337820  0.10493460  1
  Te  Te142  1  0.60573204  0.93669583  0.39171307  1
  Te  Te143  1  0.58640282  0.90542244  0.71725458  1
  Te  Te144  1  0.93461580  0.24367182  0.08035456  1
  Te  Te145  1  0.87584554  0.23880959  0.39410902  1
  Te  Te146  1  0.84589711  0.23807467  0.75533751  1
  Te  Te147  1  0.89516830  0.57628571  0.06613317  1
  Te  Te148  1  0.91155610  0.59319645  0.38886143  1
  Te  Te149  1  0.92412498  0.56338837  0.77691171  1
  Te  Te150  1  0.90618309  0.91192085  0.12765116  1
  Te  Te151  1  0.89443029  0.91499143  0.43557160  1
  Te  Te152  1  0.91422981  0.90738777  0.75512511  1
  Te  Te153  1  0.25180105  0.08659409  0.23123375  1
  Te  Te154  1  0.26057283  0.07168437  0.57766448  1
  Te  Te155  1  0.28287207  0.07872005  0.94141722  1
  Te  Te156  1  0.23202292  0.41549716  0.26357154  1
  Te  Te157  1  0.22667374  0.39614731  0.58976543  1
  Te  Te158  1  0.24261161  0.44161474  0.93367282  1
  Te  Te159  1  0.25087135  0.73319728  0.22848686  1
  Te  Te160  1  0.27290604  0.78275015  0.56084922  1
  Te  Te161  1  0.24789661  0.74985679  0.90837241  1
  Te  Te162  1  0.63009202  0.14047731  0.27871772  1
  Te  Te163  1  0.61945245  0.04592736  0.62310215  1
  Te  Te164  1  0.59733165  0.09845027  0.92284610  1
  Te  Te165  1  0.57406470  0.41229749  0.26757108  1
  Te  Te166  1  0.56881917  0.42724753  0.59079802  1
  Te  Te167  1  0.57845145  0.41416127  0.92238476  1
  Te  Te168  1  0.58731308  0.76631155  0.23697366  1
  Te  Te169  1  0.55432794  0.66254256  0.62139501  1
  Te  Te170  1  0.57673469  0.78239981  0.92762118  1
  Te  Te171  1  0.88864498  0.08888006  0.25143462  1
  Te  Te172  1  0.88058887  0.09920211  0.59956099  1
  Te  Te173  1  0.92143408  0.06906861  0.91554946  1
  Te  Te174  1  0.94148342  0.43358553  0.23293015  1
  Te  Te175  1  0.92532821  0.39182658  0.59200618  1
  Te  Te176  1  0.93672568  0.41896428  0.86516474  1
  Te  Te177  1  0.90868933  0.73527405  0.27456258  1
  Te  Te178  1  0.91549785  0.75393596  0.58673591  1
  Te  Te179  1  0.91407505  0.74040390  0.90656016  1
