# generated using pymatgen
data_In2Te3
_symmetry_space_group_name_H-M   'P 1'
_cell_length_a   18.79802117
_cell_length_b   18.79502809
_cell_length_c   18.79356842
_cell_angle_alpha   89.99810709
_cell_angle_beta   89.98727991
_cell_angle_gamma   90.06807699
_symmetry_Int_Tables_number   1
_chemical_formula_structural   In2Te3
_chemical_formula_sum   'In72 Te108'
_cell_volume   6639.93832080
_cell_formula_units_Z   36
loop_
 _symmetry_equiv_pos_site_id
 _symmetry_equiv_pos_as_xyz
  1  'x, y, z'
loop_
 _atom_site_type_symbol
 _atom_site_label
 _atom_site_symmetry_multiplicity
 _atom_site_fract_x
 _atom_site_fract_y
 _atom_site_fract_z
 _atom_site_occupancy
  In  In0  1  0.50788146  0.15009154  -0.01321283  1
  In  In1  1  0.66908435  0.32626314  -0.00254403  1
  In  In2  1  0.51024643  0.13697297  0.34747825  1
  In  In3  1  0.00577384  0.32036873  0.66816319  1
  In  In4  1  -0.01798463  0.86827675  0.80871401  1
  In  In5  1  0.67364155  0.30465903  0.34689444  1
  In  In6  1  0.46395113  -0.01045958  0.50871532  1
  In  In7  1  0.34785891  0.34611981  0.00044790  1
  In  In8  1  0.48091334  0.67730966  0.17414421  1
  In  In9  1  0.63988348  0.68943843  -0.05207043  1
  In  In10  1  0.67094675  0.15288170  0.83921509  1
  In  In11  1  0.18380262  0.66955150  0.84000827  1
  In  In12  1  0.81687474  0.33423387  0.51378357  1
  In  In13  1  0.16216241  0.31664909  0.18553166  1
  In  In14  1  0.17796544  0.50587703  -0.01228906  1
  In  In15  1  0.86224621  0.48868072  0.35532180  1
  In  In16  1  0.67102801  0.33024861  0.66246570  1
  In  In17  1  0.02450562  0.67248046  0.01487030  1
  In  In18  1  0.65845098  -0.00273172  0.66656537  1
  In  In19  1  0.02472835  0.33184620  0.34940713  1
  In  In20  1  0.01133314  0.81522563  0.17152080  1
  In  In21  1  0.64278560  0.00212427  0.33068981  1
  In  In22  1  0.84976048  0.47018405  -0.01547607  1
  In  In23  1  0.31077544  0.48856300  0.52189359  1
  In  In24  1  0.32190240  0.68105296  0.67096477  1
  In  In25  1  0.47879403  0.69331332  0.83651508  1
  In  In26  1  -0.00550651  0.17096628  0.83898474  1
  In  In27  1  0.64763065  0.85207288  0.16732797  1
  In  In28  1  0.47838850  0.50761875  0.34250421  1
  In  In29  1  0.84231259  0.17217993  0.32006259  1
  In  In30  1  0.18939792  -0.01189475  0.82236337  1
  In  In31  1  0.63647072  0.83178890  0.82158057  1
  In  In32  1  0.83622190  0.68435875  0.16671013  1
  In  In33  1  0.47011093  0.87146914  0.31772165  1
  In  In34  1  -0.00779738  0.31701732  -0.00461021  1
  In  In35  1  0.67583660  0.65643143  0.34275748  1
  In  In36  1  0.82234162  0.83853211  -0.01329917  1
  In  In37  1  0.00491468  0.83821004  0.50931047  1
  In  In38  1  0.17305117  0.50300297  0.33788298  1
  In  In39  1  0.19551598  0.12032579  0.00090775  1
  In  In40  1  0.66626156  0.68886486  0.65441460  1
  In  In41  1  0.64595489  -0.00883244  -0.01597483  1
  In  In42  1  0.18015064  0.68487244  0.18088819  1
  In  In43  1  0.84209071  0.01522186  0.16464242  1
  In  In44  1  0.66082782  0.48913120  0.81327819  1
  In  In45  1  0.83899935  0.49907674  0.66010293  1
  In  In46  1  0.66703189  0.48642215  0.15107454  1
  In  In47  1  0.00770045  0.66213463  0.64454396  1
  In  In48  1  0.17090844  0.66010562  0.50945631  1
  In  In49  1  0.84291656  0.83693570  0.36382261  1
  In  In50  1  0.84245815  0.16503722  0.00579554  1
  In  In51  1  0.17978323  0.15730428  0.66124189  1
  In  In52  1  0.02680187  0.00455157  -0.00782273  1
  In  In53  1  -0.00198480  0.48251501  0.18433266  1
  In  In54  1  0.83961799  -0.00613062  0.52214954  1
  In  In55  1  0.83604692  0.65870378  0.50306154  1
  In  In56  1  0.49931638  0.48502197  0.66356673  1
  In  In57  1  0.16560890  0.32006641  0.80709803  1
  In  In58  1  0.18739845  0.00032495  0.16178245  1
  In  In59  1  0.18019623  0.00786634  0.51003946  1
  In  In60  1  0.33469118  0.68914520  -0.00782032  1
  In  In61  1  0.17783844  0.84774123  0.34597870  1
  In  In62  1  0.01135554  0.14456552  0.51661101  1
  In  In63  1  0.48035004  0.32605403  0.80344416  1
  In  In64  1  0.48837450  0.52950920  -0.01094311  1
  In  In65  1  0.49604365  0.69816505  0.49116944  1
  In  In66  1  0.30701546  0.33379772  0.35299733  1
  In  In67  1  0.49412004  0.33410196  0.15913493  1
  In  In68  1  0.33742580  0.15191032  0.17890773  1
  In  In69  1  0.65948292  0.16044883  0.50205727  1
  In  In70  1  0.18627838  0.84065143  0.67623743  1
  In  In71  1  0.82111137  0.66403414  0.83229186  1
  Te  Te72  1  0.07905932  0.09767009  0.09777460  1
  Te  Te73  1  0.09748165  0.08489144  0.41275202  1
  Te  Te74  1  0.08743864  0.08027123  0.75643934  1
  Te  Te75  1  0.09097531  0.41693021  0.08088942  1
  Te  Te76  1  0.08750846  0.43293236  0.43532104  1
  Te  Te77  1  0.08837249  0.42368403  0.73744176  1
  Te  Te78  1  0.12133172  0.77511960  0.07157488  1
  Te  Te79  1  0.08491567  0.74675073  0.41767669  1
  Te  Te80  1  0.07670828  0.75494372  0.74733485  1
  Te  Te81  1  0.40797873  0.07109487  0.07129800  1
  Te  Te82  1  0.39174935  0.06454793  0.39989147  1
  Te  Te83  1  0.39533120  0.12794152  0.71562235  1
  Te  Te84  1  0.41348139  0.44663780  0.09470774  1
  Te  Te85  1  0.41263626  0.40832184  0.43714033  1
  Te  Te86  1  0.38888237  0.41460470  0.73020593  1
  Te  Te87  1  0.40080391  0.77610597  0.09656388  1
  Te  Te88  1  0.40255395  0.76283244  0.39550241  1
  Te  Te89  1  0.41166309  0.78283829  0.73669614  1
  Te  Te90  1  0.73698227  0.07782257  0.07527829  1
  Te  Te91  1  0.75075196  0.07580788  0.41240354  1
  Te  Te92  1  0.75858236  0.07015002  0.75145673  1
  Te  Te93  1  0.77129780  0.39233415  0.09081413  1
  Te  Te94  1  0.73895089  0.42393680  0.41830981  1
  Te  Te95  1  0.76952116  0.40211237  0.75655326  1
  Te  Te96  1  0.73228648  0.75120520  0.07479948  1
  Te  Te97  1  0.73638352  0.75805748  0.43904843  1
  Te  Te98  1  0.75773384  0.77074735  0.74600715  1
  Te  Te99  1  0.10142480  0.22417845  0.28277576  1
  Te  Te100  1  0.10410427  0.25684683  0.56687100  1
  Te  Te101  1  0.10945895  0.23406790  0.92505042  1
  Te  Te102  1  0.08009010  0.59118145  0.25162063  1
  Te  Te103  1  0.10719487  0.56032339  0.60013439  1
  Te  Te104  1  0.07263926  0.57835928  0.90619478  1
  Te  Te105  1  0.08431710  0.92184691  0.24991479  1
  Te  Te106  1  0.08576169  0.92811774  0.60121963  1
  Te  Te107  1  0.09588864  0.89990078  0.90762857  1
  Te  Te108  1  0.41498068  0.25665669  0.26375457  1
  Te  Te109  1  0.38898221  0.22317828  0.60626191  1
  Te  Te110  1  0.41194575  0.24113332  0.91076545  1
  Te  Te111  1  0.39477855  0.58451192  0.24972304  1
  Te  Te112  1  0.41791515  0.59056381  0.58487510  1
  Te  Te113  1  0.39044355  0.58051641  0.88778121  1
  Te  Te114  1  0.37020740  0.90962160  0.21339626  1
  Te  Te115  1  0.40145904  0.90196638  0.61267571  1
  Te  Te116  1  0.37983063  0.96198429  0.96025308  1
  Te  Te117  1  0.73418133  0.22916113  0.23750975  1
  Te  Te118  1  0.75953786  0.22161165  0.59875329  1
  Te  Te119  1  0.76597568  0.25328004  0.90635610  1
  Te  Te120  1  0.76202385  0.57310781  0.24680576  1
  Te  Te121  1  0.73336121  0.57332431  0.58014467  1
  Te  Te122  1  0.74515328  0.56976078  0.92913984  1
  Te  Te123  1  0.76246977  0.90951338  0.25272834  1
  Te  Te124  1  0.73234553  0.90770679  0.57282503  1
  Te  Te125  1  0.74468206  0.92201179  0.89004895  1
  Te  Te126  1  0.25812857  0.25099113  0.08244347  1
  Te  Te127  1  0.24625675  0.25221208  0.45981243  1
  Te  Te128  1  0.27601238  0.22878170  0.75612785  1
  Te  Te129  1  0.25659294  0.59319049  0.08334593  1
  Te  Te130  1  0.26999878  0.59169716  0.41529380  1
  Te  Te131  1  0.23199321  0.57964183  0.73207178  1
  Te  Te132  1  0.28468571  0.92068659  0.07913520  1
  Te  Te133  1  0.27467418  0.92731808  0.42708857  1
  Te  Te134  1  0.29029492  0.94595595  0.71487452  1
  Te  Te135  1  0.58600701  0.23561004  0.08779789  1
  Te  Te136  1  0.55926628  0.25321795  0.43404515  1
  Te  Te137  1  0.58279553  0.23395281  0.74116764  1
  Te  Te138  1  0.58744430  0.59893724  0.08363874  1
  Te  Te139  1  0.57825123  0.58131904  0.43201699  1
  Te  Te140  1  0.57915993  0.60253919  0.75513183  1
  Te  Te141  1  0.55533465  0.92960090  0.08441898  1
  Te  Te142  1  0.57163531  0.91120388  0.42621206  1
  Te  Te143  1  0.55161109  0.93002189  0.74971576  1
  Te  Te144  1  0.93004691  0.23654619  0.10097235  1
  Te  Te145  1  0.91471239  0.24355589  0.43626855  1
  Te  Te146  1  0.90681721  0.23956185  0.74265038  1
  Te  Te147  1  0.91766484  0.57966715  0.08455238  1
  Te  Te148  1  0.94132035  0.58819016  0.42777511  1
  Te  Te149  1  0.92321012  0.58520654  0.75239897  1
  Te  Te150  1  0.92337417  0.90578987  0.08003260  1
  Te  Te151  1  0.93904641  0.94188662  0.41699919  1
  Te  Te152  1  0.90119283  0.95737722  0.72565603  1
  Te  Te153  1  0.24328759  0.08542174  0.27108797  1
  Te  Te154  1  0.29352595  0.09810351  0.57630219  1
  Te  Te155  1  0.29476343  0.07141583  0.89531410  1
  Te  Te156  1  0.25716671  0.42340111  0.23850032  1
  Te  Te157  1  0.25134956  0.35917011  0.56826363  1
  Te  Te158  1  0.25600933  0.41209360  0.89859918  1
  Te  Te159  1  0.27417985  0.76320501  0.26557054  1
  Te  Te160  1  0.26031681  0.77081702  0.56187996  1
  Te  Te161  1  0.27170772  0.77649686  0.89082046  1
  Te  Te162  1  0.56409666  0.07048605  0.22715161  1
  Te  Te163  1  0.55865964  0.08446673  0.58496708  1
  Te  Te164  1  0.55520674  0.05586324  0.87611941  1
  Te  Te165  1  0.58240312  0.41591018  0.25760425  1
  Te  Te166  1  0.58386336  0.40690086  0.57275766  1
  Te  Te167  1  0.57049809  0.41338168  0.91926744  1
  Te  Te168  1  0.58315170  0.75349724  0.26702420  1
  Te  Te169  1  0.56430905  0.77727256  0.59555795  1
  Te  Te170  1  0.53411033  0.79561020  0.93566231  1
  Te  Te171  1  0.93728585  0.07940353  0.25539526  1
  Te  Te172  1  0.92635857  0.07188788  0.61853285  1
  Te  Te173  1  0.91163452  0.06419754  0.91389771  1
  Te  Te174  1  0.90948642  0.38310180  0.25668683  1
  Te  Te175  1  0.93007154  0.41812772  0.57097214  1
  Te  Te176  1  0.93982606  0.40469400  0.88955968  1
  Te  Te177  1  0.92529050  0.74134756  0.27572622  1
  Te  Te178  1  0.90344415  0.76233612  0.59455617  1
  Te  Te179  1  0.92424578  0.74805287  0.91705087  1
