# generated using pymatgen
data_In2Te3
_symmetry_space_group_name_H-M   'P 1'
_cell_length_a   18.91408529
_cell_length_b   18.89914910
_cell_length_c   18.91320330
_cell_angle_alpha   90.02524706
_cell_angle_beta   90.20126316
_cell_angle_gamma   89.83023885
_symmetry_Int_Tables_number   1
_chemical_formula_structural   In2Te3
_chemical_formula_sum   'In72 Te108'
_cell_volume   6760.64387279
_cell_formula_units_Z   36
loop_
 _symmetry_equiv_pos_site_id
 _symmetry_equiv_pos_as_xyz
  1  'x, y, z'
loop_
 _atom_site_type_symbol
 _atom_site_label
 _atom_site_symmetry_multiplicity
 _atom_site_fract_x
 _atom_site_fract_y
 _atom_site_fract_z
 _atom_site_occupancy
  In  In0  1  0.36792264  0.31345622  0.01049923  1
  In  In1  1  0.81044021  0.15067846  -0.01349344  1
  In  In2  1  0.66342725  0.63468247  0.32868309  1
  In  In3  1  0.16878870  0.69845566  0.17731939  1
  In  In4  1  0.51630460  0.00110566  0.51602129  1
  In  In5  1  0.63449686  0.46432259  0.48845621  1
  In  In6  1  0.66447677  0.15886238  0.17426544  1
  In  In7  1  0.79091054  0.85551850  -0.03396093  1
  In  In8  1  0.34928576  0.63737249  0.64923867  1
  In  In9  1  -0.01230134  0.68447862  0.31795204  1
  In  In10  1  0.16818297  0.65800084  0.49060157  1
  In  In11  1  -0.02561076  0.00823926  0.03541666  1
  In  In12  1  0.16642594  0.83756112  0.68965055  1
  In  In13  1  0.15031506  0.16696071  0.00607560  1
  In  In14  1  0.51026644  0.66435106  0.83163060  1
  In  In15  1  -0.01695688  0.01377894  0.66662803  1
  In  In16  1  0.80951251  -0.00172753  0.51129428  1
  In  In17  1  0.19680225  0.47390865  0.00462730  1
  In  In18  1  0.34147226  0.01564746  0.33261728  1
  In  In19  1  0.18410775  0.32397268  0.50794223  1
  In  In20  1  0.84791355  0.17353912  0.34856749  1
  In  In21  1  0.17365567  0.01001767  0.48394238  1
  In  In22  1  0.33126006  0.83725298  0.81964059  1
  In  In23  1  -0.02558642  0.35099733  -0.00170308  1
  In  In24  1  0.63716296  0.19356000  0.48792338  1
  In  In25  1  0.51512245  0.83808895  -0.01210811  1
  In  In26  1  0.16663805  0.52677689  0.66123859  1
  In  In27  1  0.66643761  0.84339189  0.50576504  1
  In  In28  1  0.51137835  0.01974048  0.18129561  1
  In  In29  1  0.17831504  0.36206329  0.81090136  1
  In  In30  1  0.02088107  -0.00788381  0.32629570  1
  In  In31  1  0.67119335  0.50348252  0.14950924  1
  In  In32  1  0.83719338  0.49890950  0.00193981  1
  In  In33  1  0.79538003  0.16099712  0.67802845  1
  In  In34  1  0.34730782  0.14872881  0.83842066  1
  In  In35  1  0.32614484  0.48386466  0.16455981  1
  In  In36  1  0.50079967  0.64657767  0.17479712  1
  In  In37  1  0.17288784  0.48554536  0.35438547  1
  In  In38  1  0.84059939  0.67235991  0.50271035  1
  In  In39  1  -0.00147032  0.85101962  0.83569864  1
  In  In40  1  0.33903961  0.85655253  0.50709469  1
  In  In41  1  0.13152448  0.31814539  0.19669196  1
  In  In42  1  0.49637550  0.82959832  0.36227404  1
  In  In43  1  0.82655081  0.85333108  0.32493820  1
  In  In44  1  0.68222819  0.48868244  0.80305861  1
  In  In45  1  -0.00647283  0.18551990  0.20538101  1
  In  In46  1  0.83792735  0.35222905  0.17663198  1
  In  In47  1  0.82190718  0.48751440  0.35658807  1
  In  In48  1  0.35894568  0.33712714  0.67861708  1
  In  In49  1  0.82355735  0.66529838  0.82753909  1
  In  In50  1  0.53757345  -0.00924077  0.78220342  1
  In  In51  1  0.04340631  0.68174706  0.00647758  1
  In  In52  1  0.32281743  0.18063377  0.18880632  1
  In  In53  1  0.84750731  0.47911175  0.61624761  1
  In  In54  1  0.35576435  0.66553380  -0.01937212  1
  In  In55  1  -0.00241611  0.81271101  0.52021830  1
  In  In56  1  0.18069593  0.14498953  0.64703320  1
  In  In57  1  0.34359532  -0.04864471  0.02273996  1
  In  In58  1  0.47525996  0.45524219  0.35564719  1
  In  In59  1  0.67214047  0.68902881  0.63869029  1
  In  In60  1  0.01011837  0.51469811  0.79865597  1
  In  In61  1  0.67082872  0.84335982  0.15443120  1
  In  In62  1  0.17039560  0.66614920  0.81561789  1
  In  In63  1  0.18059290  -0.01549562  0.83658336  1
  In  In64  1  0.50633090  0.33839162  0.17568853  1
  In  In65  1  0.31028731  0.81947278  0.18389789  1
  In  In66  1  0.81075831  0.32027273  0.80890388  1
  In  In67  1  -0.02667031  0.51217419  0.18484178  1
  In  In68  1  0.50731959  0.14348277  -0.01037546  1
  In  In69  1  0.17943281  0.84253224  0.03735575  1
  In  In70  1  0.52447887  0.20169923  0.67815663  1
  In  In71  1  -0.01158434  0.18843450  0.83501978  1
  Te  Te72  1  0.07655420  0.09082711  0.11227621  1
  Te  Te73  1  0.06083612  0.08986792  0.42953210  1
  Te  Te74  1  0.08464308  0.08145266  0.76775990  1
  Te  Te75  1  0.07451725  0.42300667  0.09042022  1
  Te  Te76  1  0.08279357  0.42683645  0.45696193  1
  Te  Te77  1  0.07396202  0.40789866  0.71305655  1
  Te  Te78  1  0.05705214  0.79149538  0.12081173  1
  Te  Te79  1  0.08368447  0.75955961  0.40814070  1
  Te  Te80  1  0.06202774  0.74204551  0.74369400  1
  Te  Te81  1  0.40416574  0.08975221  0.08953763  1
  Te  Te82  1  0.41198959  0.08283185  0.44461869  1
  Te  Te83  1  0.43103222  0.08706234  0.73020644  1
  Te  Te84  1  0.43786390  0.43181707  0.07573219  1
  Te  Te85  1  0.39829055  0.35971935  0.44477822  1
  Te  Te86  1  0.46323363  0.43449227  0.72734548  1
  Te  Te87  1  0.41646660  0.75853109  0.08375594  1
  Te  Te88  1  0.39900920  0.74491977  0.43023422  1
  Te  Te89  1  0.41690993  0.74470522  0.73942664  1
  Te  Te90  1  0.74779605  0.06989721  0.09074648  1
  Te  Te91  1  0.73987962  0.09663415  0.42017340  1
  Te  Te92  1  0.73926530  0.08592629  0.79141235  1
  Te  Te93  1  0.74349823  0.39848736  0.06487507  1
  Te  Te94  1  0.73952636  0.38187904  0.42074277  1
  Te  Te95  1  0.74427198  0.39896664  0.69385147  1
  Te  Te96  1  0.73648606  0.75386565  0.05795938  1
  Te  Te97  1  0.74158790  0.74178799  0.40773013  1
  Te  Te98  1  0.73153891  0.76170238  0.75718019  1
  Te  Te99  1  0.08625615  0.23454326  0.31014989  1
  Te  Te100  1  0.08948394  0.22539454  0.56628538  1
  Te  Te101  1  0.09089962  0.27745094  0.91411892  1
  Te  Te102  1  0.09326866  0.58029743  0.24824851  1
  Te  Te103  1  0.06990838  0.60978263  0.58848613  1
  Te  Te104  1  0.09964631  0.56111214  0.91476574  1
  Te  Te105  1  0.07858885  0.88879307  0.24325904  1
  Te  Te106  1  0.08748321  0.92436510  0.58829234  1
  Te  Te107  1  0.08519033  0.92639326  0.94211418  1
  Te  Te108  1  0.43492783  0.24337310  0.26799727  1
  Te  Te109  1  0.42564907  0.25248223  0.57585925  1
  Te  Te110  1  0.44397074  0.25031110  0.89590611  1
  Te  Te111  1  0.41014050  0.56398329  0.26217109  1
  Te  Te112  1  0.43892860  0.52826817  0.59932493  1
  Te  Te113  1  0.43545953  0.56536893  0.91187281  1
  Te  Te114  1  0.42783532  0.91033331  0.24574774  1
  Te  Te115  1  0.44710917  0.89886346  0.59769330  1
  Te  Te116  1  0.42618130  0.93075805  0.89451124  1
  Te  Te117  1  0.75417656  0.25476027  0.25332219  1
  Te  Te118  1  0.72898715  0.25886505  0.58665018  1
  Te  Te119  1  0.72981751  0.25425334  0.91420505  1
  Te  Te120  1  0.77090714  0.57465611  0.23968585  1
  Te  Te121  1  0.73421865  0.56996272  0.55418675  1
  Te  Te122  1  0.73898272  0.57724779  0.91743783  1
  Te  Te123  1  0.72773837  0.93597486  0.25376532  1
  Te  Te124  1  0.72493586  0.92974982  0.61421441  1
  Te  Te125  1  0.72472491  0.96085943  0.88503954  1
  Te  Te126  1  0.24031253  0.26679155  0.08386296  1
  Te  Te127  1  0.27571301  0.28287336  0.39906834  1
  Te  Te128  1  0.25082736  0.23693644  0.75538737  1
  Te  Te129  1  0.25271777  0.59564886  0.08030792  1
  Te  Te130  1  0.26614756  0.56293753  0.43698550  1
  Te  Te131  1  0.27419224  0.57093003  0.76547221  1
  Te  Te132  1  0.23826027  0.94511886  0.13192076  1
  Te  Te133  1  0.24871176  0.91190471  0.39682732  1
  Te  Te134  1  0.27227721  0.94181779  0.72432178  1
  Te  Te135  1  0.57933260  0.24387062  0.07913937  1
  Te  Te136  1  0.55474149  0.24574160  0.37418764  1
  Te  Te137  1  0.60704945  0.26198377  0.79021276  1
  Te  Te138  1  0.58610389  0.59243698  0.06980879  1
  Te  Te139  1  0.55601352  0.57503714  0.41664524  1
  Te  Te140  1  0.59734914  0.59117153  0.72872587  1
  Te  Te141  1  0.58525050  0.94214528  0.07296071  1
  Te  Te142  1  0.59707009  0.93380531  0.40374813  1
  Te  Te143  1  0.62327607  0.88295620  0.72861097  1
  Te  Te144  1  0.91229631  0.24422650  0.08316416  1
  Te  Te145  1  0.88702548  0.29124000  0.42952032  1
  Te  Te146  1  0.91841534  0.25669371  0.72339841  1
  Te  Te147  1  0.92808056  0.59937872  0.07085927  1
  Te  Te148  1  0.92608313  0.58451865  0.41449432  1
  Te  Te149  1  0.89586969  0.57937391  0.72349340  1
  Te  Te150  1  0.88095114  0.90319099  0.07363310  1
  Te  Te151  1  0.91414513  0.91473058  0.43463587  1
  Te  Te152  1  0.90575515  0.91297020  0.74024716  1
  Te  Te153  1  0.23565202  0.10481435  0.27797770  1
  Te  Te154  1  0.28013505  0.08651922  0.55414160  1
  Te  Te155  1  0.25497200  0.07567329  0.93806703  1
  Te  Te156  1  0.25259812  0.39201392  0.26011875  1
  Te  Te157  1  0.25832334  0.42168458  0.60094914  1
  Te  Te158  1  0.28812939  0.40274235  0.90845376  1
  Te  Te159  1  0.26640245  0.72301272  0.28454006  1
  Te  Te160  1  0.24774872  0.74803276  0.59825742  1
  Te  Te161  1  0.23763982  0.76143311  0.91712838  1
  Te  Te162  1  0.57020984  0.11237212  0.28320490  1
  Te  Te163  1  0.60257197  0.09426208  0.59961360  1
  Te  Te164  1  0.60134337  0.07121532  0.89511140  1
  Te  Te165  1  0.59337600  0.43092113  0.25711954  1
  Te  Te166  1  0.54500471  0.41046202  0.59487684  1
  Te  Te167  1  0.58922974  0.39245789  0.86582003  1
  Te  Te168  1  0.58475210  0.74646578  0.25514267  1
  Te  Te169  1  0.56379025  0.75119960  0.55882182  1
  Te  Te170  1  0.60132652  0.75775896  0.90289751  1
  Te  Te171  1  0.90912515  0.06890931  0.25419801  1
  Te  Te172  1  0.89864810  0.10246216  0.57809184  1
  Te  Te173  1  0.91895072  0.07683572  0.90941588  1
  Te  Te174  1  0.93539772  0.40399708  0.28101477  1
  Te  Te175  1  0.93735011  0.40203436  0.52801290  1
  Te  Te176  1  0.90844231  0.42557969  0.88019318  1
  Te  Te177  1  0.88170088  0.74709638  0.23916327  1
  Te  Te178  1  0.88548270  0.76933387  0.60383716  1
  Te  Te179  1  0.93506275  0.73383596  0.91102958  1
