# generated using pymatgen
data_In2Te3
_symmetry_space_group_name_H-M   'P 1'
_cell_length_a   18.80342662
_cell_length_b   18.79417429
_cell_length_c   18.80870516
_cell_angle_alpha   89.95340302
_cell_angle_beta   89.96870808
_cell_angle_gamma   89.99416668
_symmetry_Int_Tables_number   1
_chemical_formula_structural   In2Te3
_chemical_formula_sum   'In72 Te108'
_cell_volume   6646.89682462
_cell_formula_units_Z   36
loop_
 _symmetry_equiv_pos_site_id
 _symmetry_equiv_pos_as_xyz
  1  'x, y, z'
loop_
 _atom_site_type_symbol
 _atom_site_label
 _atom_site_symmetry_multiplicity
 _atom_site_fract_x
 _atom_site_fract_y
 _atom_site_fract_z
 _atom_site_occupancy
  In  In0  1  0.85235780  0.67305316  0.19099462  1
  In  In1  1  -0.01180600  -0.01891319  0.01260201  1
  In  In2  1  0.35463295  -0.00346791  0.00036767  1
  In  In3  1  0.34745675  0.83257228  0.85222049  1
  In  In4  1  0.66472586  0.82975941  0.18210474  1
  In  In5  1  0.33572027  0.66946345  0.68991281  1
  In  In6  1  0.83460260  0.50392245  -0.00316434  1
  In  In7  1  0.49825757  0.83128410  0.00432924  1
  In  In8  1  -0.01887699  0.01526441  0.32032595  1
  In  In9  1  0.50423851  0.32235091  0.48853529  1
  In  In10  1  0.32135793  0.51739910  0.17207285  1
  In  In11  1  0.33988006  0.50163493  0.80996243  1
  In  In12  1  0.84660973  -0.00398107  0.47961584  1
  In  In13  1  0.83175138  0.82499139  0.66850270  1
  In  In14  1  0.32411225  0.83829371  0.18004289  1
  In  In15  1  -0.00277571  0.48433232  0.83936775  1
  In  In16  1  0.49735183  0.67416348  0.18048456  1
  In  In17  1  0.85791778  0.64973618  0.45244277  1
  In  In18  1  0.16334462  0.83011472  0.33235427  1
  In  In19  1  0.32802845  -0.00317076  0.30789986  1
  In  In20  1  0.48951595  0.51621093  -0.00018410  1
  In  In21  1  0.85436947  0.17214011  0.02425728  1
  In  In22  1  0.81807356  0.68380713  0.82714490  1
  In  In23  1  0.67681257  0.15904397  0.47629507  1
  In  In24  1  0.70678268  0.18077241  0.18375334  1
  In  In25  1  0.68679054  -0.01377537  0.34010292  1
  In  In26  1  0.19428106  0.80142099  0.68583800  1
  In  In27  1  0.16291292  0.66845172  0.48815156  1
  In  In28  1  0.52345946  0.18118530  0.68371875  1
  In  In29  1  0.15421692  0.32714168  0.83656922  1
  In  In30  1  0.17685995  0.01445839  0.18387664  1
  In  In31  1  0.18008811  0.65755049  0.83402242  1
  In  In32  1  0.48614217  0.01271234  0.16889527  1
  In  In33  1  0.14814734  0.49707139  0.02911893  1
  In  In34  1  0.31190295  0.17630321  0.47129244  1
  In  In35  1  0.18116234  -0.00142687  0.48358568  1
  In  In36  1  0.83565043  0.33428726  0.47892132  1
  In  In37  1  0.50479637  0.67219206  0.85715075  1
  In  In38  1  0.32461113  0.31223603  -0.01840024  1
  In  In39  1  0.81004547  0.85379154  0.00967270  1
  In  In40  1  0.32194340  0.50391405  0.49794181  1
  In  In41  1  0.83996128  0.48260994  0.64515753  1
  In  In42  1  0.02244456  0.69420615  0.04260386  1
  In  In43  1  -0.00436938  0.65062669  0.63395185  1
  In  In44  1  0.65732278  0.03161871  -0.02522618  1
  In  In45  1  0.68474931  0.81676493  0.49718469  1
  In  In46  1  0.15177185  0.49976490  0.33879062  1
  In  In47  1  0.65382462  0.50403428  0.49707675  1
  In  In48  1  -0.02057206  0.17274802  0.84003505  1
  In  In49  1  0.47932897  -0.03457454  0.52741016  1
  In  In50  1  0.49083258  0.47216406  0.67002711  1
  In  In51  1  0.47822761  0.68982905  0.46863480  1
  In  In52  1  0.65486052  0.67007414  0.65725193  1
  In  In53  1  0.35802406  0.15481127  0.82773597  1
  In  In54  1  0.02315543  0.85470654  0.47220490  1
  In  In55  1  0.64264812  -0.00535751  0.68904133  1
  In  In56  1  -0.00974910  0.45361268  0.19118266  1
  In  In57  1  -0.02052214  0.83857478  0.83668195  1
  In  In58  1  0.82783976  0.15961352  0.67442161  1
  In  In59  1  0.17892060  0.16993693  0.01452712  1
  In  In60  1  0.68496569  0.48896402  0.83868810  1
  In  In61  1  -0.00250749  -0.02135625  0.67027923  1
  In  In62  1  0.15967084  -0.03114839  0.83320143  1
  In  In63  1  0.15558921  0.16379870  0.64106959  1
  In  In64  1  0.66049380  0.33045448  0.00653234  1
  In  In65  1  0.67670261  0.50389717  0.17899471  1
  In  In66  1  0.84003316  0.33544769  0.82937650  1
  In  In67  1  0.33132051  0.34245683  0.34142408  1
  In  In68  1  0.01438798  0.18055847  0.47368781  1
  In  In69  1  0.50616213  0.17382640  0.34667651  1
  In  In70  1  0.51541628  0.34172160  0.16679228  1
  In  In71  1  0.32506631  0.34738454  0.65630336  1
  Te  Te72  1  0.07683650  0.08102527  0.08689526  1
  Te  Te73  1  0.09976993  0.08496746  0.38975093  1
  Te  Te74  1  0.08012624  0.08374959  0.75794482  1
  Te  Te75  1  0.08292643  0.38405792  0.09758416  1
  Te  Te76  1  0.03968982  0.43892437  0.41887790  1
  Te  Te77  1  0.08195343  0.41440468  0.74223167  1
  Te  Te78  1  0.10229424  0.76213393  0.14453833  1
  Te  Te79  1  0.06073714  0.72807756  0.38930601  1
  Te  Te80  1  0.06077352  0.74740173  0.74409663  1
  Te  Te81  1  0.40161326  0.10350207  0.08988998  1
  Te  Te82  1  0.41936599  0.07010087  0.41917535  1
  Te  Te83  1  0.43337952  0.07245989  0.73070203  1
  Te  Te84  1  0.40799399  0.41370964  0.07839360  1
  Te  Te85  1  0.43047220  0.43243480  0.41459223  1
  Te  Te86  1  0.42384498  0.37937876  0.77069075  1
  Te  Te87  1  0.40175470  0.74625053  0.08327669  1
  Te  Te88  1  0.38589200  0.78147999  0.40459007  1
  Te  Te89  1  0.44082036  0.76244246  0.75173926  1
  Te  Te90  1  0.75759797  0.07360726  0.08863022  1
  Te  Te91  1  0.78394732  0.09939884  0.38665047  1
  Te  Te92  1  0.73224274  0.08992977  0.76496161  1
  Te  Te93  1  0.76055634  0.40844075  0.09077510  1
  Te  Te94  1  0.76567485  0.45045110  0.41228529  1
  Te  Te95  1  0.74284469  0.39993058  0.72979015  1
  Te  Te96  1  0.75177156  0.73862445  0.09538363  1
  Te  Te97  1  0.75485440  0.73865564  0.39138192  1
  Te  Te98  1  0.71651058  0.77199685  0.75443133  1
  Te  Te99  1  0.03429911  0.21977465  0.22086523  1
  Te  Te100  1  0.08060142  0.26918189  0.57294661  1
  Te  Te101  1  0.07005145  0.24810451  0.93646220  1
  Te  Te102  1  0.05931696  0.57665294  0.24621621  1
  Te  Te103  1  0.09728987  0.56472185  0.57247337  1
  Te  Te104  1  0.07088204  0.59264441  0.91971715  1
  Te  Te105  1  0.07431515  0.91731912  0.24365190  1
  Te  Te106  1  0.10854982  0.90729430  0.59210427  1
  Te  Te107  1  0.08519980  0.88673787  0.93657687  1
  Te  Te108  1  0.41928104  0.25432099  0.25249549  1
  Te  Te109  1  0.41293709  0.23995920  0.57852438  1
  Te  Te110  1  0.43730370  0.22581540  0.93331847  1
  Te  Te111  1  0.41670900  0.58117093  0.26332668  1
  Te  Te112  1  0.42222005  0.58067794  0.58879036  1
  Te  Te113  1  0.38749671  0.59704836  0.91933790  1
  Te  Te114  1  0.43925270  0.89969353  0.25933249  1
  Te  Te115  1  0.37191136  0.90875209  0.60751359  1
  Te  Te116  1  0.45430168  0.94158666  0.89589654  1
  Te  Te117  1  0.76904628  0.30001951  0.24301702  1
  Te  Te118  1  0.75001618  0.24695071  0.57747458  1
  Te  Te119  1  0.76163246  0.24773222  0.92677286  1
  Te  Te120  1  0.76939317  0.57695492  0.27023589  1
  Te  Te121  1  0.76462074  0.60019712  0.57738434  1
  Te  Te122  1  0.73744237  0.59939129  0.92817518  1
  Te  Te123  1  0.76783691  0.92602841  0.23171530  1
  Te  Te124  1  0.75198376  0.93371421  0.58276144  1
  Te  Te125  1  0.72430750  0.91773165  0.90814607  1
  Te  Te126  1  0.25166033  0.26401590  0.10067063  1
  Te  Te127  1  0.21755801  0.26974366  0.40624576  1
  Te  Te128  1  0.24821962  0.24154039  0.74872572  1
  Te  Te129  1  0.23916648  0.59970980  0.08053377  1
  Te  Te130  1  0.25904185  0.59493984  0.39334261  1
  Te  Te131  1  0.22904328  0.56320059  0.72392369  1
  Te  Te132  1  0.24720832  0.92395352  0.07977474  1
  Te  Te133  1  0.27524099  0.89339342  0.41908438  1
  Te  Te134  1  0.27414746  0.92279915  0.74178661  1
  Te  Te135  1  0.59019831  0.22840300  0.09483977  1
  Te  Te136  1  0.61330364  0.27216870  0.39401951  1
  Te  Te137  1  0.62059764  0.22021835  0.78860410  1
  Te  Te138  1  0.58705347  0.59080769  0.08638365  1
  Te  Te139  1  0.58378905  0.60353905  0.41303244  1
  Te  Te140  1  0.57951557  0.57381218  0.75190438  1
  Te  Te141  1  0.58493169  0.93047220  0.08485035  1
  Te  Te142  1  0.58664804  0.91234030  0.42583326  1
  Te  Te143  1  0.54314022  0.92020701  0.76646447  1
  Te  Te144  1  0.91855869  0.25895359  0.13319094  1
  Te  Te145  1  0.92690317  0.26027221  0.38324240  1
  Te  Te146  1  0.92873686  0.26242605  0.72777325  1
  Te  Te147  1  0.93116507  0.57506437  0.09042475  1
  Te  Te148  1  0.96897345  0.56813358  0.38344231  1
  Te  Te149  1  0.90402400  0.58170558  0.75208739  1
  Te  Te150  1  0.90691097  0.90364062  0.10942822  1
  Te  Te151  1  0.89904450  0.88995215  0.38101064  1
  Te  Te152  1  0.88587140  0.93409864  0.76318981  1
  Te  Te153  1  0.25657017  0.11554464  0.25716010  1
  Te  Te154  1  0.26608427  0.07887883  0.58160907  1
  Te  Te155  1  0.24328881  0.07401383  0.90969999  1
  Te  Te156  1  0.23512525  0.41284318  0.24461950  1
  Te  Te157  1  0.23516638  0.39439340  0.54890504  1
  Te  Te158  1  0.24195590  0.43104230  0.91333742  1
  Te  Te159  1  0.22928295  0.73394021  0.23501722  1
  Te  Te160  1  0.27211434  0.74182462  0.57038582  1
  Te  Te161  1  0.23923314  0.75986614  0.92193352  1
  Te  Te162  1  0.59342066  0.08436168  0.25663983  1
  Te  Te163  1  0.58258147  0.08362285  0.56869833  1
  Te  Te164  1  0.56796591  0.12034579  0.89267376  1
  Te  Te165  1  0.58182371  0.42800585  0.26455677  1
  Te  Te166  1  0.59383573  0.39526185  0.58923505  1
  Te  Te167  1  0.57377683  0.41784309  0.91570196  1
  Te  Te168  1  0.58920019  0.74356055  0.27540945  1
  Te  Te169  1  0.56649573  0.76394955  0.57828831  1
  Te  Te170  1  0.60111896  0.74999254  0.93561551  1
  Te  Te171  1  0.92431047  0.11604366  0.22456448  1
  Te  Te172  1  0.93360828  0.08228107  0.57571555  1
  Te  Te173  1  0.90284302  0.06846523  0.91941512  1
  Te  Te174  1  0.88075215  0.40326268  0.28122669  1
  Te  Te175  1  0.93764120  0.42015506  0.55366867  1
  Te  Te176  1  0.92635458  0.39540237  0.94064006  1
  Te  Te177  1  0.91703223  0.75852118  0.29380408  1
  Te  Te178  1  0.92214366  0.76404441  0.56168976  1
  Te  Te179  1  0.91105938  0.74191349  0.93442957  1
