# generated using pymatgen
data_In2Te3
_symmetry_space_group_name_H-M   'P 1'
_cell_length_a   18.78771821
_cell_length_b   18.79237514
_cell_length_c   18.79287287
_cell_angle_alpha   90.07815778
_cell_angle_beta   90.00146075
_cell_angle_gamma   90.05926506
_symmetry_Int_Tables_number   1
_chemical_formula_structural   In2Te3
_chemical_formula_sum   'In72 Te108'
_cell_volume   6635.11188282
_cell_formula_units_Z   36
loop_
 _symmetry_equiv_pos_site_id
 _symmetry_equiv_pos_as_xyz
  1  'x, y, z'
loop_
 _atom_site_type_symbol
 _atom_site_label
 _atom_site_symmetry_multiplicity
 _atom_site_fract_x
 _atom_site_fract_y
 _atom_site_fract_z
 _atom_site_occupancy
  In  In0  1  0.81213935  0.84259685  0.31564136  1
  In  In1  1  0.34087060  0.14952806  0.15683406  1
  In  In2  1  0.49450809  -0.02177995  0.82759206  1
  In  In3  1  0.65082214  0.34167598  0.66260903  1
  In  In4  1  -0.01303895  0.49712500  0.19996091  1
  In  In5  1  0.80207629  0.15739778  0.04625993  1
  In  In6  1  -0.00098754  0.35504773  0.66340210  1
  In  In7  1  0.00588889  0.83030373  0.47487690  1
  In  In8  1  0.65358686  0.31413649  0.01028816  1
  In  In9  1  0.34236737  0.34789737  0.63912638  1
  In  In10  1  0.50124458  0.15142034  0.01012108  1
  In  In11  1  0.33426200  0.83193052  0.18630134  1
  In  In12  1  0.63564325  -0.00467314  0.65572863  1
  In  In13  1  0.65662495  -0.00452654  0.32701071  1
  In  In14  1  0.32263711  0.67961495  -0.00946249  1
  In  In15  1  0.50738568  0.49956761  0.01043177  1
  In  In16  1  0.63559563  0.18790863  0.84024354  1
  In  In17  1  0.49169794  0.34134942  0.82145306  1
  In  In18  1  0.83474060  0.15255822  0.65942727  1
  In  In19  1  0.49872603  0.15716860  0.34652395  1
  In  In20  1  -0.00112729  0.34676818  0.33855279  1
  In  In21  1  -0.00083637  0.01224136  0.67215365  1
  In  In22  1  -0.03310343  0.16578879  0.16846511  1
  In  In23  1  0.35270715  0.14935534  0.83016856  1
  In  In24  1  0.83228403  0.35122004  0.47385526  1
  In  In25  1  0.02507636  0.67245260  -0.00078138  1
  In  In26  1  0.17559321  0.16819847  0.64513781  1
  In  In27  1  0.16348162  0.15202955  -0.01182326  1
  In  In28  1  0.82240462  0.35660121  0.81997478  1
  In  In29  1  -0.00223808  0.83724269  0.14200222  1
  In  In30  1  0.16555970  0.49838745  0.00052186  1
  In  In31  1  0.49305507  0.83326090  0.33256149  1
  In  In32  1  0.19376754  0.52484043  0.36338124  1
  In  In33  1  0.83068871  0.66667223  0.82334685  1
  In  In34  1  0.36173336  0.49924944  0.16525602  1
  In  In35  1  0.18067619  0.54394701  0.63175780  1
  In  In36  1  0.18918543  0.81855379  0.66706481  1
  In  In37  1  0.81474167  -0.00136771  0.84693851  1
  In  In38  1  0.66272592  0.50339304  0.48480463  1
  In  In39  1  0.17014465  -0.00856512  0.17518676  1
  In  In40  1  0.36122481  0.82637723  0.50792393  1
  In  In41  1  -0.00432190  0.15647523  0.85229354  1
  In  In42  1  0.17078535  0.33756899  0.16392474  1
  In  In43  1  -0.01716139  0.01209364  0.31119317  1
  In  In44  1  0.47590605  0.67689932  0.81256906  1
  In  In45  1  0.16693366  0.33390695  0.83956852  1
  In  In46  1  0.64636352  0.66219123  0.00341485  1
  In  In47  1  0.36390178  0.35772690  0.36326050  1
  In  In48  1  0.51521062  0.86032184  0.01263215  1
  In  In49  1  0.81598736  0.49184971  0.01952123  1
  In  In50  1  -0.00550373  0.51609604  0.84904663  1
  In  In51  1  0.66153894  0.16374951  0.48952914  1
  In  In52  1  0.00363073  0.64740631  0.35244112  1
  In  In53  1  0.86392066  0.66300440  0.48499374  1
  In  In54  1  0.83333953  0.47788094  0.65788736  1
  In  In55  1  0.18115483  -0.00477672  0.49073929  1
  In  In56  1  0.82262222  0.66418826  0.18179135  1
  In  In57  1  0.16768303  0.83092732  -0.01424666  1
  In  In58  1  0.34023525  0.16732977  0.48803928  1
  In  In59  1  0.18088459  -0.03671521  0.83426357  1
  In  In60  1  0.18775988  0.16557251  0.33375184  1
  In  In61  1  0.17870442  0.79397996  0.34693681  1
  In  In62  1  -0.00742150  0.18804086  0.50978544  1
  In  In63  1  0.65634933  0.65280747  0.33690871  1
  In  In64  1  0.64989289  0.67084378  0.66769719  1
  In  In65  1  0.30750202  0.49765651  0.81195749  1
  In  In66  1  0.81007218  0.82480738  0.64336780  1
  In  In67  1  0.64222493  0.82873272  0.51588056  1
  In  In68  1  0.01965351  0.83397836  0.82229235  1
  In  In69  1  0.50482619  0.66013872  0.18684804  1
  In  In70  1  0.52757976  0.33990346  0.19863901  1
  In  In71  1  0.82709331  0.85586329  0.00896412  1
  Te  Te72  1  0.07945221  0.08355309  0.09570189  1
  Te  Te73  1  0.08208243  0.08847913  0.41798048  1
  Te  Te74  1  0.10112735  0.09010563  0.76096049  1
  Te  Te75  1  0.06791503  0.42260569  0.09037556  1
  Te  Te76  1  0.08999027  0.43289824  0.41734623  1
  Te  Te77  1  0.09209938  0.43660525  0.75365470  1
  Te  Te78  1  0.11097203  0.74493223  0.10203555  1
  Te  Te79  1  0.10234909  0.70830057  0.45986700  1
  Te  Te80  1  0.08843309  0.73605492  0.73883232  1
  Te  Te81  1  0.42389212  0.04942298  0.08628017  1
  Te  Te82  1  0.41288548  0.05964261  0.41759092  1
  Te  Te83  1  0.43736318  0.07908890  0.73325736  1
  Te  Te84  1  0.43314417  0.38993047  0.08666490  1
  Te  Te85  1  0.43722263  0.44449587  0.46221093  1
  Te  Te86  1  0.42395446  0.44162681  0.72990438  1
  Te  Te87  1  0.42847556  0.74354464  0.08384877  1
  Te  Te88  1  0.41467093  0.72873997  0.40490010  1
  Te  Te89  1  0.43390901  0.77864987  0.70292970  1
  Te  Te90  1  0.71631421  0.04691536  0.09138138  1
  Te  Te91  1  0.75097365  0.08926682  0.39762723  1
  Te  Te92  1  0.73192318  0.08989676  0.75056087  1
  Te  Te93  1  0.73207688  0.40189518  0.10709707  1
  Te  Te94  1  0.71221352  0.38564326  0.38566060  1
  Te  Te95  1  0.71867091  0.44525234  0.75423103  1
  Te  Te96  1  0.74319004  0.74872625  0.08504665  1
  Te  Te97  1  0.75050704  0.75418733  0.42553744  1
  Te  Te98  1  0.73247231  0.76392539  0.75981469  1
  Te  Te99  1  0.08468436  0.24181684  0.25019430  1
  Te  Te100  1  0.09786863  0.27766078  0.57300516  1
  Te  Te101  1  0.07094193  0.26214118  0.93381092  1
  Te  Te102  1  0.09936932  0.58560535  0.25137391  1
  Te  Te103  1  0.06374823  0.59506807  0.55830248  1
  Te  Te104  1  0.11333025  0.59966617  0.89837379  1
  Te  Te105  1  0.08668139  0.90320683  0.26991022  1
  Te  Te106  1  0.08458754  0.91753677  0.58422792  1
  Te  Te107  1  0.06419440  0.93002407  0.93093115  1
  Te  Te108  1  0.40206917  0.25347465  0.25347545  1
  Te  Te109  1  0.43017919  0.25150471  0.57014070  1
  Te  Te110  1  0.42135388  0.25024149  0.92212713  1
  Te  Te111  1  0.43166482  0.56722146  0.27514409  1
  Te  Te112  1  0.40127575  0.56604024  0.54702799  1
  Te  Te113  1  0.40959772  0.57232859  0.91764470  1
  Te  Te114  1  0.43765270  0.92746701  0.23119442  1
  Te  Te115  1  0.42659209  0.90403934  0.61880797  1
  Te  Te116  1  0.40741046  0.90493697  0.92246844  1
  Te  Te117  1  0.75105098  0.31391429  0.23792863  1
  Te  Te118  1  0.76386663  0.26700686  0.58750236  1
  Te  Te119  1  0.75861997  0.24790018  0.90907045  1
  Te  Te120  1  0.75919960  0.56444241  0.27129990  1
  Te  Te121  1  0.75605456  0.59263059  0.58105382  1
  Te  Te122  1  0.74467417  0.58109249  0.91709568  1
  Te  Te123  1  0.73840849  0.92679848  0.21469904  1
  Te  Te124  1  0.74457121  0.93482713  0.56440183  1
  Te  Te125  1  0.72458440  0.90492543  0.91539680  1
  Te  Te126  1  0.25188807  0.24371033  0.07453140  1
  Te  Te127  1  0.24881219  0.27112286  0.42257894  1
  Te  Te128  1  0.25969300  0.25330721  0.74855657  1
  Te  Te129  1  0.25704465  0.58257883  0.08953565  1
  Te  Te130  1  0.29207272  0.60502701  0.45473295  1
  Te  Te131  1  0.27736440  0.61160534  0.72304094  1
  Te  Te132  1  0.25762692  0.91265047  0.07933310  1
  Te  Te133  1  0.26728741  0.90270319  0.40743375  1
  Te  Te134  1  0.28037626  0.91575306  0.73508333  1
  Te  Te135  1  0.58925252  0.22303245  0.11420322  1
  Te  Te136  1  0.57971753  0.26264952  0.41407543  1
  Te  Te137  1  0.55401805  0.23996879  0.72343919  1
  Te  Te138  1  0.60040372  0.56502089  0.11154038  1
  Te  Te139  1  0.56656627  0.61288780  0.44883525  1
  Te  Te140  1  0.56849095  0.58005503  0.75107911  1
  Te  Te141  1  0.61397544  0.92714015  0.10015924  1
  Te  Te142  1  0.56444060  0.92718853  0.43070079  1
  Te  Te143  1  0.58576499  0.89051909  0.74641108  1
  Te  Te144  1  0.90420857  0.26033534  0.07458789  1
  Te  Te145  1  0.90375977  0.23897691  0.39875420  1
  Te  Te146  1  0.92563478  0.24619964  0.74595616  1
  Te  Te147  1  0.92366818  0.59167670  0.08165843  1
  Te  Te148  1  0.88608787  0.55771313  0.37997631  1
  Te  Te149  1  0.91952652  0.58195627  0.73370859  1
  Te  Te150  1  0.90723831  0.94310745  0.09794118  1
  Te  Te151  1  0.90408788  0.92264460  0.40970317  1
  Te  Te152  1  0.90487854  0.91567433  0.74514372  1
  Te  Te153  1  0.27250889  0.06188240  0.26457348  1
  Te  Te154  1  0.27096880  0.06549160  0.59125643  1
  Te  Te155  1  0.26452716  0.06152744  0.91899828  1
  Te  Te156  1  0.25587248  0.42089186  0.25957114  1
  Te  Te157  1  0.24069790  0.42576631  0.56625199  1
  Te  Te158  1  0.26623076  0.40755813  0.92983576  1
  Te  Te159  1  0.27074982  0.72005934  0.25851728  1
  Te  Te160  1  0.26695869  0.72773828  0.57551672  1
  Te  Te161  1  0.25275542  0.75918386  0.88807374  1
  Te  Te162  1  0.59166818  0.10201182  0.24365959  1
  Te  Te163  1  0.56141248  0.08769372  0.56820038  1
  Te  Te164  1  0.59045908  0.06903408  0.91857052  1
  Te  Te165  1  0.59387796  0.43081516  0.29277299  1
  Te  Te166  1  0.56785931  0.42258724  0.56890043  1
  Te  Te167  1  0.59057778  0.41474106  0.91368085  1
  Te  Te168  1  0.60063176  0.76232141  0.24794427  1
  Te  Te169  1  0.54073929  0.74464374  0.59088421  1
  Te  Te170  1  0.56560053  0.75103765  0.91190584  1
  Te  Te171  1  0.87100515  0.09559408  0.25874987  1
  Te  Te172  1  0.91097049  0.06747553  0.55970230  1
  Te  Te173  1  0.89930392  0.08295881  0.94140588  1
  Te  Te174  1  0.89059145  0.38520401  0.23672117  1
  Te  Te175  1  0.93473411  0.43571653  0.55091730  1
  Te  Te176  1  0.91417207  0.41447722  0.92874233  1
  Te  Te177  1  0.92941163  0.75208363  0.25831620  1
  Te  Te178  1  0.93187483  0.75456039  0.58911818  1
  Te  Te179  1  0.91889155  0.75049184  0.91989405  1
