# generated using pymatgen
data_In2Te3
_symmetry_space_group_name_H-M   'P 1'
_cell_length_a   18.80617784
_cell_length_b   18.80007213
_cell_length_c   18.80471770
_cell_angle_alpha   90.01164953
_cell_angle_beta   90.03018032
_cell_angle_gamma   89.97950188
_symmetry_Int_Tables_number   1
_chemical_formula_structural   In2Te3
_chemical_formula_sum   'In72 Te108'
_cell_volume   6648.54748951
_cell_formula_units_Z   36
loop_
 _symmetry_equiv_pos_site_id
 _symmetry_equiv_pos_as_xyz
  1  'x, y, z'
loop_
 _atom_site_type_symbol
 _atom_site_label
 _atom_site_symmetry_multiplicity
 _atom_site_fract_x
 _atom_site_fract_y
 _atom_site_fract_z
 _atom_site_occupancy
  In  In0  1  0.15508262  0.03795705  0.14467278  1
  In  In1  1  0.52970681  0.85002772  0.36039194  1
  In  In2  1  0.15746598  0.82982082  0.69707147  1
  In  In3  1  0.51462783  0.00210577  0.84397480  1
  In  In4  1  -0.00862616  0.80949023  0.51451990  1
  In  In5  1  0.13746082  0.38003733  0.11846868  1
  In  In6  1  0.00075260  0.33647110  0.33643923  1
  In  In7  1  0.33443109  0.34636860  -0.00300929  1
  In  In8  1  0.14260372  0.35570298  0.82744820  1
  In  In9  1  -0.02120023  0.85013323  0.16122778  1
  In  In10  1  -0.03677369  0.18640478  0.51727083  1
  In  In11  1  0.35239420  0.35793291  0.69585208  1
  In  In12  1  -0.01079756  0.81913213  0.81874973  1
  In  In13  1  0.83856425  0.33487632  0.14661050  1
  In  In14  1  0.34964171  0.16088589  0.16487128  1
  In  In15  1  0.16402043  0.81218539  -0.01154236  1
  In  In16  1  0.51509126  0.63679107  0.14823210  1
  In  In17  1  0.14503023  0.16111196  0.33054759  1
  In  In18  1  0.67639274  0.49901108  0.15371794  1
  In  In19  1  0.69136583  0.82481577  0.16097332  1
  In  In20  1  0.33676693  0.15613186  0.83659235  1
  In  In21  1  0.34032520  0.00717219  -0.00875720  1
  In  In22  1  0.83536813  0.66105329  0.16012354  1
  In  In23  1  0.12079932  0.80366201  0.35433339  1
  In  In24  1  0.83005187  0.83440901  0.32990872  1
  In  In25  1  0.52031482  0.82616686  -0.01200938  1
  In  In26  1  0.16230795  -0.01560065  0.50691587  1
  In  In27  1  0.35311718  -0.00944870  0.35924054  1
  In  In28  1  0.52138059  0.17179244  0.32237608  1
  In  In29  1  0.83235602  0.17355393  0.68609208  1
  In  In30  1  -0.02161820  0.18403803  0.15482560  1
  In  In31  1  0.66311157  0.65179505  0.32525636  1
  In  In32  1  0.68700694  0.00007895  -0.00833030  1
  In  In33  1  0.30992347  0.15460958  0.50414151  1
  In  In34  1  0.67235039  0.18163959  0.15019221  1
  In  In35  1  0.32516986  0.47458410  0.52376067  1
  In  In36  1  0.84469674  0.64115348  0.51060952  1
  In  In37  1  -0.01027416  0.32308850  0.68221549  1
  In  In38  1  -0.01667541  -0.00930000  0.32107318  1
  In  In39  1  0.16028680  0.50184126  0.33929416  1
  In  In40  1  0.83513048  0.00176100  0.14976649  1
  In  In41  1  0.52598634  0.48928407  0.31382770  1
  In  In42  1  0.30691385  0.66441028  0.66839771  1
  In  In43  1  0.84072995  0.52699229  0.68958210  1
  In  In44  1  0.49586288  0.65099095  0.48189912  1
  In  In45  1  0.67587298  0.84914423  0.51879429  1
  In  In46  1  0.14731017  0.65721959  0.84447055  1
  In  In47  1  0.52718885  0.50209938  -0.01654317  1
  In  In48  1  0.49593675  0.19353091  0.00666902  1
  In  In49  1  0.33626313  0.83418002  0.53620503  1
  In  In50  1  0.52160835  0.31694021  0.50912242  1
  In  In51  1  0.32428060  0.50382342  0.14471009  1
  In  In52  1  0.81104395  0.36934153  0.48449907  1
  In  In53  1  0.70218414  0.14419101  0.47800122  1
  In  In54  1  0.34258050  0.65878886  -0.02054989  1
  In  In55  1  0.69635519  0.67761436  0.69783041  1
  In  In56  1  -0.01267248  0.67146073  -0.00599097  1
  In  In57  1  0.16701674  0.38378983  0.50066173  1
  In  In58  1  0.68627831  0.00274298  0.67092290  1
  In  In59  1  0.15027879  -0.01135084  0.81898947  1
  In  In60  1  0.31122583  0.65365137  0.34843977  1
  In  In61  1  0.66723829  0.34406648  0.67759633  1
  In  In62  1  0.15214207  0.62141445  0.17852887  1
  In  In63  1  0.50955179  0.65878391  0.83560072  1
  In  In64  1  0.34932074  0.31827701  0.32451269  1
  In  In65  1  0.51891925  0.18427499  0.67732390  1
  In  In66  1  0.33573698  0.84141141  0.18303672  1
  In  In67  1  0.13104086  0.18069910  0.01834387  1
  In  In68  1  0.14627646  0.15936474  0.67339036  1
  In  In69  1  0.84867996  0.00906032  0.84102962  1
  In  In70  1  0.70239556  0.50255857  0.85376431  1
  In  In71  1  0.50432245  0.83534225  0.66103630  1
  Te  Te72  1  0.02862969  0.06273325  0.05983441  1
  Te  Te73  1  0.06631835  0.07726543  0.42962367  1
  Te  Te74  1  0.05617013  0.08733529  0.76429331  1
  Te  Te75  1  0.03492568  0.45019596  0.03999371  1
  Te  Te76  1  0.02709481  0.44689128  0.45344613  1
  Te  Te77  1  0.04032723  0.44565086  0.75712403  1
  Te  Te78  1  0.08002948  0.74313262  0.09647004  1
  Te  Te79  1  0.05111204  0.69270451  0.43284081  1
  Te  Te80  1  0.05983406  0.71397064  0.72897978  1
  Te  Te81  1  0.44203562  0.07082067  0.08402500  1
  Te  Te82  1  0.43104648  0.10049540  0.42781229  1
  Te  Te83  1  0.42803539  0.07868206  0.74296887  1
  Te  Te84  1  0.43637954  0.42438107  0.08277428  1
  Te  Te85  1  0.42041469  0.42147314  0.41210316  1
  Te  Te86  1  0.43433061  0.44205569  0.77998512  1
  Te  Te87  1  0.41442780  0.74523126  0.08454630  1
  Te  Te88  1  0.40803333  0.75627429  0.40816344  1
  Te  Te89  1  0.41798767  0.74136441  0.74432901  1
  Te  Te90  1  0.78223645  0.10647481  0.05024898  1
  Te  Te91  1  0.78416647  0.03923155  0.41857739  1
  Te  Te92  1  0.73548383  0.10005038  0.77664668  1
  Te  Te93  1  0.76147977  0.42716658  0.05072134  1
  Te  Te94  1  0.72948001  0.45130276  0.39466071  1
  Te  Te95  1  0.78147385  0.40408733  0.76182564  1
  Te  Te96  1  0.77355641  0.75437985  0.06031918  1
  Te  Te97  1  0.74380803  0.74275493  0.41837694  1
  Te  Te98  1  0.76799108  0.76852013  0.78970264  1
  Te  Te99  1  0.09066493  0.26297082  0.22768624  1
  Te  Te100  1  0.08861954  0.25821132  0.56945548  1
  Te  Te101  1  0.06569946  0.26345030  0.91572560  1
  Te  Te102  1  0.04665241  0.54338465  0.24918415  1
  Te  Te103  1  0.07408634  0.56632329  0.53349601  1
  Te  Te104  1  0.06725346  0.55920526  0.92935865  1
  Te  Te105  1  0.09479910  0.92191030  0.24320852  1
  Te  Te106  1  0.06843309  0.91201042  0.60060620  1
  Te  Te107  1  0.06743358  0.90585228  0.91939572  1
  Te  Te108  1  0.44700031  0.26360443  0.22183146  1
  Te  Te109  1  0.39857633  0.25559090  0.58244449  1
  Te  Te110  1  0.42014928  0.26853470  0.89694679  1
  Te  Te111  1  0.40998514  0.58329391  0.25561546  1
  Te  Te112  1  0.41393781  0.58137785  0.58981028  1
  Te  Te113  1  0.40384972  0.54886400  0.89125139  1
  Te  Te114  1  0.44099656  0.92574073  0.25305027  1
  Te  Te115  1  0.43825835  0.93238040  0.57000077  1
  Te  Te116  1  0.41489274  0.90426510  0.90756936  1
  Te  Te117  1  0.75582529  0.25939755  0.24472737  1
  Te  Te118  1  0.75079292  0.25428168  0.58088848  1
  Te  Te119  1  0.80887482  0.28230705  0.89343875  1
  Te  Te120  1  0.76912051  0.56354113  0.26127068  1
  Te  Te121  1  0.73436298  0.57322902  0.59045444  1
  Te  Te122  1  0.77497443  0.61645802  0.91082648  1
  Te  Te123  1  0.74330045  0.93373210  0.25318936  1
  Te  Te124  1  0.77742236  0.89875271  0.61433770  1
  Te  Te125  1  0.75035284  0.90662842  0.89342096  1
  Te  Te126  1  0.25381039  0.25198961  0.08899370  1
  Te  Te127  1  0.23971622  0.25975224  0.41466524  1
  Te  Te128  1  0.24487238  0.24720578  0.75419356  1
  Te  Te129  1  0.23194654  0.58124233  0.05272535  1
  Te  Te130  1  0.23223003  0.58187349  0.45480892  1
  Te  Te131  1  0.22608912  0.57207931  0.74995820  1
  Te  Te132  1  0.24882031  0.91678614  0.07858461  1
  Te  Te133  1  0.24172084  0.89831807  0.40875405  1
  Te  Te134  1  0.26145422  0.91928891  0.75244810  1
  Te  Te135  1  0.61229752  0.27469113  0.04926667  1
  Te  Te136  1  0.61555749  0.25616768  0.40848040  1
  Te  Te137  1  0.59255094  0.26185191  0.77704291  1
  Te  Te138  1  0.62274829  0.60275309  0.05106739  1
  Te  Te139  1  0.60482322  0.55094968  0.43206928  1
  Te  Te140  1  0.60164344  0.57173584  0.75273273  1
  Te  Te141  1  0.59538968  0.91699561  0.08355544  1
  Te  Te142  1  0.61592389  0.94987561  0.42592212  1
  Te  Te143  1  0.59692465  0.90913643  0.75593950  1
  Te  Te144  1  0.92709599  0.26930036  0.04229691  1
  Te  Te145  1  0.89038594  0.25776463  0.40593332  1
  Te  Te146  1  0.92161856  0.24098674  0.78968348  1
  Te  Te147  1  0.92173549  0.56681277  0.08076486  1
  Te  Te148  1  0.92764569  0.56456291  0.41687726  1
  Te  Te149  1  0.95784342  0.57864424  0.76260773  1
  Te  Te150  1  0.87935124  0.88929118  0.05896387  1
  Te  Te151  1  0.90523918  0.92109910  0.43260701  1
  Te  Te152  1  0.91728281  0.92192475  0.74016436  1
  Te  Te153  1  0.26335757  0.07895606  0.26074434  1
  Te  Te154  1  0.24780317  0.06202377  0.60700358  1
  Te  Te155  1  0.23024515  0.09311977  0.92920131  1
  Te  Te156  1  0.25206013  0.41615600  0.24811567  1
  Te  Te157  1  0.22918372  0.42852572  0.63557674  1
  Te  Te158  1  0.23460745  0.42397792  0.92086065  1
  Te  Te159  1  0.23666312  0.73967368  0.24658562  1
  Te  Te160  1  0.21852055  0.75149357  0.57748484  1
  Te  Te161  1  0.26224879  0.75292293  0.88953115  1
  Te  Te162  1  0.59799545  0.08376975  0.23340905  1
  Te  Te163  1  0.59925560  0.09483983  0.58425590  1
  Te  Te164  1  0.59215218  0.10227209  0.92517223  1
  Te  Te165  1  0.60802110  0.39603031  0.23589905  1
  Te  Te166  1  0.56787420  0.42235082  0.59913137  1
  Te  Te167  1  0.61078111  0.40037144  0.91527968  1
  Te  Te168  1  0.57660720  0.75009615  0.24492599  1
  Te  Te169  1  0.58529874  0.73355521  0.57793736  1
  Te  Te170  1  0.60895295  0.74648001  0.90233572  1
  Te  Te171  1  0.90086158  0.09881553  0.25538402  1
  Te  Te172  1  0.91027683  0.07968903  0.60129647  1
  Te  Te173  1  0.91338195  0.08399940  0.95249230  1
  Te  Te174  1  0.92738084  0.41961173  0.23799564  1
  Te  Te175  1  0.90252125  0.41612867  0.59649845  1
  Te  Te176  1  0.86348294  0.41181763  0.93137364  1
  Te  Te177  1  0.92577595  0.74206801  0.25624146  1
  Te  Te178  1  0.89370418  0.74416731  0.60483947  1
  Te  Te179  1  0.88747865  0.72120802  0.88485911  1
