# generated using pymatgen
data_In2Te3
_symmetry_space_group_name_H-M   'P 1'
_cell_length_a   19.08004655
_cell_length_b   19.03298157
_cell_length_c   19.01208859
_cell_angle_alpha   90.15662224
_cell_angle_beta   90.04436026
_cell_angle_gamma   89.99222084
_symmetry_Int_Tables_number   1
_chemical_formula_structural   In2Te3
_chemical_formula_sum   'In72 Te108'
_cell_volume   6904.21535887
_cell_formula_units_Z   36
loop_
 _symmetry_equiv_pos_site_id
 _symmetry_equiv_pos_as_xyz
  1  'x, y, z'
loop_
 _atom_site_type_symbol
 _atom_site_label
 _atom_site_symmetry_multiplicity
 _atom_site_fract_x
 _atom_site_fract_y
 _atom_site_fract_z
 _atom_site_occupancy
  In  In0  1  0.00690694  0.16330467  0.83280330  1
  In  In1  1  -0.01216680  0.01874569  0.32460356  1
  In  In2  1  0.83878787  0.50396138  0.66977754  1
  In  In3  1  0.48689335  0.30355697  0.51421463  1
  In  In4  1  0.82759710  0.31139844  0.14372703  1
  In  In5  1  0.49820323  0.50864834  0.33169107  1
  In  In6  1  0.17785149  0.83378766  -0.00862283  1
  In  In7  1  0.84406463  0.67700588  0.48836117  1
  In  In8  1  0.33332121  0.50073563  0.49971832  1
  In  In9  1  0.51517680  0.66438122  0.85078536  1
  In  In10  1  0.32067699  0.84253836  0.15258579  1
  In  In11  1  0.82814425  0.86310902  0.66670075  1
  In  In12  1  0.64831256  0.49350443  0.85393428  1
  In  In13  1  0.66790124  0.82811440  0.50806555  1
  In  In14  1  0.16796216  0.64972251  0.15066558  1
  In  In15  1  -0.00741531  0.41473405  0.47715307  1
  In  In16  1  0.13860787  0.64128813  0.51890857  1
  In  In17  1  0.15631574  0.84260687  0.32141769  1
  In  In18  1  0.35824348  0.00588943  0.68661163  1
  In  In19  1  0.62746763  0.33663210  0.34817959  1
  In  In20  1  0.34732217  0.30084482  0.31117186  1
  In  In21  1  -0.01252754  0.31063921  0.64676747  1
  In  In22  1  -0.00296109  0.86857191  0.47860925  1
  In  In23  1  0.84966457  0.84729201  -0.01995483  1
  In  In24  1  0.66724943  0.87405284  0.15634168  1
  In  In25  1  0.18328439  0.83601594  0.64917315  1
  In  In26  1  0.18369451  0.47764240  0.00022886  1
  In  In27  1  0.33609293  0.14190556  0.15926034  1
  In  In28  1  0.35782320  0.85023973  0.86315050  1
  In  In29  1  -0.02791285  0.67270614  0.69117195  1
  In  In30  1  0.01294600  0.48015374  0.83255727  1
  In  In31  1  0.01137099  0.49201707  0.15058215  1
  In  In32  1  0.32828824  0.15937333  0.51554102  1
  In  In33  1  0.17668920  0.16477320  0.00614724  1
  In  In34  1  0.34219781  0.67082667  0.68835807  1
  In  In35  1  0.62582144  0.28600288  0.00883736  1
  In  In36  1  0.64696293  0.52710599  0.51468313  1
  In  In37  1  0.84731309  0.16109515  -0.02421176  1
  In  In38  1  0.17374141  0.65424016  0.84507913  1
  In  In39  1  0.14922995  0.01234325  0.82314892  1
  In  In40  1  0.46483645  0.22831232  0.84371177  1
  In  In41  1  0.24440718  0.24831997  0.83759776  1
  In  In42  1  0.66417140  0.48400173  0.17886837  1
  In  In43  1  0.65080483  0.02371720  0.67915864  1
  In  In44  1  0.20836808  0.46600826  0.30517420  1
  In  In45  1  0.82964836  0.15453037  0.64727346  1
  In  In46  1  0.66070716  0.67195108  0.03183229  1
  In  In47  1  -0.01480117  0.66415222  0.32883288  1
  In  In48  1  0.82609509  0.48232892  0.33625971  1
  In  In49  1  0.17452315  0.34899938  0.49691245  1
  In  In50  1  0.66758736  0.29824724  0.64600101  1
  In  In51  1  0.50253209  0.86709269  0.00423123  1
  In  In52  1  0.49244491  0.67585326  0.18577699  1
  In  In53  1  0.83885423  0.02781612  0.18341949  1
  In  In54  1  0.82696063  0.36014844  0.85004547  1
  In  In55  1  0.16846394  0.49376031  0.64511653  1
  In  In56  1  0.68445460  0.86285684  0.81126349  1
  In  In57  1  -0.01144113  0.84392655  0.81040502  1
  In  In58  1  0.64115811  0.04444024  -0.01494917  1
  In  In59  1  0.02852357  0.17297095  0.16223114  1
  In  In60  1  -0.00316845  0.18620657  0.48077540  1
  In  In61  1  0.15272072  0.00711407  0.48986325  1
  In  In62  1  0.49005396  0.48845019  0.69730405  1
  In  In63  1  0.38043678  0.44662906  0.88976657  1
  In  In64  1  0.31557242  0.00261530  0.33385897  1
  In  In65  1  0.83286520  0.51721938  0.01487670  1
  In  In66  1  -0.00509966  0.83533399  0.16098175  1
  In  In67  1  0.49907422  0.69922766  0.49238316  1
  In  In68  1  0.49968287  -0.00647461  0.52846265  1
  In  In69  1  0.84170892  0.68324952  0.19860462  1
  In  In70  1  0.48989753  0.83812956  0.32833574  1
  In  In71  1  0.66281399  0.15344043  0.20837213  1
  Te  Te72  1  0.07443989  0.07799330  0.06187849  1
  Te  Te73  1  0.09272862  0.10444882  0.39327616  1
  Te  Te74  1  0.08297846  0.09799855  0.72660771  1
  Te  Te75  1  0.11018051  0.39020444  0.10327001  1
  Te  Te76  1  0.09814068  0.38700558  0.36846805  1
  Te  Te77  1  0.08347798  0.39852514  0.72829288  1
  Te  Te78  1  0.08294953  0.74885255  0.07459375  1
  Te  Te79  1  0.08093460  0.74658803  0.42338699  1
  Te  Te80  1  0.10108424  0.73859761  0.74093295  1
  Te  Te81  1  0.40858557  0.10737748  0.03147108  1
  Te  Te82  1  0.41153189  0.07097240  0.42732075  1
  Te  Te83  1  0.43975456  0.08993900  0.77696279  1
  Te  Te84  1  0.43106797  0.40071980  0.02364016  1
  Te  Te85  1  0.41957722  0.40652115  0.41942414  1
  Te  Te86  1  0.44350991  0.37024701  0.77541826  1
  Te  Te87  1  0.42486877  0.76100851  0.07966160  1
  Te  Te88  1  0.39891519  0.75085621  0.40262395  1
  Te  Te89  1  0.43428499  0.76090986  0.76592997  1
  Te  Te90  1  0.75403435  0.09928586  0.07964926  1
  Te  Te91  1  0.72227401  0.07171488  0.32582380  1
  Te  Te92  1  0.75706766  0.09085535  0.75489116  1
  Te  Te93  1  0.73867196  0.40993835  0.06873280  1
  Te  Te94  1  0.72205459  0.42546135  0.42898026  1
  Te  Te95  1  0.73583472  0.42184022  0.74519253  1
  Te  Te96  1  0.76577231  0.76294285  0.09173292  1
  Te  Te97  1  0.75755673  0.76268794  0.41112910  1
  Te  Te98  1  0.76557983  0.76033523  0.74833359  1
  Te  Te99  1  0.10934190  0.28436498  0.21151666  1
  Te  Te100  1  0.10192401  0.24275475  0.57589152  1
  Te  Te101  1  0.10313991  0.25317396  0.90393962  1
  Te  Te102  1  0.08428615  0.57501956  0.25773634  1
  Te  Te103  1  0.04037455  0.56683942  0.60405011  1
  Te  Te104  1  0.08285766  0.57171072  0.93126639  1
  Te  Te105  1  0.08091258  0.93700814  0.23446376  1
  Te  Te106  1  0.07486971  0.92531657  0.59557057  1
  Te  Te107  1  0.07692182  0.91424049  0.91179239  1
  Te  Te108  1  0.43793875  0.20390867  0.24857804  1
  Te  Te109  1  0.41501244  0.22508891  0.61915818  1
  Te  Te110  1  0.40074740  0.25010483  0.98357277  1
  Te  Te111  1  0.40077667  0.58830550  0.25848850  1
  Te  Te112  1  0.42442612  0.57972032  0.59185662  1
  Te  Te113  1  0.42256099  0.58308216  0.92736319  1
  Te  Te114  1  0.40874345  0.92945905  0.23907477  1
  Te  Te115  1  0.40772130  0.90333826  0.59724537  1
  Te  Te116  1  0.40183054  0.96291587  0.95032196  1
  Te  Te117  1  0.73827136  0.27571719  0.25875875  1
  Te  Te118  1  0.74448377  0.22265621  0.54891107  1
  Te  Te119  1  0.74233609  0.25377396  0.91648782  1
  Te  Te120  1  0.74493413  0.58429073  0.25989981  1
  Te  Te121  1  0.75789505  0.60106778  0.58704240  1
  Te  Te122  1  0.73768962  0.59399354  0.92636135  1
  Te  Te123  1  0.76081649  0.92569997  0.25926756  1
  Te  Te124  1  0.73830546  0.94159013  0.57872551  1
  Te  Te125  1  0.73702530  0.93537866  0.93254506  1
  Te  Te126  1  0.27180169  0.25419391  0.07901524  1
  Te  Te127  1  0.25477654  0.24692538  0.41670105  1
  Te  Te128  1  0.28106243  0.24424014  0.69599390  1
  Te  Te129  1  0.26460116  0.57451531  0.07335038  1
  Te  Te130  1  0.22770026  0.56973308  0.41888744  1
  Te  Te131  1  0.25353424  0.56653942  0.75072589  1
  Te  Te132  1  0.24993695  0.93632292  0.06562041  1
  Te  Te133  1  0.24411707  0.90401460  0.42670223  1
  Te  Te134  1  0.25214044  0.90428454  0.76605303  1
  Te  Te135  1  0.55916578  0.21829577  0.11968724  1
  Te  Te136  1  0.56877332  0.22531840  0.42223935  1
  Te  Te137  1  0.59127974  0.26910011  0.76461035  1
  Te  Te138  1  0.57093695  0.57515189  0.10070562  1
  Te  Te139  1  0.58488555  0.60868580  0.40508024  1
  Te  Te140  1  0.59340970  0.58695795  0.74664017  1
  Te  Te141  1  0.56812144  0.97022103  0.09610481  1
  Te  Te142  1  0.57877957  0.91673861  0.42213042  1
  Te  Te143  1  0.56937000  0.93090436  0.75869565  1
  Te  Te144  1  0.93481715  0.24826115  0.06099308  1
  Te  Te145  1  0.92945135  0.29808168  0.41297599  1
  Te  Te146  1  0.90332007  0.26186056  0.76263601  1
  Te  Te147  1  0.92386826  0.60532306  0.09759258  1
  Te  Te148  1  0.92792450  0.55845386  0.42165905  1
  Te  Te149  1  0.90440342  0.57574331  0.78513625  1
  Te  Te150  1  0.91473278  0.93601246  0.08350446  1
  Te  Te151  1  0.90041195  0.96780914  0.43278054  1
  Te  Te152  1  0.90110458  0.95110154  0.76113945  1
  Te  Te153  1  0.23335233  0.08363087  0.24609604  1
  Te  Te154  1  0.24633364  0.06133058  0.59455380  1
  Te  Te155  1  0.25095830  0.10351475  0.88577968  1
  Te  Te156  1  0.31243933  0.41126231  0.22130170  1
  Te  Te157  1  0.27967844  0.39956849  0.59882123  1
  Te  Te158  1  0.23884352  0.39722038  0.88488970  1
  Te  Te159  1  0.24221494  0.74868458  0.24181962  1
  Te  Te160  1  0.25410522  0.72358392  0.57729814  1
  Te  Te161  1  0.27167549  0.73775925  0.92258917  1
  Te  Te162  1  0.59102434  0.03979667  0.27128657  1
  Te  Te163  1  0.57922252  0.10597274  0.57993045  1
  Te  Te164  1  0.55927037  0.10972206  0.88182838  1
  Te  Te165  1  0.55094021  0.40324761  0.23493216  1
  Te  Te166  1  0.57329326  0.41467914  0.58667582  1
  Te  Te167  1  0.56821757  0.41386387  0.95220425  1
  Te  Te168  1  0.59598768  0.77033744  0.24164792  1
  Te  Te169  1  0.58371592  0.74983567  0.59758308  1
  Te  Te170  1  0.59485822  0.76808425  0.93508618  1
  Te  Te171  1  0.91604681  0.13415586  0.25834809  1
  Te  Te172  1  0.92548919  0.08380042  0.55948897  1
  Te  Te173  1  0.91720348  0.06186765  0.89245797  1
  Te  Te174  1  0.90509034  0.41559215  0.22618608  1
  Te  Te175  1  0.88024952  0.39304769  0.57756898  1
  Te  Te176  1  0.92787786  0.42054403  0.94486610  1
  Te  Te177  1  0.91503016  0.78785531  0.28060037  1
  Te  Te178  1  0.92954422  0.76555451  0.57860922  1
  Te  Te179  1  0.92824300  0.75093427  0.90533954  1
