# generated using pymatgen
data_In2Te3
_symmetry_space_group_name_H-M   'P 1'
_cell_length_a   18.96501050
_cell_length_b   18.97320715
_cell_length_c   18.95670868
_cell_angle_alpha   89.96286658
_cell_angle_beta   90.03232473
_cell_angle_gamma   90.10429338
_symmetry_Int_Tables_number   1
_chemical_formula_structural   In2Te3
_chemical_formula_sum   'In72 Te108'
_cell_volume   6821.12317983
_cell_formula_units_Z   36
loop_
 _symmetry_equiv_pos_site_id
 _symmetry_equiv_pos_as_xyz
  1  'x, y, z'
loop_
 _atom_site_type_symbol
 _atom_site_label
 _atom_site_symmetry_multiplicity
 _atom_site_fract_x
 _atom_site_fract_y
 _atom_site_fract_z
 _atom_site_occupancy
  In  In0  1  0.16732856  0.67927429  0.84126841  1
  In  In1  1  0.01115175  0.15917541  0.15631789  1
  In  In2  1  0.03624829  0.15825575  0.52310908  1
  In  In3  1  0.15566908  0.84062180  0.32349285  1
  In  In4  1  0.40345673  0.14062045  0.65850332  1
  In  In5  1  0.00335524  0.82282160  0.17409321  1
  In  In6  1  -0.02231290  0.84544449  0.83052326  1
  In  In7  1  0.64028696  0.02208752  0.32221679  1
  In  In8  1  0.32727835  0.00913227  0.32330234  1
  In  In9  1  0.35058371  0.65304063  -0.01136837  1
  In  In10  1  0.83029409  0.32895655  0.50128762  1
  In  In11  1  0.18791278  0.18101445  0.68981276  1
  In  In12  1  0.32980474  0.33606881  -0.00020114  1
  In  In13  1  0.50678188  0.83901555  0.68952202  1
  In  In14  1  0.66768519  0.33634657  0.34362083  1
  In  In15  1  0.33771326  0.65017124  0.67623126  1
  In  In16  1  0.35963615  0.81285346  0.50730612  1
  In  In17  1  0.66552879  0.15638265  0.82892680  1
  In  In18  1  0.31652201  0.85731186  0.85023569  1
  In  In19  1  0.18128278  0.00894615  0.50988987  1
  In  In20  1  0.48278221  0.35930393  0.82793018  1
  In  In21  1  0.84632360  0.51595780  0.02135312  1
  In  In22  1  0.81539770  0.66090420  0.83858213  1
  In  In23  1  0.88891683  0.15098320  0.73968972  1
  In  In24  1  0.84402000  0.15950119  0.34323101  1
  In  In25  1  0.00530385  0.50737389  0.49314092  1
  In  In26  1  0.54912943  0.67044951  0.46746023  1
  In  In27  1  0.63745332  0.17969273  0.50755167  1
  In  In28  1  0.33370577  0.85243366  0.17674364  1
  In  In29  1  0.00047022  0.36540467  0.32569310  1
  In  In30  1  0.34203495  -0.00439912  0.01406915  1
  In  In31  1  0.66195179  0.50022701  0.82519736  1
  In  In32  1  0.67522302  0.64468691  0.66712576  1
  In  In33  1  0.81744079  0.00409799  0.16468114  1
  In  In34  1  0.00436164  0.01125606  -0.02164589  1
  In  In35  1  0.33943040  0.48505238  0.49420786  1
  In  In36  1  0.33029704  0.17903055  0.15271048  1
  In  In37  1  0.82835067  0.67796686  0.16322322  1
  In  In38  1  0.15991435  0.84808926  0.69203532  1
  In  In39  1  0.48005586  0.02093145  0.48766688  1
  In  In40  1  0.82665620  0.83116211  -0.00452402  1
  In  In41  1  0.16917016  0.64251385  0.51410400  1
  In  In42  1  0.48126010  0.34199279  0.15224769  1
  In  In43  1  0.82576795  0.51625124  0.64465932  1
  In  In44  1  0.66372074  0.51797302  0.15182138  1
  In  In45  1  0.68084989  0.83157742  0.17544742  1
  In  In46  1  0.84935268  0.15788034  -0.02675051  1
  In  In47  1  0.83641456  -0.01628535  0.50406333  1
  In  In48  1  0.17625187  0.34112797  0.16470813  1
  In  In49  1  0.83650784  0.33724484  0.18550288  1
  In  In50  1  0.49664421  0.48165538  0.65719938  1
  In  In51  1  -0.03728220  0.80676146  0.49896478  1
  In  In52  1  0.19841391  0.19307811  0.35745838  1
  In  In53  1  0.47022747  0.63386084  0.19358210  1
  In  In54  1  0.67366910  -0.00818281  0.00341896  1
  In  In55  1  0.52167845  0.80881612  -0.00155477  1
  In  In56  1  0.02635295  0.32583690  -0.02110321  1
  In  In57  1  0.48917728  0.33494591  0.47801255  1
  In  In58  1  0.68283997  0.52210906  0.49676590  1
  In  In59  1  -0.01616158  -0.02177396  0.66041223  1
  In  In60  1  0.17761906  0.67218944  0.15322661  1
  In  In61  1  0.66254080  -0.01299502  0.64465963  1
  In  In62  1  0.66649168  0.33667617  0.68780363  1
  In  In63  1  0.66001936  0.31272408  -0.01549364  1
  In  In64  1  0.54292278  0.82580078  0.34452063  1
  In  In65  1  0.17518114  0.48395498  0.00059098  1
  In  In66  1  0.16247738  0.49576691  0.67983211  1
  In  In67  1  0.17278605  0.01963814  0.83863849  1
  In  In68  1  0.00427612  0.49841320  0.83771221  1
  In  In69  1  0.18773741  0.49810382  0.33452541  1
  In  In70  1  0.00142859  0.66669447  0.31516605  1
  In  In71  1  0.48767898  0.15762015  0.01157234  1
  Te  Te72  1  0.09590276  0.09587630  0.05601569  1
  Te  Te73  1  0.09769155  0.08409353  0.40832665  1
  Te  Te74  1  0.08418494  0.07002256  0.72682110  1
  Te  Te75  1  0.07054105  0.41927637  0.09071903  1
  Te  Te76  1  0.10412365  0.41185016  0.42651695  1
  Te  Te77  1  0.06904028  0.39980067  0.74771959  1
  Te  Te78  1  0.07772643  0.74620768  0.07550828  1
  Te  Te79  1  0.09169029  0.73797475  0.42328347  1
  Te  Te80  1  0.06683617  0.74639437  0.75036696  1
  Te  Te81  1  0.43525891  0.06666020  0.12444247  1
  Te  Te82  1  0.39165936  0.11269893  0.41012752  1
  Te  Te83  1  0.38087698  0.07634950  0.78692586  1
  Te  Te84  1  0.41758172  0.43686329  0.06030587  1
  Te  Te85  1  0.44480365  0.44887164  0.38854677  1
  Te  Te86  1  0.38933104  0.41269837  0.72924957  1
  Te  Te87  1  0.41457517  0.75126656  0.09526273  1
  Te  Te88  1  0.42737785  0.73646938  0.40106962  1
  Te  Te89  1  0.39601472  0.76171403  0.76075155  1
  Te  Te90  1  0.74823512  0.10390314  0.07543838  1
  Te  Te91  1  0.74174942  0.09334164  0.43433975  1
  Te  Te92  1  0.75213085  0.08568796  0.72827423  1
  Te  Te93  1  0.74922795  0.39949813  0.07600676  1
  Te  Te94  1  0.76866898  0.42922378  0.40826780  1
  Te  Te95  1  0.77088269  0.42266285  0.75424420  1
  Te  Te96  1  0.72858934  0.73993674  0.06486124  1
  Te  Te97  1  0.65776952  0.74277195  0.39416192  1
  Te  Te98  1  0.72374540  0.74417614  0.76169252  1
  Te  Te99  1  0.08543667  0.25733412  0.25711573  1
  Te  Te100  1  0.11653689  0.26028072  0.58733310  1
  Te  Te101  1  0.07466618  0.22345169  0.88255975  1
  Te  Te102  1  0.09761350  0.57568364  0.24155191  1
  Te  Te103  1  0.06565228  0.58886755  0.60768481  1
  Te  Te104  1  0.08681681  0.58569443  0.92995895  1
  Te  Te105  1  0.09009021  0.92827555  0.22787316  1
  Te  Te106  1  0.08457099  0.90420260  0.57085110  1
  Te  Te107  1  0.09320269  0.90958513  0.90762165  1
  Te  Te108  1  0.38984730  0.27430133  0.24812306  1
  Te  Te109  1  0.39887591  0.27070888  0.57606912  1
  Te  Te110  1  0.41885952  0.24874159  0.91352985  1
  Te  Te111  1  0.39332531  0.52784540  0.26192847  1
  Te  Te112  1  0.42770578  0.58862938  0.57254292  1
  Te  Te113  1  0.44141562  0.59722161  0.88800677  1
  Te  Te114  1  0.43126005  0.91185827  0.27540172  1
  Te  Te115  1  0.42219689  0.92231821  0.58867742  1
  Te  Te116  1  0.43418070  0.91320785  0.92678424  1
  Te  Te117  1  0.74745732  0.23700778  0.25662555  1
  Te  Te118  1  0.74497684  0.24588032  0.59434292  1
  Te  Te119  1  0.76396215  0.25442125  0.89105728  1
  Te  Te120  1  0.75771725  0.57856232  0.24526743  1
  Te  Te121  1  0.78283645  0.63365450  0.54900095  1
  Te  Te122  1  0.73497774  0.57583109  0.93508333  1
  Te  Te123  1  0.74821129  0.92624469  0.27396375  1
  Te  Te124  1  0.75750350  0.89102651  0.58513239  1
  Te  Te125  1  0.74781200  0.91435967  0.90502041  1
  Te  Te126  1  0.22641855  0.24296510  0.06184983  1
  Te  Te127  1  0.30707673  0.25003410  0.43773606  1
  Te  Te128  1  0.21276270  0.25405035  0.81678610  1
  Te  Te129  1  0.26741107  0.56944225  0.08539068  1
  Te  Te130  1  0.27057128  0.59706192  0.41398295  1
  Te  Te131  1  0.25316777  0.57390078  0.77554103  1
  Te  Te132  1  0.23985600  0.92526784  0.09091164  1
  Te  Te133  1  0.26119184  0.90713854  0.42615482  1
  Te  Te134  1  0.26603378  0.94556203  0.73608326  1
  Te  Te135  1  0.58252614  0.24251499  0.09328951  1
  Te  Te136  1  0.56198750  0.23596557  0.38900952  1
  Te  Te137  1  0.56729304  0.25007141  0.75872455  1
  Te  Te138  1  0.55226565  0.58360991  0.08235964  1
  Te  Te139  1  0.58174876  0.54636814  0.39200781  1
  Te  Te140  1  0.55765353  0.58334888  0.75174388  1
  Te  Te141  1  0.58260285  0.91230955  0.09501127  1
  Te  Te142  1  0.59430550  0.93756856  0.43937247  1
  Te  Te143  1  0.58984573  0.93591770  0.76104370  1
  Te  Te144  1  0.91917808  0.25209282  0.07814044  1
  Te  Te145  1  0.93516452  0.25425996  0.41909986  1
  Te  Te146  1  0.97157875  0.26700630  0.77371381  1
  Te  Te147  1  0.93532596  0.61171807  0.08610949  1
  Te  Te148  1  0.91868945  0.58555524  0.40518492  1
  Te  Te149  1  0.91125264  0.58387941  0.75106523  1
  Te  Te150  1  0.91427165  0.92991663  0.07368617  1
  Te  Te151  1  0.93516574  0.92267669  0.41572189  1
  Te  Te152  1  0.88578283  0.88934215  0.72386895  1
  Te  Te153  1  0.23582327  0.09928958  0.24368368  1
  Te  Te154  1  0.26983640  0.09712471  0.58800467  1
  Te  Te155  1  0.28583068  0.08970633  0.91009964  1
  Te  Te156  1  0.27693278  0.40685906  0.25396511  1
  Te  Te157  1  0.24275502  0.41946821  0.58245759  1
  Te  Te158  1  0.24034478  0.39960136  0.89761555  1
  Te  Te159  1  0.25636838  0.74829359  0.25781936  1
  Te  Te160  1  0.24494686  0.75144767  0.59881185  1
  Te  Te161  1  0.24959705  0.75651760  0.94230188  1
  Te  Te162  1  0.54925583  0.08553577  0.23120608  1
  Te  Te163  1  0.54923868  0.10292985  0.60343546  1
  Te  Te164  1  0.57611633  0.07536355  0.91969132  1
  Te  Te165  1  0.59374497  0.40861498  0.23413962  1
  Te  Te166  1  0.60280970  0.40646999  0.56811803  1
  Te  Te167  1  0.57723821  0.42472476  0.92623458  1
  Te  Te168  1  0.58813324  0.72622840  0.23514343  1
  Te  Te169  1  0.58170946  0.74588843  0.59840045  1
  Te  Te170  1  0.54494828  0.70396776  0.89855507  1
  Te  Te171  1  0.92454458  0.07411282  0.24825919  1
  Te  Te172  1  0.91239233  0.09834459  0.58630337  1
  Te  Te173  1  0.91234775  0.06736440  0.87233310  1
  Te  Te174  1  0.91195114  0.44784809  0.24449455  1
  Te  Te175  1  0.92183493  0.41420192  0.58519959  1
  Te  Te176  1  0.91436764  0.41623132  0.92834305  1
  Te  Te177  1  0.89833348  0.76757736  0.26632751  1
  Te  Te178  1  0.89986645  0.72387045  0.59751453  1
  Te  Te179  1  0.91890505  0.73843451  0.92033672  1
