# generated using pymatgen
data_In2Te3
_symmetry_space_group_name_H-M   'P 1'
_cell_length_a   19.00818173
_cell_length_b   19.00601146
_cell_length_c   19.00797421
_cell_angle_alpha   89.93552569
_cell_angle_beta   90.04884240
_cell_angle_gamma   90.28594337
_symmetry_Int_Tables_number   1
_chemical_formula_structural   In2Te3
_chemical_formula_sum   'In72 Te108'
_cell_volume   6866.91318695
_cell_formula_units_Z   36
loop_
 _symmetry_equiv_pos_site_id
 _symmetry_equiv_pos_as_xyz
  1  'x, y, z'
loop_
 _atom_site_type_symbol
 _atom_site_label
 _atom_site_symmetry_multiplicity
 _atom_site_fract_x
 _atom_site_fract_y
 _atom_site_fract_z
 _atom_site_occupancy
  In  In0  1  0.33751611  0.85232898  0.16796270  1
  In  In1  1  0.15810218  0.66809342  0.20174410  1
  In  In2  1  0.15367062  0.87023497  0.36132310  1
  In  In3  1  0.85322127  0.33702630  0.50413399  1
  In  In4  1  0.49254136  0.80806222  -0.02626885  1
  In  In5  1  0.65792322  0.64413453  0.00261609  1
  In  In6  1  0.48999048  0.01652501  0.18363340  1
  In  In7  1  0.32769409  0.83567720  0.80879894  1
  In  In8  1  0.14612570  0.00418026  0.83627536  1
  In  In9  1  0.24220708  0.70914781  0.46411471  1
  In  In10  1  0.68834898  0.67579892  0.33343325  1
  In  In11  1  0.80650702  0.13813181  -0.06272135  1
  In  In12  1  0.32276609  0.17095689  0.17579077  1
  In  In13  1  0.00970473  0.81404810  0.18991746  1
  In  In14  1  0.14274339  0.84758399  0.64189923  1
  In  In15  1  0.81197752  0.15905537  0.34836706  1
  In  In16  1  0.64329927  -0.02408563  -0.01962105  1
  In  In17  1  0.68533760  0.33523114  0.65257893  1
  In  In18  1  0.83462260  0.68788507  0.17348347  1
  In  In19  1  0.67026186  0.49714545  0.50633260  1
  In  In20  1  0.83031867  0.50820161  0.01417724  1
  In  In21  1  -0.01722417  0.33473001  0.67551726  1
  In  In22  1  0.01600818  0.00232210  0.42150271  1
  In  In23  1  0.16815798  0.33480940  0.79741820  1
  In  In24  1  0.15048539  0.15769726  -0.02970317  1
  In  In25  1  0.14799517  -0.02724915  0.15808647  1
  In  In26  1  0.17124898  0.49269826  0.65851242  1
  In  In27  1  0.50015883  0.14026385  -0.01730827  1
  In  In28  1  0.16971105  0.14620724  0.64725157  1
  In  In29  1  0.34574643  0.65082577  0.67092026  1
  In  In30  1  0.47111850  0.66884810  0.50682934  1
  In  In31  1  0.82338027  0.01366090  0.16558577  1
  In  In32  1  -0.01502545  0.00695241  -0.00912514  1
  In  In33  1  0.67650463  -0.00555888  0.37235234  1
  In  In34  1  0.49175792  0.47703654  0.00840951  1
  In  In35  1  0.82018992  0.34040135  0.84015711  1
  In  In36  1  0.49077740  0.34354307  0.17426478  1
  In  In37  1  0.33254054  0.00271048  0.34876619  1
  In  In38  1  0.32541343  0.31713628  0.33389109  1
  In  In39  1  0.00660315  0.31589039  -0.01295335  1
  In  In40  1  0.81207581  0.68078866  0.50666983  1
  In  In41  1  -0.01766893  0.68579828  0.66999683  1
  In  In42  1  0.66071989  0.86570085  0.19059563  1
  In  In43  1  0.18191269  0.36545054  0.16930995  1
  In  In44  1  0.83584322  0.81668258  0.00662231  1
  In  In45  1  0.82822778  0.49011452  0.33769564  1
  In  In46  1  0.34213063  0.32753738  0.66030653  1
  In  In47  1  0.34149885  0.29874157  -0.02124367  1
  In  In48  1  0.49233713  0.64994372  0.20304705  1
  In  In49  1  0.67684328  0.15127935  0.52289013  1
  In  In50  1  0.16322486  0.52637833  -0.00099515  1
  In  In51  1  0.47534712  -0.00428518  0.81177262  1
  In  In52  1  0.82464986  0.70894730  0.81344045  1
  In  In53  1  -0.00021491  0.52380175  0.51920252  1
  In  In54  1  0.49383284  0.15752762  0.65515287  1
  In  In55  1  0.34574229  0.47601658  0.86113954  1
  In  In56  1  0.50426482  0.48579047  0.33556186  1
  In  In57  1  0.52723804  0.33109646  0.83186624  1
  In  In58  1  0.15424545  0.67297664  0.81196811  1
  In  In59  1  0.52152039  0.84540150  0.65148640  1
  In  In60  1  0.65267387  0.18071491  0.15928622  1
  In  In61  1  0.36353854  0.51125333  0.21151820  1
  In  In62  1  0.51201252  0.29925456  0.49188443  1
  In  In63  1  0.00462578  0.15514895  0.51752561  1
  In  In64  1  0.32523537  0.65973407  -0.00428728  1
  In  In65  1  -0.00296284  0.20243132  0.17144089  1
  In  In66  1  0.58350051  0.68434772  0.75798726  1
  In  In67  1  0.02075499  0.36300252  0.35077755  1
  In  In68  1  0.82951849  0.33119016  0.12702750  1
  In  In69  1  0.50061547  -0.00242650  0.49571583  1
  In  In70  1  -0.01445556  0.52540100  0.17151886  1
  In  In71  1  0.74649622  0.91146831  0.76294009  1
  Te  Te72  1  0.07587003  0.09729009  0.09064456  1
  Te  Te73  1  0.12209904  0.11729954  0.41797024  1
  Te  Te74  1  0.06719633  0.07261929  0.72779077  1
  Te  Te75  1  0.06975531  0.42249551  0.08323030  1
  Te  Te76  1  0.09412506  0.42786714  0.45828658  1
  Te  Te77  1  0.06753375  0.43707495  0.75325682  1
  Te  Te78  1  0.08767519  0.73851476  0.09385878  1
  Te  Te79  1  0.10894122  0.74017142  0.41045440  1
  Te  Te80  1  0.06642895  0.78194797  0.75466696  1
  Te  Te81  1  0.40038035  0.08031487  0.07999597  1
  Te  Te82  1  0.42955241  0.09309237  0.41059853  1
  Te  Te83  1  0.39449655  0.05848673  0.70581751  1
  Te  Te84  1  0.38079833  0.40771419  0.08767240  1
  Te  Te85  1  0.41893863  0.39994162  0.42238822  1
  Te  Te86  1  0.42817758  0.41517232  0.75168342  1
  Te  Te87  1  0.41915646  0.73510779  0.09311252  1
  Te  Te88  1  0.38198658  0.76132161  0.43750809  1
  Te  Te89  1  0.43274557  0.73749251  0.76116628  1
  Te  Te90  1  0.72363994  0.07767135  0.07107939  1
  Te  Te91  1  0.78457264  0.05935290  0.45629352  1
  Te  Te92  1  0.80281561  0.03635548  0.68966042  1
  Te  Te93  1  0.72961318  0.42476693  0.08007543  1
  Te  Te94  1  0.74271181  0.39562043  0.41928006  1
  Te  Te95  1  0.73941765  0.43285524  0.75192930  1
  Te  Te96  1  0.71770937  0.76068074  0.09407914  1
  Te  Te97  1  0.73048392  0.77763792  0.43053022  1
  Te  Te98  1  0.74659330  0.76816304  0.69625779  1
  Te  Te99  1  0.10063196  0.27133051  0.25819605  1
  Te  Te100  1  0.08332625  0.26133900  0.59118563  1
  Te  Te101  1  0.07193893  0.24218588  0.87297786  1
  Te  Te102  1  0.07258305  0.57519522  0.27655827  1
  Te  Te103  1  0.09742172  0.60833595  0.59859113  1
  Te  Te104  1  0.07425688  0.59497945  0.90876323  1
  Te  Te105  1  0.04995517  0.94536171  0.27371407  1
  Te  Te106  1  0.05503224  0.92818095  0.55210916  1
  Te  Te107  1  0.07932992  0.91423158  0.93197205  1
  Te  Te108  1  0.43134769  0.23407252  0.25946348  1
  Te  Te109  1  0.39803997  0.22695592  0.56071361  1
  Te  Te110  1  0.42464355  0.22550614  0.88047565  1
  Te  Te111  1  0.37269678  0.63616799  0.30003919  1
  Te  Te112  1  0.41817238  0.55831130  0.58617858  1
  Te  Te113  1  0.43238962  0.58652611  0.91928513  1
  Te  Te114  1  0.43044360  0.91070378  0.27241695  1
  Te  Te115  1  0.41391722  0.92791654  0.59601036  1
  Te  Te116  1  0.40212601  0.91364772  0.91823384  1
  Te  Te117  1  0.75952611  0.25152142  0.23925164  1
  Te  Te118  1  0.78336271  0.23637946  0.59285118  1
  Te  Te119  1  0.72815852  0.25660080  0.91992248  1
  Te  Te120  1  0.75282203  0.57689914  0.23889978  1
  Te  Te121  1  0.74685451  0.58297795  0.59987952  1
  Te  Te122  1  0.76577440  0.59802702  0.91114455  1
  Te  Te123  1  0.77305551  0.92004431  0.27354231  1
  Te  Te124  1  0.75888397  0.89092443  0.60937691  1
  Te  Te125  1  0.76800620  0.92158727  0.92075374  1
  Te  Te126  1  0.23194638  0.24708891  0.07942093  1
  Te  Te127  1  0.22967796  0.22965600  0.39849874  1
  Te  Te128  1  0.25923779  0.23035886  0.74304271  1
  Te  Te129  1  0.25606960  0.58150102  0.10580616  1
  Te  Te130  1  0.28925172  0.57997419  0.41222371  1
  Te  Te131  1  0.25985664  0.56454901  0.77274133  1
  Te  Te132  1  0.24420316  0.90799471  0.07079954  1
  Te  Te133  1  0.25199266  0.93392346  0.45603210  1
  Te  Te134  1  0.23288707  0.92722849  0.73596655  1
  Te  Te135  1  0.55606911  0.25211511  0.06837678  1
  Te  Te136  1  0.61152714  0.22565682  0.41546294  1
  Te  Te137  1  0.59591278  0.24048568  0.73215104  1
  Te  Te138  1  0.57055744  0.56917075  0.10198070  1
  Te  Te139  1  0.58463467  0.58782941  0.41393409  1
  Te  Te140  1  0.64406661  0.55465417  0.72880807  1
  Te  Te141  1  0.55268336  0.90952336  0.08218098  1
  Te  Te142  1  0.58928444  0.89548708  0.43538911  1
  Te  Te143  1  0.58757781  0.90633210  0.77016322  1
  Te  Te144  1  0.90242730  0.22147870  0.05058799  1
  Te  Te145  1  0.93035207  0.24595104  0.40949946  1
  Te  Te146  1  0.89509399  0.24818646  0.75374480  1
  Te  Te147  1  0.92118723  0.61726700  0.07193893  1
  Te  Te148  1  0.90322573  0.58832901  0.42038235  1
  Te  Te149  1  0.90478825  0.59943582  0.75772169  1
  Te  Te150  1  0.91391622  0.91202962  0.09852256  1
  Te  Te151  1  0.92954174  0.89019970  0.46403292  1
  Te  Te152  1  0.88888014  0.91419164  0.70404288  1
  Te  Te153  1  0.24254910  0.06198218  0.24168854  1
  Te  Te154  1  0.21785942  0.06434041  0.53372300  1
  Te  Te155  1  0.25292016  0.08187890  0.90302979  1
  Te  Te156  1  0.24757229  0.43999898  0.28177327  1
  Te  Te157  1  0.24823913  0.40185832  0.57497046  1
  Te  Te158  1  0.22964664  0.40016427  0.92587699  1
  Te  Te159  1  0.23268783  0.78926461  0.25613519  1
  Te  Te160  1  0.26396463  0.75863922  0.60832827  1
  Te  Te161  1  0.24549654  0.75109537  0.90732662  1
  Te  Te162  1  0.60778838  0.07393847  0.25713080  1
  Te  Te163  1  0.59471057  0.05700864  0.60429977  1
  Te  Te164  1  0.59043616  0.07572869  0.88070802  1
  Te  Te165  1  0.59500000  0.40856647  0.25248005  1
  Te  Te166  1  0.57328293  0.40638125  0.58063835  1
  Te  Te167  1  0.59308132  0.43234366  0.91441906  1
  Te  Te168  1  0.58044711  0.75808862  0.26380583  1
  Te  Te169  1  0.57796493  0.71647073  0.60431861  1
  Te  Te170  1  0.60627499  0.74464807  0.90118880  1
  Te  Te171  1  0.91360681  0.10167936  0.25025062  1
  Te  Te172  1  0.94462836  0.06941228  0.62487487  1
  Te  Te173  1  0.92260299  0.07678366  0.87841812  1
  Te  Te174  1  0.91272234  0.40478475  0.24218577  1
  Te  Te175  1  0.90253164  0.44078390  0.60043337  1
  Te  Te176  1  0.91892257  0.42079681  0.92513199  1
  Te  Te177  1  0.91185515  0.75244063  0.27801313  1
  Te  Te178  1  0.93740339  0.75618419  0.54528097  1
  Te  Te179  1  0.92509144  0.77570255  0.90015640  1
