# generated using pymatgen
data_In2Te3
_symmetry_space_group_name_H-M   'P 1'
_cell_length_a   18.89799353
_cell_length_b   18.90941035
_cell_length_c   18.90579678
_cell_angle_alpha   90.00262995
_cell_angle_beta   90.04027499
_cell_angle_gamma   89.84166127
_symmetry_Int_Tables_number   1
_chemical_formula_structural   In2Te3
_chemical_formula_sum   'In72 Te108'
_cell_volume   6755.95738904
_cell_formula_units_Z   36
loop_
 _symmetry_equiv_pos_site_id
 _symmetry_equiv_pos_as_xyz
  1  'x, y, z'
loop_
 _atom_site_type_symbol
 _atom_site_label
 _atom_site_symmetry_multiplicity
 _atom_site_fract_x
 _atom_site_fract_y
 _atom_site_fract_z
 _atom_site_occupancy
  In  In0  1  0.50784016  0.50026311  0.33277768  1
  In  In1  1  0.32509081  0.02512057  0.65110076  1
  In  In2  1  -0.01062482  -0.02053110  -0.01466755  1
  In  In3  1  0.14039939  0.00849503  0.82878697  1
  In  In4  1  0.48244584  -0.01170750  0.83459319  1
  In  In5  1  0.00050540  0.33552332  0.32202959  1
  In  In6  1  0.82189912  0.81852425  0.02588838  1
  In  In7  1  0.01711636  0.64126054  0.00808930  1
  In  In8  1  -0.00015949  0.49998465  0.15687217  1
  In  In9  1  -0.00730483  0.84454197  0.15972912  1
  In  In10  1  0.64430333  0.33463205  0.66418467  1
  In  In11  1  0.50672548  0.32256654  0.49626225  1
  In  In12  1  0.49037597  0.84320357  0.68771553  1
  In  In13  1  0.01172562  0.84216622  0.49580051  1
  In  In14  1  0.66377328  0.16864093  0.82202642  1
  In  In15  1  0.68333007  0.50760580  0.18819574  1
  In  In16  1  0.66279618  0.00827099  0.33776897  1
  In  In17  1  0.81526875  0.16827053  0.01252028  1
  In  In18  1  0.66075728  0.81883646  0.21361239  1
  In  In19  1  0.18183956  0.50258865  -0.02097724  1
  In  In20  1  0.34104187  -0.02980842  -0.01088963  1
  In  In21  1  0.19186703  0.83464142  0.66302993  1
  In  In22  1  -0.01201914  0.02208169  0.34893292  1
  In  In23  1  0.49799627  0.66068879  0.49742998  1
  In  In24  1  0.83060221  0.16757708  0.63658333  1
  In  In25  1  0.52396545  0.18767905  0.03250385  1
  In  In26  1  0.50073119  0.50626860  0.67973013  1
  In  In27  1  -0.00005595  0.32851326  -0.00863595  1
  In  In28  1  -0.02141765  0.65721846  0.33222727  1
  In  In29  1  0.16364527  0.50127346  0.67871924  1
  In  In30  1  0.66161867  -0.00825670  0.01588807  1
  In  In31  1  0.34014094  0.02430747  0.33611039  1
  In  In32  1  0.83833165  -0.01683989  0.50345243  1
  In  In33  1  0.34388025  0.18037451  0.84109720  1
  In  In34  1  0.17029462  0.33830959  0.45301883  1
  In  In35  1  0.18246171  0.65737429  0.51277917  1
  In  In36  1  0.00976085  0.83497127  0.83284661  1
  In  In37  1  0.34362647  0.65587312  0.33619301  1
  In  In38  1  0.78291317  0.32300916  0.21486033  1
  In  In39  1  0.19041756  0.18018549  0.02166903  1
  In  In40  1  0.00435423  0.17390214  0.18336529  1
  In  In41  1  0.81454104  -0.00455732  0.85328275  1
  In  In42  1  0.16524358  0.02970799  0.50832454  1
  In  In43  1  0.81241017  0.82272483  0.64099869  1
  In  In44  1  0.83314908  0.49557210  0.01631563  1
  In  In45  1  0.50960965  0.01732072  0.50438976  1
  In  In46  1  0.35692357  0.18395233  0.17648291  1
  In  In47  1  0.00022563  0.01843331  0.71218739  1
  In  In48  1  0.01331854  0.34903568  0.64879404  1
  In  In49  1  0.62727370  0.68868189  -0.00342688  1
  In  In50  1  0.34306796  0.50866775  0.50322114  1
  In  In51  1  0.83293453  0.65714657  0.83027242  1
  In  In52  1  0.83933418  0.48557698  0.64546847  1
  In  In53  1  0.16247041  0.64871342  0.16935436  1
  In  In54  1  0.33720257  0.51448449  0.83548920  1
  In  In55  1  0.00228405  0.68598114  0.66241961  1
  In  In56  1  0.63414993  0.47274326  0.87082954  1
  In  In57  1  0.32658172  0.80996850  0.84933729  1
  In  In58  1  0.73777753  0.50777903  0.42532461  1
  In  In59  1  0.65802858  0.17617681  0.48882600  1
  In  In60  1  0.82900368  0.33842354  0.83928677  1
  In  In61  1  0.34870251  0.65746074  0.01241049  1
  In  In62  1  0.34482741  0.32102539  0.65643197  1
  In  In63  1  0.65435538  0.64812183  0.67099602  1
  In  In64  1  0.49365112  0.00038523  0.18130612  1
  In  In65  1  0.17219474  0.84736185  0.32323758  1
  In  In66  1  -0.00441433  0.19517010  0.47989800  1
  In  In67  1  0.67754649  0.81396838  0.46112285  1
  In  In68  1  0.18591671  0.00176030  0.13462880  1
  In  In69  1  0.02227305  0.17323403  0.82006243  1
  In  In70  1  0.50861993  0.65520449  0.17551110  1
  In  In71  1  0.34424140  0.38569093  0.18721266  1
  Te  Te72  1  0.07018150  0.08803310  0.06429021  1
  Te  Te73  1  0.09778104  0.11293986  0.40009315  1
  Te  Te74  1  0.12078750  0.11361522  0.72025838  1
  Te  Te75  1  0.09172443  0.41504092  0.07486233  1
  Te  Te76  1  0.04990436  0.42273903  0.43230284  1
  Te  Te77  1  0.08148095  0.41147537  0.76117353  1
  Te  Te78  1  0.08796670  0.75133950  0.08443554  1
  Te  Te79  1  0.09160574  0.74701004  0.40737561  1
  Te  Te80  1  0.10597817  0.74740926  0.75443259  1
  Te  Te81  1  0.41157718  0.08047057  0.06860303  1
  Te  Te82  1  0.45100040  0.10695392  0.39616143  1
  Te  Te83  1  0.42400684  0.09472699  0.74324877  1
  Te  Te84  1  0.45029032  0.40286723  0.08164440  1
  Te  Te85  1  0.41351631  0.41142607  0.41282572  1
  Te  Te86  1  0.42159626  0.40515141  0.75551703  1
  Te  Te87  1  0.42632711  0.74939351  0.09774227  1
  Te  Te88  1  0.41749796  0.75361744  0.41659173  1
  Te  Te89  1  0.40755283  0.73978339  0.74951127  1
  Te  Te90  1  0.72020367  0.09963584  0.10008607  1
  Te  Te91  1  0.76393995  0.08680013  0.42261836  1
  Te  Te92  1  0.75767198  0.08010155  0.73938817  1
  Te  Te93  1  0.73980096  0.40278277  0.08756509  1
  Te  Te94  1  0.78012803  0.37838451  0.35911249  1
  Te  Te95  1  0.73675716  0.42859455  0.75651418  1
  Te  Te96  1  0.72855626  0.72987465  0.10225131  1
  Te  Te97  1  0.76502330  0.71981246  0.38762476  1
  Te  Te98  1  0.73978850  0.74706282  0.75079243  1
  Te  Te99  1  0.10227737  0.27284077  0.23220012  1
  Te  Te100  1  0.10127163  0.25650057  0.56804310  1
  Te  Te101  1  0.10839805  0.25469981  0.91464481  1
  Te  Te102  1  0.08193808  0.56523814  0.26628910  1
  Te  Te103  1  0.07108296  0.58042752  0.57759270  1
  Te  Te104  1  0.08825501  0.58238293  0.89637752  1
  Te  Te105  1  0.08094598  0.94149757  0.24315941  1
  Te  Te106  1  0.08225904  0.92357037  0.60214565  1
  Te  Te107  1  0.10620305  0.90010198  0.93068560  1
  Te  Te108  1  0.41208021  0.23302479  0.30640921  1
  Te  Te109  1  0.41556959  0.22752475  0.56511486  1
  Te  Te110  1  0.43598159  0.25695806  0.93187921  1
  Te  Te111  1  0.40282794  0.55530092  0.23871214  1
  Te  Te112  1  0.40788470  0.60064314  0.60439263  1
  Te  Te113  1  0.43662961  0.57790464  0.92464588  1
  Te  Te114  1  0.39626566  0.91785364  0.25192221  1
  Te  Te115  1  0.41528959  0.92494408  0.58138668  1
  Te  Te116  1  0.45125302  0.87177436  0.93345498  1
  Te  Te117  1  0.69108407  0.21207673  0.25449442  1
  Te  Te118  1  0.75005731  0.27658753  0.57202288  1
  Te  Te119  1  0.73068038  0.26051339  0.92468354  1
  Te  Te120  1  0.75045454  0.60021709  0.28873728  1
  Te  Te121  1  0.74523926  0.57809750  0.57244752  1
  Te  Te122  1  0.74200210  0.57891661  0.92339242  1
  Te  Te123  1  0.75224297  0.92458866  0.25638371  1
  Te  Te124  1  0.72031246  0.91943736  0.57169465  1
  Te  Te125  1  0.73342794  0.89085944  0.92354450  1
  Te  Te126  1  0.27722012  0.28248063  0.08905017  1
  Te  Te127  1  0.27372151  0.26451324  0.37448406  1
  Te  Te128  1  0.25353632  0.25538295  0.75248604  1
  Te  Te129  1  0.25855507  0.55752196  0.09795458  1
  Te  Te130  1  0.24143682  0.56738431  0.40595269  1
  Te  Te131  1  0.26030385  0.59422753  0.73624755  1
  Te  Te132  1  0.26965195  0.89092505  0.08951684  1
  Te  Te133  1  0.24715301  0.93315948  0.42331984  1
  Te  Te134  1  0.26058652  0.93120622  0.76056463  1
  Te  Te135  1  0.54546891  0.29285189  0.13720382  1
  Te  Te136  1  0.60797026  0.27984137  0.39456249  1
  Te  Te137  1  0.56456258  0.25470689  0.75659800  1
  Te  Te138  1  0.58978177  0.56792889  0.08164781  1
  Te  Te139  1  0.59985524  0.58197913  0.41847150  1
  Te  Te140  1  0.57471981  0.58612246  0.78549670  1
  Te  Te141  1  0.58192349  0.90192864  0.10677879  1
  Te  Te142  1  0.57179987  0.91175550  0.41046115  1
  Te  Te143  1  0.59062817  0.92485364  0.75743658  1
  Te  Te144  1  0.90852391  0.25997386  0.09040480  1
  Te  Te145  1  0.89435037  0.25130229  0.38786748  1
  Te  Te146  1  0.90935950  0.25113744  0.74295281  1
  Te  Te147  1  0.90232121  0.60260148  0.09915196  1
  Te  Te148  1  0.87438727  0.57762649  0.40575711  1
  Te  Te149  1  0.92137194  0.57858798  0.73603148  1
  Te  Te150  1  0.88927690  0.93892437  0.09031704  1
  Te  Te151  1  0.91016598  0.90014612  0.39835353  1
  Te  Te152  1  0.90029143  0.90324932  0.74669877  1
  Te  Te153  1  0.24493320  0.09547842  0.23514205  1
  Te  Te154  1  0.27826242  0.11877329  0.54566010  1
  Te  Te155  1  0.24706953  0.07908368  0.92142529  1
  Te  Te156  1  0.22942780  0.38126041  0.28178747  1
  Te  Te157  1  0.24587070  0.41433438  0.57279782  1
  Te  Te158  1  0.26927009  0.40729142  0.91038689  1
  Te  Te159  1  0.25247824  0.74335492  0.24748401  1
  Te  Te160  1  0.26791856  0.76667515  0.55803790  1
  Te  Te161  1  0.24309970  0.72583191  0.93325133  1
  Te  Te162  1  0.57930626  0.10224732  0.25127451  1
  Te  Te163  1  0.58843516  0.10222200  0.59398980  1
  Te  Te164  1  0.57868518  0.08185998  0.92233749  1
  Te  Te165  1  0.58386917  0.40710252  0.24343596  1
  Te  Te166  1  0.57877436  0.43568420  0.57166317  1
  Te  Te167  1  0.53862156  0.39150357  0.94862663  1
  Te  Te168  1  0.56298860  0.73633986  0.28641117  1
  Te  Te169  1  0.58790693  0.75295710  0.58107609  1
  Te  Te170  1  0.56960448  0.77842649  0.89822659  1
  Te  Te171  1  0.90389792  0.09347312  0.25230185  1
  Te  Te172  1  0.93825655  0.07738851  0.57406568  1
  Te  Te173  1  0.91559337  0.09746692  0.90849705  1
  Te  Te174  1  0.90022023  0.42390952  0.24026673  1
  Te  Te175  1  0.92082105  0.40733886  0.54910420  1
  Te  Te176  1  0.92350664  0.43309618  0.91028170  1
  Te  Te177  1  0.91366816  0.75454519  0.24285395  1
  Te  Te178  1  0.91011073  0.74428593  0.55605031  1
  Te  Te179  1  0.91821550  0.75070881  0.92109985  1
