# generated using pymatgen
data_In2Te3
_symmetry_space_group_name_H-M   'P 1'
_cell_length_a   18.99456892
_cell_length_b   18.97992491
_cell_length_c   19.01552709
_cell_angle_alpha   90.10090638
_cell_angle_beta   89.74705132
_cell_angle_gamma   89.98473600
_symmetry_Int_Tables_number   1
_chemical_formula_structural   In2Te3
_chemical_formula_sum   'In72 Te108'
_cell_volume   6855.31440553
_cell_formula_units_Z   36
loop_
 _symmetry_equiv_pos_site_id
 _symmetry_equiv_pos_as_xyz
  1  'x, y, z'
loop_
 _atom_site_type_symbol
 _atom_site_label
 _atom_site_symmetry_multiplicity
 _atom_site_fract_x
 _atom_site_fract_y
 _atom_site_fract_z
 _atom_site_occupancy
  In  In0  1  0.81529717  0.00076961  0.82416605  1
  In  In1  1  0.35047200  0.16786254  0.50745940  1
  In  In2  1  0.15501028  0.16372361  0.68876518  1
  In  In3  1  0.84359483  0.66219378  0.49769744  1
  In  In4  1  -0.01635095  0.83235814  0.45455018  1
  In  In5  1  0.50664976  0.52334632  0.32263617  1
  In  In6  1  0.49031005  0.30831408  0.83497669  1
  In  In7  1  0.17348665  0.84517048  0.66161341  1
  In  In8  1  0.16526573  0.83363185  0.01326587  1
  In  In9  1  -0.00094165  0.35003385  0.65918162  1
  In  In10  1  0.67597197  0.83878202  0.16072617  1
  In  In11  1  -0.01792632  0.28890031  -0.00924421  1
  In  In12  1  0.32474500  0.00726988  0.71858660  1
  In  In13  1  0.51088903  0.31080579  0.16189110  1
  In  In14  1  0.16795415  0.32361883  0.84329691  1
  In  In15  1  0.34146481  0.13840445  0.13425862  1
  In  In16  1  0.79121025  0.80307830  0.68941415  1
  In  In17  1  -0.00235693  0.00192919  0.03466064  1
  In  In18  1  0.82925524  0.31303892  0.83086639  1
  In  In19  1  0.13326989  0.20641177  0.32488623  1
  In  In20  1  0.66355630  0.00671699  0.67197274  1
  In  In21  1  0.69371789  0.48086822  0.17051717  1
  In  In22  1  0.13896684  -0.00284532  0.19279222  1
  In  In23  1  0.82541572  0.48060951  0.33871949  1
  In  In24  1  0.65101119  0.15734416  0.84762731  1
  In  In25  1  0.32943114  0.00958073  0.32052903  1
  In  In26  1  -0.01046034  0.82353965  0.83870310  1
  In  In27  1  0.52822364  0.69055549  0.12142408  1
  In  In28  1  0.50975050  -0.00265770  0.51987235  1
  In  In29  1  0.50864784  0.67471164  0.53502549  1
  In  In30  1  0.48494688  0.16700072  0.65319976  1
  In  In31  1  0.32979883  0.49405912  0.20290475  1
  In  In32  1  0.67138159  0.66418275  -0.01773791  1
  In  In33  1  0.35408397  0.69610587  0.66203896  1
  In  In34  1  0.48319868  0.48523413  -0.00879661  1
  In  In35  1  -0.00591901  0.66294238  -0.00061384  1
  In  In36  1  0.17179162  0.02053188  0.47411064  1
  In  In37  1  -0.01758890  0.17564841  0.51007221  1
  In  In38  1  0.84779116  0.46386260  -0.00938930  1
  In  In39  1  0.32980021  0.31276526  0.31556067  1
  In  In40  1  0.01578929  0.48140356  0.15420290  1
  In  In41  1  0.33784772  0.67467013  0.01193825  1
  In  In42  1  0.53588930  0.83749206  0.69687991  1
  In  In43  1  0.83957230  0.32626794  0.16859931  1
  In  In44  1  -0.01589019  0.14450503  0.82858283  1
  In  In45  1  0.16437843  0.67734269  0.17064949  1
  In  In46  1  0.17679108  0.51679522  0.65001767  1
  In  In47  1  0.53946429  0.49118342  0.66595208  1
  In  In48  1  0.66666392  0.01786545  0.32474815  1
  In  In49  1  0.17234011  0.47979113  0.33493081  1
  In  In50  1  0.33935550  0.50580000  0.46928375  1
  In  In51  1  0.15023257  0.49391813  -0.00112350  1
  In  In52  1  -0.00861910  0.01282316  0.65689430  1
  In  In53  1  0.69569682  0.27907161  0.40889885  1
  In  In54  1  0.31226839  0.67782012  0.31411373  1
  In  In55  1  0.31831029  0.35421989  0.67826966  1
  In  In56  1  0.67178891  0.15232355  0.15532115  1
  In  In57  1  0.83521998  0.00530196  0.19228712  1
  In  In58  1  0.48343249  0.85214074  0.32779651  1
  In  In59  1  0.86824034  0.69042730  0.19800776  1
  In  In60  1  0.65018303  0.50034821  0.82187319  1
  In  In61  1  -0.01343415  0.67027093  0.67648272  1
  In  In62  1  0.00774885  0.49800380  0.49415551  1
  In  In63  1  0.69040576  0.31796669  0.63008288  1
  In  In64  1  0.83176696  0.53103052  0.66747791  1
  In  In65  1  0.33019901  0.52876648  0.83892876  1
  In  In66  1  0.82703656  0.85136035  -0.00693752  1
  In  In67  1  0.84778369  0.16386955  0.33366996  1
  In  In68  1  0.35009688  0.83908205  0.49516989  1
  In  In69  1  0.34420781  0.14438747  0.89178226  1
  In  In70  1  0.50925069  0.86116370  -0.01376790  1
  In  In71  1  0.67224109  0.68135258  0.36110487  1
  Te  Te72  1  0.08913651  0.09717323  0.09717163  1
  Te  Te73  1  0.06129528  0.09600903  0.40307839  1
  Te  Te74  1  0.08912587  0.05277234  0.76658280  1
  Te  Te75  1  0.08305584  0.37597607  0.06789635  1
  Te  Te76  1  0.08824247  0.39948742  0.42233974  1
  Te  Te77  1  0.10415504  0.42006392  0.74268969  1
  Te  Te78  1  0.05954174  0.75699568  0.09704263  1
  Te  Te79  1  0.08435031  0.76322196  0.37289237  1
  Te  Te80  1  0.08902543  0.75164871  0.75168405  1
  Te  Te81  1  0.43512260  0.06274449  0.04060276  1
  Te  Te82  1  0.42751267  0.07522376  0.41662557  1
  Te  Te83  1  0.43610541  0.08973015  0.77399836  1
  Te  Te84  1  0.41280415  0.41201412  0.10336768  1
  Te  Te85  1  0.42229688  0.40983384  0.38712499  1
  Te  Te86  1  0.42404951  0.43154516  0.75946753  1
  Te  Te87  1  0.41625733  0.78196126  0.08426183  1
  Te  Te88  1  0.42330457  0.73199662  0.41416068  1
  Te  Te89  1  0.42018555  0.77659211  0.76286648  1
  Te  Te90  1  0.73862473  0.03920117  0.08447581  1
  Te  Te91  1  0.76916833  0.06995445  0.41430833  1
  Te  Te92  1  0.75114312  0.10863438  0.74061020  1
  Te  Te93  1  0.74302899  0.38387723  0.06533624  1
  Te  Te94  1  0.71981741  0.42566378  0.42275784  1
  Te  Te95  1  0.74983586  0.40904339  0.74325208  1
  Te  Te96  1  0.75840092  0.73613379  0.08438477  1
  Te  Te97  1  0.77611505  0.76589261  0.41661865  1
  Te  Te98  1  0.69063165  0.73731017  0.77170744  1
  Te  Te99  1  0.06769602  0.29841769  0.23523959  1
  Te  Te100  1  0.09211541  0.25287210  0.58724336  1
  Te  Te101  1  0.09048667  0.21365128  0.91299680  1
  Te  Te102  1  0.08704791  0.57363260  0.24972236  1
  Te  Te103  1  0.07941306  0.60367848  0.57441921  1
  Te  Te104  1  0.08313020  0.58775240  0.91145943  1
  Te  Te105  1  0.04839619  0.91138875  0.28004083  1
  Te  Te106  1  0.08933636  0.93397755  0.57049809  1
  Te  Te107  1  0.06693051  0.91474019  0.92943039  1
  Te  Te108  1  0.42112677  0.21790744  0.24080305  1
  Te  Te109  1  0.41472917  0.28243458  0.58318746  1
  Te  Te110  1  0.39693075  0.27360238  0.94664477  1
  Te  Te111  1  0.42686942  0.60872430  0.22507451  1
  Te  Te112  1  0.41327639  0.56625292  0.58761042  1
  Te  Te113  1  0.43575449  0.60614490  0.91478899  1
  Te  Te114  1  0.41999768  0.93723128  0.22945436  1
  Te  Te115  1  0.39875311  0.93382395  0.60107602  1
  Te  Te116  1  0.38906553  0.94256478  0.94552468  1
  Te  Te117  1  0.73749568  0.25303795  0.25434140  1
  Te  Te118  1  0.77809945  0.25230122  0.53015829  1
  Te  Te119  1  0.75339390  0.22910180  0.92245545  1
  Te  Te120  1  0.74886757  0.59315438  0.25487053  1
  Te  Te121  1  0.73982468  0.60344605  0.58306660  1
  Te  Te122  1  0.75610693  0.55932930  0.91293160  1
  Te  Te123  1  0.75730622  0.90013548  0.26962311  1
  Te  Te124  1  0.74522744  0.90868170  0.59872097  1
  Te  Te125  1  0.72881049  0.91250270  0.90357549  1
  Te  Te126  1  0.27708871  0.22296625  0.03302718  1
  Te  Te127  1  0.25001045  0.24133219  0.42186349  1
  Te  Te128  1  0.26856377  0.23620579  0.76191257  1
  Te  Te129  1  0.25049392  0.56943608  0.09130783  1
  Te  Te130  1  0.23323759  0.59757406  0.41377974  1
  Te  Te131  1  0.25178447  0.61038646  0.74167848  1
  Te  Te132  1  0.23547644  0.94129412  0.08934276  1
  Te  Te133  1  0.25078977  0.91018029  0.40464587  1
  Te  Te134  1  0.24492225  0.90034260  0.77670488  1
  Te  Te135  1  0.57883261  0.22594760  0.06026177  1
  Te  Te136  1  0.57585076  0.20069974  0.43298577  1
  Te  Te137  1  0.58853753  0.25639861  0.73243677  1
  Te  Te138  1  0.59509138  0.55876467  0.07819812  1
  Te  Te139  1  0.58461613  0.58434480  0.43728504  1
  Te  Te140  1  0.59421586  0.60952149  0.73661511  1
  Te  Te141  1  0.60286163  0.93509760  0.07699363  1
  Te  Te142  1  0.58521975  0.91671710  0.41617372  1
  Te  Te143  1  0.58518206  0.94768631  0.78015827  1
  Te  Te144  1  0.89805511  0.21554167  0.08809813  1
  Te  Te145  1  0.90745703  0.26869270  0.42162149  1
  Te  Te146  1  0.92071625  0.24167625  0.73192087  1
  Te  Te147  1  0.90635948  0.56478252  0.08909156  1
  Te  Te148  1  0.92360528  0.57922056  0.39861983  1
  Te  Te149  1  0.91819656  0.58312181  0.77094120  1
  Te  Te150  1  0.91199448  0.90064030  0.10690654  1
  Te  Te151  1  0.95788083  0.96165750  0.38875795  1
  Te  Te152  1  0.90729617  0.90818544  0.74329597  1
  Te  Te153  1  0.23441716  0.10738146  0.25359013  1
  Te  Te154  1  0.25190629  0.08559919  0.59318584  1
  Te  Te155  1  0.26638284  0.03802925  0.96031703  1
  Te  Te156  1  0.23003808  0.38237122  0.22575324  1
  Te  Te157  1  0.24958719  0.41939499  0.55971504  1
  Te  Te158  1  0.25775315  0.42223383  0.91780764  1
  Te  Te159  1  0.24344505  0.78010384  0.23865193  1
  Te  Te160  1  0.24961375  0.75167308  0.56764127  1
  Te  Te161  1  0.23554944  0.73533558  0.92906906  1
  Te  Te162  1  0.57224680  0.07059103  0.22788497  1
  Te  Te163  1  0.59719492  0.11747463  0.55815883  1
  Te  Te164  1  0.55171338  0.11326208  0.94909415  1
  Te  Te165  1  0.58423069  0.41376228  0.25058545  1
  Te  Te166  1  0.59139996  0.40349494  0.56150935  1
  Te  Te167  1  0.58250058  0.39991614  0.91457831  1
  Te  Te168  1  0.58273147  0.74915854  0.25135784  1
  Te  Te169  1  0.59233138  0.78862966  0.57122397  1
  Te  Te170  1  0.58844272  0.75995000  0.90654549  1
  Te  Te171  1  0.93038820  0.11695118  0.21956699  1
  Te  Te172  1  0.89141391  0.08406827  0.57986973  1
  Te  Te173  1  0.90424250  0.06505982  0.92757694  1
  Te  Te174  1  0.93400825  0.40436238  0.25838008  1
  Te  Te175  1  0.90120381  0.42963944  0.57697291  1
  Te  Te176  1  0.94145796  0.39697941  0.89267686  1
  Te  Te177  1  0.95165915  0.76600467  0.30231111  1
  Te  Te178  1  0.92194243  0.76887726  0.58280049  1
  Te  Te179  1  0.89159944  0.73759344  0.91449467  1
