# generated using pymatgen
data_In2Te3
_symmetry_space_group_name_H-M   'P 1'
_cell_length_a   18.90955129
_cell_length_b   18.96564337
_cell_length_c   18.94308561
_cell_angle_alpha   89.93910297
_cell_angle_beta   89.90512677
_cell_angle_gamma   89.96454476
_symmetry_Int_Tables_number   1
_chemical_formula_structural   In2Te3
_chemical_formula_sum   'In72 Te108'
_cell_volume   6793.57855753
_cell_formula_units_Z   36
loop_
 _symmetry_equiv_pos_site_id
 _symmetry_equiv_pos_as_xyz
  1  'x, y, z'
loop_
 _atom_site_type_symbol
 _atom_site_label
 _atom_site_symmetry_multiplicity
 _atom_site_fract_x
 _atom_site_fract_y
 _atom_site_fract_z
 _atom_site_occupancy
  In  In0  1  0.52109692  0.35211023  0.19411258  1
  In  In1  1  0.16440940  0.00131670  0.15411645  1
  In  In2  1  0.02030335  0.51318217  0.20696142  1
  In  In3  1  0.13810178  0.84471456  -0.00273986  1
  In  In4  1  0.50556120  0.68175303  0.50561351  1
  In  In5  1  0.85113875  0.31715040  0.46332591  1
  In  In6  1  0.30513601  -0.00447198  0.31282598  1
  In  In7  1  0.73595498  0.00204730  0.68261842  1
  In  In8  1  0.35027402  0.49655112  0.16662805  1
  In  In9  1  0.30684629  0.84692958  0.85951568  1
  In  In10  1  -0.01524517  0.66599755  -0.00790681  1
  In  In11  1  0.67816681  0.00029976  0.36446268  1
  In  In12  1  0.81912192  0.85197624  -0.04575966  1
  In  In13  1  0.67145393  0.33886278  0.66170041  1
  In  In14  1  0.48936109  0.85075337  0.68600607  1
  In  In15  1  0.51035329  0.01097225  0.52742257  1
  In  In16  1  -0.02024373  0.33368346  -0.00419603  1
  In  In17  1  0.50978081  0.32764042  0.86189170  1
  In  In18  1  0.32634615  0.14043207  0.49089659  1
  In  In19  1  0.83697667  0.34144883  0.83181086  1
  In  In20  1  0.15143307  0.50621996  -0.00916948  1
  In  In21  1  0.80342940  0.35791889  0.19429359  1
  In  In22  1  0.49533342  0.31965111  0.46066407  1
  In  In23  1  0.33432658  0.67556970  0.01008798  1
  In  In24  1  0.51289046  -0.02244353  0.18296645  1
  In  In25  1  -0.00648066  0.15953625  0.16725355  1
  In  In26  1  0.32420003  0.68849633  0.65212782  1
  In  In27  1  0.50691981  0.03921453  0.82356627  1
  In  In28  1  0.48585928  0.82148184  0.34919365  1
  In  In29  1  0.68754350  0.49959779  0.50953319  1
  In  In30  1  0.69144009  0.16205556  0.50429944  1
  In  In31  1  0.14950778  -0.01692923  0.82881656  1
  In  In32  1  -0.00083708  0.00828724  0.31793455  1
  In  In33  1  0.81174328  0.54010635  -0.04042090  1
  In  In34  1  0.86035523  0.66141988  0.50618812  1
  In  In35  1  0.01791509  0.82104356  0.54600354  1
  In  In36  1  0.34933260  0.31355606  0.66909280  1
  In  In37  1  0.34559036  0.00131094  0.01103835  1
  In  In38  1  0.30110576  0.14666163  0.81647269  1
  In  In39  1  0.51292038  0.16916305  0.32171247  1
  In  In40  1  0.65850402  0.34881928  0.01879625  1
  In  In41  1  0.31326345  0.33818364  0.02177113  1
  In  In42  1  -0.01174899  0.48841111  0.46072145  1
  In  In43  1  0.13282789  -0.00049792  0.50767805  1
  In  In44  1  0.48489509  0.18563554  0.02343885  1
  In  In45  1  0.82974833  -0.00308951  0.14981035  1
  In  In46  1  0.32402442  0.33949301  0.34395358  1
  In  In47  1  0.14558658  0.33175625  0.83404531  1
  In  In48  1  0.84429124  0.83114089  0.35959887  1
  In  In49  1  0.49823607  0.81113087  0.00101039  1
  In  In50  1  0.33266903  0.64595522  0.31115723  1
  In  In51  1  0.17517233  0.65486468  0.50248366  1
  In  In52  1  0.01155059  0.34830086  0.64053746  1
  In  In53  1  0.00686428  0.16203862  0.84288987  1
  In  In54  1  0.14306841  0.31547633  0.51396449  1
  In  In55  1  0.50982235  0.65481155  0.83433090  1
  In  In56  1  0.67675391  0.15881609  0.82132633  1
  In  In57  1  0.15130581  0.30256988  0.17604900  1
  In  In58  1  0.83954984  0.14074462  -0.01463635  1
  In  In59  1  0.82152076  0.65539713  0.16572975  1
  In  In60  1  0.15887517  0.80671666  0.34414503  1
  In  In61  1  0.54934551  0.52902392  0.03015685  1
  In  In62  1  0.33595301  0.51943861  0.48014953  1
  In  In63  1  0.68390725  0.84996556  0.56474779  1
  In  In64  1  0.18180003  0.50308980  0.65012910  1
  In  In65  1  0.68558972  0.66372462  0.33603122  1
  In  In66  1  0.31938094  -0.02201480  0.67808738  1
  In  In67  1  -0.02454786  0.81369656  0.15943292  1
  In  In68  1  0.66713689  0.82672419  0.15476814  1
  In  In69  1  0.33534882  0.52129093  0.81054505  1
  In  In70  1  0.85917472  0.53501258  0.68723524  1
  In  In71  1  0.53910480  0.51684963  0.68187129  1
  Te  Te72  1  0.05995651  0.06686079  0.07546690  1
  Te  Te73  1  0.06584943  0.09769214  0.41654366  1
  Te  Te74  1  0.07448649  0.07602259  0.74180442  1
  Te  Te75  1  0.08071347  0.40909890  0.08433202  1
  Te  Te76  1  0.09933929  0.40728626  0.40850952  1
  Te  Te77  1  0.08202576  0.43568660  0.74480976  1
  Te  Te78  1  0.08259398  0.73491220  0.08764434  1
  Te  Te79  1  0.06271289  0.72882384  0.43030363  1
  Te  Te80  1  0.03733058  0.70208411  0.67035618  1
  Te  Te81  1  0.42088592  0.08123368  0.11422209  1
  Te  Te82  1  0.43106361  0.06756901  0.40190634  1
  Te  Te83  1  0.40965613  0.09353845  0.72253191  1
  Te  Te84  1  0.43791933  0.40835045  0.07082794  1
  Te  Te85  1  0.43056787  0.43851386  0.39068926  1
  Te  Te86  1  0.43107148  0.41492369  0.75348639  1
  Te  Te87  1  0.43165866  0.73252148  0.10385201  1
  Te  Te88  1  0.38755249  0.73432616  0.42562694  1
  Te  Te89  1  0.40477196  0.75116353  0.77215639  1
  Te  Te90  1  0.73804492  0.07720990  0.06944824  1
  Te  Te91  1  0.78596906  0.08047662  0.42415489  1
  Te  Te92  1  0.80513436  0.12275579  0.75455969  1
  Te  Te93  1  0.77324529  0.43371642  0.06410049  1
  Te  Te94  1  0.75100332  0.41184476  0.40765118  1
  Te  Te95  1  0.75390452  0.43323894  0.74543374  1
  Te  Te96  1  0.76348422  0.75111110  0.06335510  1
  Te  Te97  1  0.74004887  0.75683941  0.44499090  1
  Te  Te98  1  0.74905313  0.80426675  0.80532683  1
  Te  Te99  1  0.04250099  0.25790989  0.27139349  1
  Te  Te100  1  0.04511489  0.22088085  0.57223456  1
  Te  Te101  1  0.09014396  0.24254973  0.94215998  1
  Te  Te102  1  0.11858476  0.59918140  0.27190761  1
  Te  Te103  1  0.06736839  0.56787008  0.57212662  1
  Te  Te104  1  0.07323844  0.58848594  0.89873971  1
  Te  Te105  1  0.07801072  0.89842730  0.24072345  1
  Te  Te106  1  0.05360297  0.94472771  0.62093294  1
  Te  Te107  1  0.05654636  0.87673454  0.87725158  1
  Te  Te108  1  0.41370852  0.25813057  0.24959797  1
  Te  Te109  1  0.42572267  0.23128312  0.56353963  1
  Te  Te110  1  0.39333563  0.23574581  0.90647429  1
  Te  Te111  1  0.44438908  0.58354052  0.23801966  1
  Te  Te112  1  0.42081611  0.58130466  0.59934751  1
  Te  Te113  1  0.41926165  0.57210520  0.92754307  1
  Te  Te114  1  0.40093137  0.89689380  0.24763918  1
  Te  Te115  1  0.40741506  0.90788690  0.57250275  1
  Te  Te116  1  0.42646773  0.93035246  0.90266582  1
  Te  Te117  1  0.74328182  0.27139916  0.29629538  1
  Te  Te118  1  0.77466495  0.25930199  0.58613627  1
  Te  Te119  1  0.74259959  0.26148238  0.91941336  1
  Te  Te120  1  0.71938071  0.56166139  0.22883140  1
  Te  Te121  1  0.75263578  0.60197213  0.59866341  1
  Te  Te122  1  0.75072122  0.63336775  0.86542703  1
  Te  Te123  1  0.75619664  0.90196397  0.25617626  1
  Te  Te124  1  0.80494700  0.94350580  0.55263311  1
  Te  Te125  1  0.72375796  0.93678725  0.87731256  1
  Te  Te126  1  0.24570287  0.22878879  0.08908033  1
  Te  Te127  1  0.23841986  0.23786063  0.41668697  1
  Te  Te128  1  0.22521605  0.24982901  0.73244401  1
  Te  Te129  1  0.24729665  0.57542174  0.08533514  1
  Te  Te130  1  0.21750290  0.55781342  0.38751563  1
  Te  Te131  1  0.23167262  0.61032673  0.74705267  1
  Te  Te132  1  0.25494807  0.90234966  0.08094847  1
  Te  Te133  1  0.23117261  0.91783375  0.41789829  1
  Te  Te134  1  0.22222912  0.87873308  0.73903405  1
  Te  Te135  1  0.59565102  0.24621380  0.10959326  1
  Te  Te136  1  0.61854534  0.25427711  0.39328093  1
  Te  Te137  1  0.58035509  0.25250055  0.74846901  1
  Te  Te138  1  0.65377630  0.61698382  0.07875984  1
  Te  Te139  1  0.58895637  0.58482395  0.42599918  1
  Te  Te140  1  0.63307411  0.59567962  0.76836949  1
  Te  Te141  1  0.58724841  0.91869878  0.06423627  1
  Te  Te142  1  0.58388132  0.90475181  0.43542307  1
  Te  Te143  1  0.59065815  0.93394745  0.75671365  1
  Te  Te144  1  0.89426359  0.24759728  0.08660870  1
  Te  Te145  1  0.96393810  0.24009905  0.40786790  1
  Te  Te146  1  0.94141944  0.26773742  0.75344210  1
  Te  Te147  1  0.92366015  0.56899358  0.09356081  1
  Te  Te148  1  0.89218523  0.57641921  0.39071100  1
  Te  Te149  1  0.94776441  0.62438444  0.76596401  1
  Te  Te150  1  0.91803649  0.91237446  0.06201834  1
  Te  Te151  1  0.95629729  0.90568189  0.42380617  1
  Te  Te152  1  0.83748335  0.89788265  0.73485191  1
  Te  Te153  1  0.22566381  0.09754488  0.24736366  1
  Te  Te154  1  0.23709918  0.07458602  0.59306822  1
  Te  Te155  1  0.23637321  0.06447729  0.92572465  1
  Te  Te156  1  0.24554688  0.40831505  0.23478003  1
  Te  Te157  1  0.27688424  0.40777206  0.57100100  1
  Te  Te158  1  0.25583840  0.41766317  0.89898565  1
  Te  Te159  1  0.23335369  0.73077426  0.24067545  1
  Te  Te160  1  0.22594807  0.76945761  0.58033253  1
  Te  Te161  1  0.22688407  0.73799755  0.92377333  1
  Te  Te162  1  0.60906231  0.07373543  0.25109853  1
  Te  Te163  1  0.61630595  0.07892635  0.60649753  1
  Te  Te164  1  0.58198689  0.10975696  0.93346537  1
  Te  Te165  1  0.64207700  0.42360805  0.23470751  1
  Te  Te166  1  0.56831453  0.40761286  0.56935985  1
  Te  Te167  1  0.59864394  0.43842676  0.91206569  1
  Te  Te168  1  0.58592705  0.75015604  0.25803021  1
  Te  Te169  1  0.58181247  0.74955103  0.61841422  1
  Te  Te170  1  0.59517468  0.74759789  0.91145123  1
  Te  Te171  1  0.88732412  0.09005894  0.25369945  1
  Te  Te172  1  0.86137946  0.06812651  0.61876792  1
  Te  Te173  1  0.91404941  0.05688228  0.89172134  1
  Te  Te174  1  0.92539522  0.41344214  0.25823804  1
  Te  Te175  1  0.89953241  0.42898554  0.57734457  1
  Te  Te176  1  0.92135446  0.44168650  0.90715915  1
  Te  Te177  1  0.91042687  0.72852661  0.26675625  1
  Te  Te178  1  0.90013477  0.75483636  0.61843166  1
  Te  Te179  1  0.92903285  0.76522828  0.89538571  1
