# generated using pymatgen
data_In2Te3
_symmetry_space_group_name_H-M   'P 1'
_cell_length_a   18.81412713
_cell_length_b   18.80579993
_cell_length_c   18.81944696
_cell_angle_alpha   90.04635680
_cell_angle_beta   90.02446302
_cell_angle_gamma   90.07035699
_symmetry_Int_Tables_number   1
_chemical_formula_structural   In2Te3
_chemical_formula_sum   'In72 Te108'
_cell_volume   6658.58937436
_cell_formula_units_Z   36
loop_
 _symmetry_equiv_pos_site_id
 _symmetry_equiv_pos_as_xyz
  1  'x, y, z'
loop_
 _atom_site_type_symbol
 _atom_site_label
 _atom_site_symmetry_multiplicity
 _atom_site_fract_x
 _atom_site_fract_y
 _atom_site_fract_z
 _atom_site_occupancy
  In  In0  1  0.49543844  0.37498295  0.50097056  1
  In  In1  1  0.32617486  0.68591491  -0.00883349  1
  In  In2  1  0.49426715  0.64395451  0.17815026  1
  In  In3  1  0.67282550  -0.00488492  0.32120076  1
  In  In4  1  0.29958894  0.03120709  -0.04554846  1
  In  In5  1  0.63999840  0.18415885  0.50249881  1
  In  In6  1  0.49470367  0.34819119  0.83845656  1
  In  In7  1  0.32076408  0.34364917  0.67311367  1
  In  In8  1  -0.01474162  0.68846177  -0.00638980  1
  In  In9  1  0.33638516  0.18784236  0.17258252  1
  In  In10  1  0.00099143  0.49219640  0.49375205  1
  In  In11  1  -0.00343736  0.49066417  0.81136269  1
  In  In12  1  0.01300662  0.16961979  0.50296959  1
  In  In13  1  0.34062165  0.00020412  0.36037224  1
  In  In14  1  -0.01175953  0.85474255  0.84854750  1
  In  In15  1  0.16880499  0.48638715  0.00942308  1
  In  In16  1  0.00571625  0.30728797  0.68585922  1
  In  In17  1  0.82323717  0.15313127  0.68268542  1
  In  In18  1  0.68797542  0.01293983  -0.00359518  1
  In  In19  1  -0.01144321  0.16298155  0.15126492  1
  In  In20  1  0.84016466  0.15939226  0.31142330  1
  In  In21  1  0.51293248  0.83528188  -0.03352240  1
  In  In22  1  0.49701040  0.17819942  0.02410593  1
  In  In23  1  0.31834653  0.82594511  0.17368789  1
  In  In24  1  0.68997474  0.17998131  0.13515770  1
  In  In25  1  0.01381693  0.32834471  0.34615578  1
  In  In26  1  0.79997537  0.51926775  -0.02114280  1
  In  In27  1  0.84382847  0.83814168  0.68285649  1
  In  In28  1  0.17079955  0.66635209  0.19940383  1
  In  In29  1  0.66899466  0.81096630  0.50469937  1
  In  In30  1  0.15078554  0.00140037  0.14962462  1
  In  In31  1  0.64363407  0.66259933  0.35665899  1
  In  In32  1  0.65455212  0.35209615  0.66092726  1
  In  In33  1  0.53682449  0.50035620  -0.01073282  1
  In  In34  1  0.49541591  0.68931394  0.79827306  1
  In  In35  1  0.32840052  -0.02589361  0.66847403  1
  In  In36  1  0.65037898  0.65423165  0.65412342  1
  In  In37  1  0.18970831  0.82719301  0.33860001  1
  In  In38  1  -0.00622418  0.83139966  0.49896594  1
  In  In39  1  0.03509527  0.52530362  0.17324478  1
  In  In40  1  0.16616184  0.15719718  0.34293621  1
  In  In41  1  0.35087407  0.48956495  0.18459043  1
  In  In42  1  0.48211391  0.00122773  0.51564462  1
  In  In43  1  0.69623250  0.17603628  0.85323125  1
  In  In44  1  0.17186963  0.64525465  0.81805427  1
  In  In45  1  0.34311111  0.49620251  0.82487588  1
  In  In46  1  0.34662383  0.15897735  0.49867004  1
  In  In47  1  0.15174707  0.82801588  -0.02098349  1
  In  In48  1  0.81844261  0.37309430  0.49426675  1
  In  In49  1  0.32799567  0.33091264  0.00985083  1
  In  In50  1  0.00445194  0.32357610  -0.01756358  1
  In  In51  1  0.50715001  -0.00899179  0.82059444  1
  In  In52  1  0.19172245  0.51740542  0.65405177  1
  In  In53  1  0.65372868  0.83320209  0.82870913  1
  In  In54  1  -0.02035930  0.86748200  0.13680209  1
  In  In55  1  0.48681776  0.80645442  0.36389613  1
  In  In56  1  0.15540245  0.16615878  0.68266504  1
  In  In57  1  0.83593776  -0.01028953  0.50097964  1
  In  In58  1  0.80914626  0.50726002  0.67959397  1
  In  In59  1  0.15984651  -0.02152191  0.48966232  1
  In  In60  1  0.51015892  0.01142198  0.17251159  1
  In  In61  1  0.82481466  0.49344780  0.34133591  1
  In  In62  1  -0.02205344  0.66105621  0.66949916  1
  In  In63  1  0.50124712  0.15112859  0.67119297  1
  In  In64  1  -0.01079191  0.15161528  0.84245271  1
  In  In65  1  0.82930051  0.67330194  0.15582699  1
  In  In66  1  0.69749381  0.82629369  0.16208437  1
  In  In67  1  0.63917402  0.47564215  0.19537996  1
  In  In68  1  0.35414164  0.33820916  0.32608516  1
  In  In69  1  0.00507126  0.65734201  0.32511280  1
  In  In70  1  0.85262261  0.33691360  0.15224559  1
  In  In71  1  0.18841293  0.81777091  0.66865467  1
  Te  Te72  1  0.07284347  0.08369978  0.05328721  1
  Te  Te73  1  0.06376446  0.06291397  0.40570456  1
  Te  Te74  1  0.05762255  0.07000862  0.73787344  1
  Te  Te75  1  0.07860926  0.39851787  0.09467689  1
  Te  Te76  1  0.10453498  0.41165242  0.42668429  1
  Te  Te77  1  0.10396227  0.41535273  0.73924024  1
  Te  Te78  1  0.08964485  0.74583720  0.09414723  1
  Te  Te79  1  0.09042886  0.74331151  0.41903444  1
  Te  Te80  1  0.06827005  0.74460777  0.76067762  1
  Te  Te81  1  0.40072033  0.07048760  0.08125986  1
  Te  Te82  1  0.44634106  0.10196793  0.39939231  1
  Te  Te83  1  0.39909108  0.07985567  0.75593077  1
  Te  Te84  1  0.43097040  0.42399538  0.07333678  1
  Te  Te85  1  0.39639558  0.45012094  0.41785502  1
  Te  Te86  1  0.43653993  0.43025085  0.72296578  1
  Te  Te87  1  0.42692665  0.75624417  0.08408428  1
  Te  Te88  1  0.43922216  0.69947862  0.45729652  1
  Te  Te89  1  0.37446846  0.74802033  0.74165575  1
  Te  Te90  1  0.77226719  0.05452381  0.11411171  1
  Te  Te91  1  0.74586271  0.09672495  0.42269207  1
  Te  Te92  1  0.73850732  0.06430603  0.76662353  1
  Te  Te93  1  0.74763789  0.43111385  0.09354749  1
  Te  Te94  1  0.70650295  0.43069149  0.41150353  1
  Te  Te95  1  0.73849432  0.41231289  0.76939271  1
  Te  Te96  1  0.76471761  0.75547441  0.04955561  1
  Te  Te97  1  0.74890373  0.75933353  0.39273489  1
  Te  Te98  1  0.74152789  0.74227363  0.74288368  1
  Te  Te99  1  0.08571917  0.24083540  0.24452733  1
  Te  Te100  1  0.10558551  0.26459222  0.57581478  1
  Te  Te101  1  0.09811191  0.24385629  0.89635288  1
  Te  Te102  1  0.12116129  0.55881580  0.29501507  1
  Te  Te103  1  0.07935039  0.59252242  0.58029210  1
  Te  Te104  1  0.07999398  0.58004470  0.92564017  1
  Te  Te105  1  0.09116104  0.89833999  0.24433391  1
  Te  Te106  1  0.08053947  0.90780484  0.59710596  1
  Te  Te107  1  0.07292414  0.94615551  0.93318336  1
  Te  Te108  1  0.44996863  0.26428012  0.23289684  1
  Te  Te109  1  0.43037292  0.25486227  0.58360042  1
  Te  Te110  1  0.41290208  0.24500839  0.91455505  1
  Te  Te111  1  0.43249707  0.56353476  0.28581742  1
  Te  Te112  1  0.38612666  0.58889868  0.55696349  1
  Te  Te113  1  0.41879148  0.58382122  0.92582397  1
  Te  Te114  1  0.41949994  0.91302709  0.25558320  1
  Te  Te115  1  0.43175451  0.89110991  0.60136052  1
  Te  Te116  1  0.40268801  0.92062865  0.90906120  1
  Te  Te117  1  0.75746098  0.26969390  0.25058694  1
  Te  Te118  1  0.75398294  0.25687582  0.58581705  1
  Te  Te119  1  0.74373389  0.23732967  0.97788037  1
  Te  Te120  1  0.74356872  0.58813793  0.25016068  1
  Te  Te121  1  0.75591487  0.58965983  0.57054418  1
  Te  Te122  1  0.72342347  0.62022724  0.90881563  1
  Te  Te123  1  0.77539870  0.92031014  0.24609384  1
  Te  Te124  1  0.74234327  0.91244524  0.59279507  1
  Te  Te125  1  0.75136710  0.91906307  0.90124729  1
  Te  Te126  1  0.23566331  0.24013505  0.08115652  1
  Te  Te127  1  0.25832899  0.25086019  0.41701508  1
  Te  Te128  1  0.26361219  0.23641419  0.75873294  1
  Te  Te129  1  0.25246417  0.59002298  0.08725771  1
  Te  Te130  1  0.26273221  0.60715398  0.47985449  1
  Te  Te131  1  0.29640602  0.61301338  0.72910958  1
  Te  Te132  1  0.25156011  0.91228700  0.06604326  1
  Te  Te133  1  0.27869777  0.89119649  0.44631423  1
  Te  Te134  1  0.22258328  0.92865517  0.76048157  1
  Te  Te135  1  0.59955613  0.27645131  0.06657682  1
  Te  Te136  1  0.57635311  0.28307221  0.41191527  1
  Te  Te137  1  0.58791202  0.24354059  0.75587352  1
  Te  Te138  1  0.60610636  0.58896750  0.09295834  1
  Te  Te139  1  0.60302465  0.54568300  0.43805517  1
  Te  Te140  1  0.56314132  0.57147629  0.74302496  1
  Te  Te141  1  0.58741254  0.91537747  0.08073536  1
  Te  Te142  1  0.57731879  0.92028277  0.41654174  1
  Te  Te143  1  0.56018600  0.88971238  0.72664725  1
  Te  Te144  1  0.89335641  0.23372521  0.04572668  1
  Te  Te145  1  0.90665260  0.25493153  0.42833071  1
  Te  Te146  1  0.89323734  0.25416133  0.77389923  1
  Te  Te147  1  0.92087944  0.57196345  0.08165684  1
  Te  Te148  1  0.90791106  0.59136516  0.42309707  1
  Te  Te149  1  0.89270469  0.59570318  0.77668091  1
  Te  Te150  1  0.88920261  0.95205411  0.05411665  1
  Te  Te151  1  0.91628565  0.91402698  0.40452632  1
  Te  Te152  1  0.92282312  0.94459967  0.74966103  1
  Te  Te153  1  0.25287758  0.06513517  0.25310673  1
  Te  Te154  1  0.24294367  0.07777148  0.57516826  1
  Te  Te155  1  0.21475820  0.13443929  0.89621961  1
  Te  Te156  1  0.25116828  0.39532200  0.23548106  1
  Te  Te157  1  0.26563478  0.42576828  0.56320222  1
  Te  Te158  1  0.24494633  0.40917909  0.90277960  1
  Te  Te159  1  0.28730966  0.72182772  0.28132632  1
  Te  Te160  1  0.25079902  0.73345807  0.56523814  1
  Te  Te161  1  0.25220596  0.76320013  0.88453413  1
  Te  Te162  1  0.60085128  0.10668651  0.24591806  1
  Te  Te163  1  0.59892309  0.06661086  0.59176081  1
  Te  Te164  1  0.57192545  0.08558937  0.92403434  1
  Te  Te165  1  0.54643270  0.38495520  0.26617675  1
  Te  Te166  1  0.59282213  0.46182965  0.57860739  1
  Te  Te167  1  0.61514876  0.41567749  0.89549603  1
  Te  Te168  1  0.57834924  0.76164262  0.24834961  1
  Te  Te169  1  0.55593370  0.73163564  0.56502044  1
  Te  Te170  1  0.59703602  0.71362477  0.92018602  1
  Te  Te171  1  0.93506196  0.06630341  0.24958137  1
  Te  Te172  1  0.92187562  0.08236147  0.58902989  1
  Te  Te173  1  0.93479424  0.05438666  0.94377015  1
  Te  Te174  1  0.93198505  0.42844622  0.25426014  1
  Te  Te175  1  0.92211930  0.41501625  0.60535373  1
  Te  Te176  1  0.90960528  0.42409883  0.91749499  1
  Te  Te177  1  0.93000526  0.75516628  0.23574916  1
  Te  Te178  1  0.89370930  0.74294068  0.57337363  1
  Te  Te179  1  0.88807102  0.76693399  0.91670494  1
