# generated using pymatgen
data_In2Te3
_symmetry_space_group_name_H-M   'P 1'
_cell_length_a   18.98324661
_cell_length_b   19.00590968
_cell_length_c   18.96271871
_cell_angle_alpha   90.16310102
_cell_angle_beta   89.86340357
_cell_angle_gamma   90.03891575
_symmetry_Int_Tables_number   1
_chemical_formula_structural   In2Te3
_chemical_formula_sum   'In72 Te108'
_cell_volume   6841.58396881
_cell_formula_units_Z   36
loop_
 _symmetry_equiv_pos_site_id
 _symmetry_equiv_pos_as_xyz
  1  'x, y, z'
loop_
 _atom_site_type_symbol
 _atom_site_label
 _atom_site_symmetry_multiplicity
 _atom_site_fract_x
 _atom_site_fract_y
 _atom_site_fract_z
 _atom_site_occupancy
  In  In0  1  0.66074787  0.17590998  0.13712789  1
  In  In1  1  0.33090611  0.82300850  0.87699847  1
  In  In2  1  0.18425644  0.01871196  0.85375834  1
  In  In3  1  0.15047950  0.01553162  0.50881649  1
  In  In4  1  -0.02293151  0.16831263  0.51025390  1
  In  In5  1  0.00952350  0.35604909  0.65977190  1
  In  In6  1  0.80817363  0.81956196  -0.00673349  1
  In  In7  1  0.48186669  0.51953065  0.30046931  1
  In  In8  1  0.35437150  0.01555400  -0.00961368  1
  In  In9  1  0.47307485  0.82910705  0.33653816  1
  In  In10  1  0.58228286  0.13252840  0.83699932  1
  In  In11  1  0.03165392  0.17015928  0.84173001  1
  In  In12  1  0.81388415  -0.00073917  0.16791400  1
  In  In13  1  0.17092765  0.33085674  0.52525717  1
  In  In14  1  0.64050099  0.36675599  0.28835839  1
  In  In15  1  -0.00384351  0.50363472  0.50320725  1
  In  In16  1  0.81636099  0.65661483  0.22116107  1
  In  In17  1  0.68177767  0.65504875  0.01285088  1
  In  In18  1  0.66955947  0.34586376  0.66579031  1
  In  In19  1  0.34418027  0.50909242  0.06660535  1
  In  In20  1  0.00525164  0.65201113  -0.00905986  1
  In  In21  1  0.15503425  0.85296088  0.66912430  1
  In  In22  1  0.33085835  -0.00319563  0.32707809  1
  In  In23  1  0.35777063  0.84440385  0.14626844  1
  In  In24  1  0.50497761  0.15234698  0.32311831  1
  In  In25  1  0.50384120  0.63552137  0.84976029  1
  In  In26  1  0.84403028  0.65480175  0.82049319  1
  In  In27  1  0.81841177  0.17682408  0.69144008  1
  In  In28  1  0.86653253  0.18562647  -0.02268269  1
  In  In29  1  0.49834240  0.66099394  0.48554139  1
  In  In30  1  0.52301902  0.30766711  0.50778173  1
  In  In31  1  0.84664275  0.54302513  0.64431913  1
  In  In32  1  0.16317416  0.67154169  0.19206178  1
  In  In33  1  0.67085862  -0.00839494  0.66580426  1
  In  In34  1  0.50889086  0.81368528  0.66691993  1
  In  In35  1  0.85463185  -0.03377244  0.50284287  1
  In  In36  1  0.83878655  0.80575881  0.64843884  1
  In  In37  1  0.27773852  0.66266560  0.33797629  1
  In  In38  1  -0.01063713  0.86707706  0.81030068  1
  In  In39  1  -0.01760135  0.49951665  0.14647813  1
  In  In40  1  0.51208071  0.67235942  0.15843626  1
  In  In41  1  0.00006581  -0.00059806  -0.00172721  1
  In  In42  1  0.82744386  0.15423368  0.29436391  1
  In  In43  1  0.01582938  0.19788209  0.11603834  1
  In  In44  1  0.31202275  0.68825288  0.66691112  1
  In  In45  1  0.30602902  0.84488627  0.52398212  1
  In  In46  1  0.34248601  0.15690560  0.16018704  1
  In  In47  1  0.14880650  0.48295348  0.33526770  1
  In  In48  1  0.35114192  0.50597303  0.47266562  1
  In  In49  1  0.34680971  0.31371363  0.69738425  1
  In  In50  1  -0.01974598  0.35008288  0.29289087  1
  In  In51  1  0.33976184  0.30753702  0.34009146  1
  In  In52  1  -0.01984150  -0.01046389  0.33523521  1
  In  In53  1  0.48681835  0.31979287  0.86562650  1
  In  In54  1  0.65484442  -0.02382372  0.35105083  1
  In  In55  1  0.17904981  0.48950921  0.67358232  1
  In  In56  1  0.33045874  0.14275604  0.50084198  1
  In  In57  1  0.86029555  0.36203955  0.85931566  1
  In  In58  1  0.17692012  0.36230760  0.15871397  1
  In  In59  1  -0.01666269  0.83079764  0.19602244  1
  In  In60  1  0.18614536  0.83118423  0.02179481  1
  In  In61  1  0.67179491  0.51042651  0.83826559  1
  In  In62  1  0.83048085  0.66715245  0.47272130  1
  In  In63  1  0.49594658  0.47711788  0.66953937  1
  In  In64  1  0.66563195  0.13101524  0.49824378  1
  In  In65  1  0.20374321  0.32740528  0.87549427  1
  In  In66  1  0.65854111  0.87652195  0.16700054  1
  In  In67  1  0.16097621  0.68154145  0.83478182  1
  In  In68  1  0.80524964  0.34353873  0.45721514  1
  In  In69  1  0.68289353  0.82666774  0.83548552  1
  In  In70  1  0.35766075  0.01029440  0.69980656  1
  In  In71  1  0.69230853  0.35236200  0.01081658  1
  Te  Te72  1  0.09850711  0.09555166  0.04954126  1
  Te  Te73  1  0.06406358  0.09418681  0.41164547  1
  Te  Te74  1  0.08196038  0.06072283  0.75857924  1
  Te  Te75  1  0.07867995  0.42179788  0.06433595  1
  Te  Te76  1  0.07013930  0.38368415  0.42331666  1
  Te  Te77  1  0.11089335  0.39090495  0.76509362  1
  Te  Te78  1  0.07104119  0.75624054  0.08848130  1
  Te  Te79  1  0.14029495  0.72715488  0.33286352  1
  Te  Te80  1  0.06485330  0.75486462  0.74232366  1
  Te  Te81  1  0.44964796  0.08500157  0.08466057  1
  Te  Te82  1  0.43215958  0.06366585  0.42143951  1
  Te  Te83  1  0.44950724  0.09798924  0.77082075  1
  Te  Te84  1  0.37328844  0.35824659  0.04429785  1
  Te  Te85  1  0.44490851  0.40357253  0.41128003  1
  Te  Te86  1  0.41013054  0.42322756  0.78037546  1
  Te  Te87  1  0.44425218  0.76081507  0.06239017  1
  Te  Te88  1  0.37877319  0.74310183  0.42953747  1
  Te  Te89  1  0.41525590  0.73964678  0.76876141  1
  Te  Te90  1  0.77185934  0.10059318  0.06529495  1
  Te  Te91  1  0.77566015  0.07015587  0.41276491  1
  Te  Te92  1  0.71809473  0.09573569  0.76770607  1
  Te  Te93  1  0.79242924  0.42187804  0.09513586  1
  Te  Te94  1  0.72566988  0.44425541  0.38398399  1
  Te  Te95  1  0.76453102  0.42568127  0.75151992  1
  Te  Te96  1  0.74456588  0.75493882  0.11659685  1
  Te  Te97  1  0.78503757  0.77462703  0.37918256  1
  Te  Te98  1  0.74132360  0.72649130  0.73858750  1
  Te  Te99  1  0.08706769  0.26141733  0.23514254  1
  Te  Te100  1  0.08085340  0.23428322  0.60002656  1
  Te  Te101  1  0.09401460  0.25177484  0.94605862  1
  Te  Te102  1  0.05899110  0.57205543  0.25614912  1
  Te  Te103  1  0.07262296  0.56785299  0.61029297  1
  Te  Te104  1  0.07358740  0.57446994  0.88818040  1
  Te  Te105  1  0.07486183  0.93610072  0.23696689  1
  Te  Te106  1  0.05848666  0.92942297  0.58788260  1
  Te  Te107  1  0.09907445  0.90071526  0.91817338  1
  Te  Te108  1  0.43726969  0.25496135  0.23771707  1
  Te  Te109  1  0.41866375  0.23349980  0.58624796  1
  Te  Te110  1  0.38769775  0.24198864  0.94495587  1
  Te  Te111  1  0.39064455  0.62083618  0.24054588  1
  Te  Te112  1  0.40969086  0.58836807  0.59289619  1
  Te  Te113  1  0.42112422  0.56981619  0.95152109  1
  Te  Te114  1  0.43764272  0.93692791  0.23662742  1
  Te  Te115  1  0.41744238  0.91377985  0.59675703  1
  Te  Te116  1  0.43533508  0.91012801  0.92710718  1
  Te  Te117  1  0.73972759  0.26165680  0.23589631  1
  Te  Te118  1  0.74469773  0.24652256  0.57504182  1
  Te  Te119  1  0.75740376  0.26173046  0.90482704  1
  Te  Te120  1  0.70962052  0.58026017  0.28610615  1
  Te  Te121  1  0.74066232  0.58453300  0.55724219  1
  Te  Te122  1  0.77629742  0.57182247  0.92915426  1
  Te  Te123  1  0.77230401  0.90438583  0.28091194  1
  Te  Te124  1  0.73957952  0.89687356  0.56841002  1
  Te  Te125  1  0.73837802  0.93156028  0.92671663  1
  Te  Te126  1  0.25679328  0.25706908  0.08603197  1
  Te  Te127  1  0.23751207  0.23538470  0.42559733  1
  Te  Te128  1  0.24563491  0.23533196  0.76610118  1
  Te  Te129  1  0.20892987  0.57068461  0.09189727  1
  Te  Te130  1  0.21706683  0.56485090  0.44403133  1
  Te  Te131  1  0.25816717  0.58406512  0.76175594  1
  Te  Te132  1  0.25856257  0.94467625  0.08714517  1
  Te  Te133  1  0.23150309  0.92299433  0.41998943  1
  Te  Te134  1  0.26051725  0.90327445  0.76652537  1
  Te  Te135  1  0.58011274  0.27233252  0.06297565  1
  Te  Te136  1  0.60601861  0.24108187  0.39942536  1
  Te  Te137  1  0.57790702  0.26586381  0.75399955  1
  Te  Te138  1  0.60053368  0.56757049  0.09919947  1
  Te  Te139  1  0.58202676  0.60285290  0.37484150  1
  Te  Te140  1  0.58695598  0.57968805  0.73362653  1
  Te  Te141  1  0.62168975  0.94827973  0.04462702  1
  Te  Te142  1  0.56965880  0.88940757  0.43125485  1
  Te  Te143  1  0.58171571  0.90912087  0.75925535  1
  Te  Te144  1  0.89707269  0.28742072  0.08636628  1
  Te  Te145  1  0.90576648  0.24764949  0.39309893  1
  Te  Te146  1  0.92715076  0.26248201  0.75544454  1
  Te  Te147  1  0.90254675  0.61845664  0.09619979  1
  Te  Te148  1  0.91969402  0.57041991  0.40050759  1
  Te  Te149  1  0.93480859  0.55513726  0.75967992  1
  Te  Te150  1  0.90628625  0.90731817  0.07878311  1
  Te  Te151  1  0.96867644  0.89111505  0.44527829  1
  Te  Te152  1  0.87243797  0.91599937  0.74077202  1
  Te  Te153  1  0.25237523  0.09942948  0.26090750  1
  Te  Te154  1  0.25143919  0.07287462  0.60843677  1
  Te  Te155  1  0.28605462  0.11626945  0.90225236  1
  Te  Te156  1  0.26937773  0.42061639  0.26753201  1
  Te  Te157  1  0.28523954  0.40993629  0.58463651  1
  Te  Te158  1  0.26550398  0.44127487  0.94975174  1
  Te  Te159  1  0.25333697  0.79367707  0.24263678  1
  Te  Te160  1  0.20671516  0.74224095  0.57372015  1
  Te  Te161  1  0.25452081  0.71601308  0.95103429  1
  Te  Te162  1  0.61117614  0.07598189  0.24707824  1
  Te  Te163  1  0.57329152  0.07702501  0.59543724  1
  Te  Te164  1  0.56996244  0.07914531  0.97583212  1
  Te  Te165  1  0.54911805  0.43757003  0.19568273  1
  Te  Te166  1  0.59484339  0.42960789  0.56370072  1
  Te  Te167  1  0.58475869  0.42371748  0.92397718  1
  Te  Te168  1  0.58406722  0.77207924  0.24865458  1
  Te  Te169  1  0.58847359  0.74449501  0.56477903  1
  Te  Te170  1  0.59483759  0.73569480  0.92056445  1
  Te  Te171  1  0.93466362  0.09189095  0.20935071  1
  Te  Te172  1  0.89470687  0.08134624  0.60144753  1
  Te  Te173  1  0.92113560  0.07223315  0.89247216  1
  Te  Te174  1  0.87597434  0.43590031  0.23326323  1
  Te  Te175  1  0.89361790  0.40052746  0.57013224  1
  Te  Te176  1  0.92430172  0.40864344  0.98607863  1
  Te  Te177  1  0.91447592  0.74358888  0.29690640  1
  Te  Te178  1  0.92855275  0.72057087  0.57121113  1
  Te  Te179  1  0.91950224  0.76016317  0.90739605  1
