# generated using pymatgen
data_In2Te3
_symmetry_space_group_name_H-M   'P 1'
_cell_length_a   18.96708831
_cell_length_b   18.95455341
_cell_length_c   18.96614380
_cell_angle_alpha   90.03665120
_cell_angle_beta   89.89349117
_cell_angle_gamma   90.00592273
_symmetry_Int_Tables_number   1
_chemical_formula_structural   In2Te3
_chemical_formula_sum   'In72 Te108'
_cell_volume   6818.55613619
_cell_formula_units_Z   36
loop_
 _symmetry_equiv_pos_site_id
 _symmetry_equiv_pos_as_xyz
  1  'x, y, z'
loop_
 _atom_site_type_symbol
 _atom_site_label
 _atom_site_symmetry_multiplicity
 _atom_site_fract_x
 _atom_site_fract_y
 _atom_site_fract_z
 _atom_site_occupancy
  In  In0  1  0.84104153  0.31674136  0.16741599  1
  In  In1  1  0.33474620  0.50612329  0.78576168  1
  In  In2  1  0.84985570  0.16601014  0.02097455  1
  In  In3  1  0.68588083  0.85403212  0.47693996  1
  In  In4  1  0.65929309  0.52305111  0.84091406  1
  In  In5  1  0.84328593  -0.00650759  0.18496039  1
  In  In6  1  0.15955672  0.68905694  0.49179481  1
  In  In7  1  0.50252632  0.70371172  0.83356109  1
  In  In8  1  0.69261924  0.31580782  0.01954773  1
  In  In9  1  0.86327440  0.85756824  0.01524069  1
  In  In10  1  0.50975638  0.82539790  0.33675506  1
  In  In11  1  0.68443033  0.30639708  0.67919468  1
  In  In12  1  0.66174130  0.67845994  0.31403721  1
  In  In13  1  0.83471146  0.16581210  0.33347891  1
  In  In14  1  0.50222263  0.13834237  0.01851040  1
  In  In15  1  0.15354606  0.50641595  0.66996213  1
  In  In16  1  0.31840807  0.64993422  -0.01272622  1
  In  In17  1  0.01535599  0.86916059  0.51377223  1
  In  In18  1  0.66209346  0.69565408  0.66757662  1
  In  In19  1  0.51959082  0.38257130  0.36153046  1
  In  In20  1  0.33305433  0.13665737  0.48623160  1
  In  In21  1  0.46199401  0.46047074  0.55618271  1
  In  In22  1  -0.01306226  0.34163344  0.64329229  1
  In  In23  1  0.83883645  0.15101277  0.67443193  1
  In  In24  1  0.32308222  0.00099261  0.03980814  1
  In  In25  1  0.29429242  0.84878003  0.15565528  1
  In  In26  1  0.47917410  0.83810084  0.65993265  1
  In  In27  1  0.17809645  0.49687858  0.30701016  1
  In  In28  1  0.01690575  0.51083298  0.14148677  1
  In  In29  1  0.49726991  0.31399159  0.83846411  1
  In  In30  1  0.49991164  0.67300247  0.15554332  1
  In  In31  1  -0.01138901  0.31265574  0.33072908  1
  In  In32  1  0.33568739  0.85171862  0.83389854  1
  In  In33  1  0.49648850  0.49483700  0.00936871  1
  In  In34  1  0.31550546  0.30562368  0.67594681  1
  In  In35  1  0.67101217  0.84806971  0.85351993  1
  In  In36  1  0.49313119  0.00589861  0.84859205  1
  In  In37  1  0.85903395  0.67523332  0.17225642  1
  In  In38  1  0.13617178  0.04022635  0.82001961  1
  In  In39  1  0.14879307  0.31247975  0.85002719  1
  In  In40  1  0.48598519  0.64809127  0.49333745  1
  In  In41  1  0.85877567  0.01715032  0.83343769  1
  In  In42  1  0.29648738  0.17939174  0.82737097  1
  In  In43  1  0.17527847  0.86269217  0.01281377  1
  In  In44  1  0.80962372  0.68005124  0.84444681  1
  In  In45  1  0.65604640  0.15509624  0.49422908  1
  In  In46  1  0.00810457  0.70236021  0.66342709  1
  In  In47  1  0.85866051  0.32531547  0.85853798  1
  In  In48  1  0.82311231  0.49769662  0.32773118  1
  In  In49  1  0.84781826  0.64951579  0.51662143  1
  In  In50  1  0.17457212  0.49267696  -0.02741093  1
  In  In51  1  0.48422427  0.30178567  0.18049795  1
  In  In52  1  0.01038858  0.85353761  0.83431061  1
  In  In53  1  0.81301279  0.01982615  0.50299565  1
  In  In54  1  0.17881964  0.32068794  0.18582778  1
  In  In55  1  0.28299945  0.28805639  0.01130896  1
  In  In56  1  0.16869283  0.67954857  0.15547896  1
  In  In57  1  0.69895691  0.67534073  -0.00010963  1
  In  In58  1  0.31294965  0.00725242  0.65713377  1
  In  In59  1  0.02644517  0.00988414  0.32490338  1
  In  In60  1  0.31418311  0.66803310  0.31651325  1
  In  In61  1  -0.01335017  0.48096747  0.48107356  1
  In  In62  1  0.84436298  0.49562013  0.67431190  1
  In  In63  1  0.67263173  0.46533539  0.47705160  1
  In  In64  1  0.51466558  0.89617024  0.07445213  1
  In  In65  1  0.16747851  0.30079183  0.50144709  1
  In  In66  1  0.29915157  0.85522937  0.49530496  1
  In  In67  1  0.36978373  0.48434715  0.17477690  1
  In  In68  1  0.85589806  0.83206998  0.32256636  1
  In  In69  1  0.32384082  0.01923089  0.31406760  1
  In  In70  1  0.50504117  0.16037696  0.64921107  1
  In  In71  1  -0.01475596  0.50349154  0.85754394  1
  Te  Te72  1  0.16763733  0.19368190  0.04130275  1
  Te  Te73  1  0.11633182  0.04448024  0.44001275  1
  Te  Te74  1  0.03985877  0.03633372  0.70330837  1
  Te  Te75  1  0.10919018  0.40671125  0.07948333  1
  Te  Te76  1  0.09650993  0.40900401  0.40527114  1
  Te  Te77  1  0.06783425  0.41362441  0.75710171  1
  Te  Te78  1  0.09107724  0.75012908  0.05504283  1
  Te  Te79  1  0.06498503  0.77044420  0.41791404  1
  Te  Te80  1  0.10125924  0.77761828  0.74537127  1
  Te  Te81  1  0.41061347  0.08632705  0.12672974  1
  Te  Te82  1  0.43484068  0.07672330  0.39513331  1
  Te  Te83  1  0.40534821  0.08845699  0.75277756  1
  Te  Te84  1  0.39696688  0.39114765  0.05657788  1
  Te  Te85  1  0.40000438  0.43386103  0.42753349  1
  Te  Te86  1  0.42920532  0.39778764  0.73261937  1
  Te  Te87  1  0.38720750  0.74370183  0.08575546  1
  Te  Te88  1  0.39769002  0.75107595  0.42082325  1
  Te  Te89  1  0.39060412  0.74464553  0.74013383  1
  Te  Te90  1  0.75656846  0.09167805  0.11060963  1
  Te  Te91  1  0.72766099  0.07331411  0.38763829  1
  Te  Te92  1  0.74741149  0.06786004  0.75190401  1
  Te  Te93  1  0.76293355  0.41765242  0.09424906  1
  Te  Te94  1  0.74911939  0.38130102  0.38354568  1
  Te  Te95  1  0.75175335  0.41792320  0.76644208  1
  Te  Te96  1  0.76675197  0.77104710  0.09440101  1
  Te  Te97  1  0.75943748  0.73254623  0.41684107  1
  Te  Te98  1  0.75733672  0.78233515  0.74552073  1
  Te  Te99  1  0.09819605  0.22782009  0.27287679  1
  Te  Te100  1  0.04640555  0.23613926  0.55679642  1
  Te  Te101  1  0.07471417  0.20612623  0.92242043  1
  Te  Te102  1  0.08144053  0.59644778  0.25012639  1
  Te  Te103  1  0.05419989  0.57707937  0.57857739  1
  Te  Te104  1  0.08851960  0.59302941  0.91098664  1
  Te  Te105  1  0.05023241  0.90382395  0.22230523  1
  Te  Te106  1  0.10999375  0.95688836  0.58846491  1
  Te  Te107  1  0.08051606  0.94884827  0.92890657  1
  Te  Te108  1  0.46138044  0.22095947  0.30241705  1
  Te  Te109  1  0.40712135  0.24418598  0.57241504  1
  Te  Te110  1  0.40945929  0.22647123  0.92651558  1
  Te  Te111  1  0.43379611  0.59011312  0.26352638  1
  Te  Te112  1  0.39866111  0.58695769  0.59369376  1
  Te  Te113  1  0.42582303  0.57896935  0.90327189  1
  Te  Te114  1  0.40026127  0.89670421  0.25416396  1
  Te  Te115  1  0.40939872  0.93401073  0.56598311  1
  Te  Te116  1  0.42056132  0.91173365  0.94722710  1
  Te  Te117  1  0.74354612  0.26039329  0.26383794  1
  Te  Te118  1  0.75975670  0.23498978  0.57092749  1
  Te  Te119  1  0.75525354  0.23088623  0.91250543  1
  Te  Te120  1  0.74746551  0.58577886  0.23067624  1
  Te  Te121  1  0.73846820  0.58164693  0.59827034  1
  Te  Te122  1  0.77337955  0.56042518  0.93190508  1
  Te  Te123  1  0.74875040  0.90803547  0.25901299  1
  Te  Te124  1  0.73997182  0.92688169  0.59068431  1
  Te  Te125  1  0.76737032  0.93591838  0.92884622  1
  Te  Te126  1  0.28993997  0.22021530  0.14834866  1
  Te  Te127  1  0.25926490  0.23806151  0.40216101  1
  Te  Te128  1  0.19380309  0.23024334  0.72892322  1
  Te  Te129  1  0.25748530  0.56246981  0.09709360  1
  Te  Te130  1  0.24019687  0.58313011  0.41868668  1
  Te  Te131  1  0.22345793  0.59668100  0.76204421  1
  Te  Te132  1  0.20249875  0.96831829  0.12651011  1
  Te  Te133  1  0.22349929  0.93939175  0.39794319  1
  Te  Te134  1  0.23275094  0.93265962  0.76056112  1
  Te  Te135  1  0.59133894  0.23274283  0.09807555  1
  Te  Te136  1  0.56310959  0.25214261  0.41737896  1
  Te  Te137  1  0.58908073  0.22161958  0.76134135  1
  Te  Te138  1  0.59503878  0.58618321  0.07549285  1
  Te  Te139  1  0.59769667  0.58088116  0.41319551  1
  Te  Te140  1  0.57131686  0.59965863  0.74497302  1
  Te  Te141  1  0.63999209  0.97675964  0.08569415  1
  Te  Te142  1  0.57584212  0.92867269  0.41568544  1
  Te  Te143  1  0.56991006  0.91209403  0.75616553  1
  Te  Te144  1  0.94731060  0.24410574  0.09864848  1
  Te  Te145  1  0.93165842  0.22129989  0.43181999  1
  Te  Te146  1  0.93070712  0.24879216  0.75077724  1
  Te  Te147  1  0.92777885  0.59894348  0.06749453  1
  Te  Te148  1  0.92180063  0.59074717  0.39798625  1
  Te  Te149  1  0.91282043  0.60670928  0.75041516  1
  Te  Te150  1  0.95687968  0.93757698  0.10088184  1
  Te  Te151  1  0.91342775  0.94072097  0.41242375  1
  Te  Te152  1  0.92456111  0.92436494  0.73544645  1
  Te  Te153  1  0.22666531  0.13016153  0.28529909  1
  Te  Te154  1  0.22068083  0.09081902  0.57555738  1
  Te  Te155  1  0.25619669  0.06525357  0.91624633  1
  Te  Te156  1  0.28643071  0.39882753  0.26641367  1
  Te  Te157  1  0.23483328  0.40589071  0.59152191  1
  Te  Te158  1  0.26581441  0.40751211  0.88432200  1
  Te  Te159  1  0.21834297  0.77171039  0.26595761  1
  Te  Te160  1  0.23100167  0.76791233  0.59174733  1
  Te  Te161  1  0.24518255  0.76152233  0.91683136  1
  Te  Te162  1  0.53014370  -0.00434786  0.18949794  1
  Te  Te163  1  0.58451009  0.05976784  0.58058686  1
  Te  Te164  1  0.59760943  0.07046542  0.92885800  1
  Te  Te165  1  0.56009516  0.41848589  0.22579258  1
  Te  Te166  1  0.60003027  0.39961100  0.59140315  1
  Te  Te167  1  0.58833819  0.40651700  0.92010695  1
  Te  Te168  1  0.59377608  0.77439858  0.21845866  1
  Te  Te169  1  0.57138110  0.76007100  0.56467200  1
  Te  Te170  1  0.58386908  0.76337446  0.94595105  1
  Te  Te171  1  0.93676596  0.10038727  0.24221352  1
  Te  Te172  1  0.92738531  0.06874974  0.58585043  1
  Te  Te173  1  0.94332996  0.10262973  0.92196606  1
  Te  Te174  1  0.93667939  0.42913912  0.24805320  1
  Te  Te175  1  0.87868242  0.40643017  0.55680656  1
  Te  Te176  1  0.94619145  0.39699106  0.94993424  1
  Te  Te177  1  0.95849724  0.77052837  0.23374897  1
  Te  Te178  1  0.90740992  0.77376894  0.57683700  1
  Te  Te179  1  0.91839773  0.75843644  0.91433726  1
