# generated using pymatgen
data_In2Te3
_symmetry_space_group_name_H-M   'P 1'
_cell_length_a   18.93189229
_cell_length_b   18.93572489
_cell_length_c   18.93314590
_cell_angle_alpha   90.10302013
_cell_angle_beta   90.06625973
_cell_angle_gamma   89.99812357
_symmetry_Int_Tables_number   1
_chemical_formula_structural   In2Te3
_chemical_formula_sum   'In72 Te108'
_cell_volume   6787.31099796
_cell_formula_units_Z   36
loop_
 _symmetry_equiv_pos_site_id
 _symmetry_equiv_pos_as_xyz
  1  'x, y, z'
loop_
 _atom_site_type_symbol
 _atom_site_label
 _atom_site_symmetry_multiplicity
 _atom_site_fract_x
 _atom_site_fract_y
 _atom_site_fract_z
 _atom_site_occupancy
  In  In0  1  0.45449092  0.66234933  0.48863681  1
  In  In1  1  0.68750443  0.88542428  0.85476841  1
  In  In2  1  -0.02824017  0.53451097  0.83874615  1
  In  In3  1  0.50168151  0.68614040  0.16936657  1
  In  In4  1  -0.02000551  0.83270694  0.47981800  1
  In  In5  1  0.83720919  0.84227772  0.67490742  1
  In  In6  1  0.14460083  0.66543816  0.15242611  1
  In  In7  1  -0.01032123  0.51758888  0.51139905  1
  In  In8  1  0.82312599  0.15985208  0.65378992  1
  In  In9  1  0.83577329  0.01647948  0.15912784  1
  In  In10  1  0.68875150  0.47787506  0.82591895  1
  In  In11  1  0.51109033  0.64184467  0.85390310  1
  In  In12  1  0.16744570  0.00017271  0.84182919  1
  In  In13  1  -0.01988494  0.47157382  0.18529750  1
  In  In14  1  0.50807742  0.17423966  -0.01296319  1
  In  In15  1  0.82518586  0.65873298  0.49024740  1
  In  In16  1  0.83954246  0.50468189  0.00294415  1
  In  In17  1  0.16221635  0.48795973  0.65450161  1
  In  In18  1  0.35089588  0.32023408  0.01076278  1
  In  In19  1  0.68771916  0.83049745  0.15340210  1
  In  In20  1  0.15449107  0.30615493  0.21104727  1
  In  In21  1  0.85423201  0.15722518  0.32066629  1
  In  In22  1  0.49874181  -0.00484957  0.82342128  1
  In  In23  1  0.51629855  0.04728522  0.51825213  1
  In  In24  1  0.16750098  0.86353890  0.02279776  1
  In  In25  1  0.50497816  0.83444101  0.69178665  1
  In  In26  1  0.14889717  0.01365522  0.47846782  1
  In  In27  1  0.64485310  0.84787069  0.49803362  1
  In  In28  1  0.69462124  0.31596838  0.33912234  1
  In  In29  1  0.48982603  0.84071189  0.02409343  1
  In  In30  1  0.49955612  0.14827540  0.32878432  1
  In  In31  1  0.68560048  0.35535364  -0.00078898  1
  In  In32  1  0.63949944  0.68535652  0.00161575  1
  In  In33  1  0.31754825  0.31872333  0.33216980  1
  In  In34  1  0.17435836  0.14673614  0.00484904  1
  In  In35  1  0.35432595  0.49956883  0.85720552  1
  In  In36  1  0.32507731  0.48669698  0.49098145  1
  In  In37  1  0.30880286  0.66995336  0.32970512  1
  In  In38  1  0.18783108  0.29589693  0.80705995  1
  In  In39  1  0.31473326  0.12875732  0.19315631  1
  In  In40  1  0.14240562  0.85583740  0.33908780  1
  In  In41  1  0.52429199  0.48348577  0.68710656  1
  In  In42  1  0.84431958  0.32486973  0.50568968  1
  In  In43  1  0.00143729  0.84491308  0.17032142  1
  In  In44  1  0.50817660  0.30623507  0.81231938  1
  In  In45  1  0.84310459  -0.00264387  0.48491075  1
  In  In46  1  0.32084211  0.83076431  0.50135968  1
  In  In47  1  0.34021454  0.83429561  0.85569697  1
  In  In48  1  0.16064562  0.30772609  0.47074328  1
  In  In49  1  0.49499232  -0.00456007  0.17465009  1
  In  In50  1  0.69001155  0.15068300  0.82033296  1
  In  In51  1  0.14382158  0.82787792  0.68781410  1
  In  In52  1  0.69675945  0.69298831  0.65257224  1
  In  In53  1  0.67010425  -0.00151929  0.32085875  1
  In  In54  1  0.31162740  0.66752708  0.65773023  1
  In  In55  1  0.32704983  0.01166719  0.64384010  1
  In  In56  1  0.17758498  0.48825563  0.03096298  1
  In  In57  1  0.68362481  0.68125417  0.32109399  1
  In  In58  1  0.51649909  0.34790583  0.17141294  1
  In  In59  1  0.83882993  0.36482282  0.81435058  1
  In  In60  1  0.00515571  0.00275224  0.00840748  1
  In  In61  1  0.85488293  0.67765968  0.17394084  1
  In  In62  1  0.47401281  0.27840560  0.51918563  1
  In  In63  1  0.66096669  0.47214156  0.48704077  1
  In  In64  1  0.14978379  0.67206272  0.83415858  1
  In  In65  1  0.01210549  0.16167782  0.83259225  1
  In  In66  1  0.85029656  0.19537791  0.02954310  1
  In  In67  1  0.01564752  0.33176073  0.64735346  1
  In  In68  1  0.50854541  0.50888868  0.33257822  1
  In  In69  1  0.50749806  0.52132843  0.00480867  1
  In  In70  1  0.15991014  0.49637282  0.33219091  1
  In  In71  1  -0.01566746  0.00081361  0.67352189  1
  Te  Te72  1  0.07103854  0.09975818  0.10121292  1
  Te  Te73  1  0.09442352  0.10773653  0.37427065  1
  Te  Te74  1  0.09796188  0.08300655  0.73600918  1
  Te  Te75  1  0.08485359  0.39544439  0.10278704  1
  Te  Te76  1  0.06782207  0.41983746  0.42253748  1
  Te  Te77  1  0.09083316  0.40281255  0.75911231  1
  Te  Te78  1  0.06303206  0.75601031  0.06204507  1
  Te  Te79  1  0.07519300  0.74622165  0.40935217  1
  Te  Te80  1  0.04508700  0.74061393  0.75544046  1
  Te  Te81  1  0.42271932  0.09865046  0.08629516  1
  Te  Te82  1  0.40835749  0.08430177  0.42479456  1
  Te  Te83  1  0.42451667  0.08611484  0.73091221  1
  Te  Te84  1  0.41848990  0.43052043  0.09074772  1
  Te  Te85  1  0.42554089  0.40731478  0.41010669  1
  Te  Te86  1  0.40923371  0.40672119  0.74911541  1
  Te  Te87  1  0.39470605  0.77551382  0.11653635  1
  Te  Te88  1  0.40989630  0.76733498  0.39153452  1
  Te  Te89  1  0.41000298  0.73066576  0.75587353  1
  Te  Te90  1  0.75007416  0.09714710  0.07193934  1
  Te  Te91  1  0.74754822  0.09004294  0.41188764  1
  Te  Te92  1  0.78563685  0.05852254  0.75522568  1
  Te  Te93  1  0.76356855  0.42396148  0.10234958  1
  Te  Te94  1  0.77942694  0.42273779  0.40616727  1
  Te  Te95  1  0.72559083  0.38326428  0.72180113  1
  Te  Te96  1  0.76751531  0.74068011  0.05956514  1
  Te  Te97  1  0.75198179  0.77449023  0.41989360  1
  Te  Te98  1  0.74702690  0.76696495  0.77472528  1
  Te  Te99  1  0.06285298  0.24817896  0.31129515  1
  Te  Te100  1  0.08348484  0.22982655  0.56955957  1
  Te  Te101  1  0.09743671  0.24981675  0.92169735  1
  Te  Te102  1  0.06556729  0.58183381  0.25174609  1
  Te  Te103  1  0.07216976  0.59241451  0.60828863  1
  Te  Te104  1  0.09567979  0.56134566  0.92267840  1
  Te  Te105  1  0.10420987  0.94174193  0.22214767  1
  Te  Te106  1  0.07897650  0.91663768  0.58128888  1
  Te  Te107  1  0.07089565  0.90794951  0.90795708  1
  Te  Te108  1  0.42136711  0.25049166  0.24046783  1
  Te  Te109  1  0.40213269  0.21984435  0.63321460  1
  Te  Te110  1  0.40274017  0.23434871  0.89543824  1
  Te  Te111  1  0.41229565  0.58952601  0.25005026  1
  Te  Te112  1  0.41581963  0.56253773  0.59924902  1
  Te  Te113  1  0.39876832  0.61368545  0.95059981  1
  Te  Te114  1  0.37242212  0.91998660  0.20711274  1
  Te  Te115  1  0.42588516  0.90635916  0.58315963  1
  Te  Te116  1  0.41180812  0.93913457  0.93649555  1
  Te  Te117  1  0.76344984  0.23948173  0.23289370  1
  Te  Te118  1  0.73673579  0.23919796  0.56258475  1
  Te  Te119  1  0.75942490  0.26146601  0.90543182  1
  Te  Te120  1  0.76737794  0.58620237  0.24974846  1
  Te  Te121  1  0.74053474  0.56752664  0.57827171  1
  Te  Te122  1  0.72612417  0.57724172  0.92956038  1
  Te  Te123  1  0.77201362  0.91200077  0.24994227  1
  Te  Te124  1  0.74971984  0.92339010  0.57866172  1
  Te  Te125  1  0.77459287  0.91050068  0.96800752  1
  Te  Te126  1  0.25325815  0.24693490  0.10248399  1
  Te  Te127  1  0.27279473  0.21838573  0.42770571  1
  Te  Te128  1  0.26623788  0.21951763  0.71079545  1
  Te  Te129  1  0.25776788  0.59005776  0.09553428  1
  Te  Te130  1  0.23134154  0.58812828  0.43240116  1
  Te  Te131  1  0.25279829  0.57118691  0.75956525  1
  Te  Te132  1  0.26791584  0.94140464  0.09492062  1
  Te  Te133  1  0.25800633  0.93110997  0.40878874  1
  Te  Te134  1  0.26562368  0.90479393  0.74302632  1
  Te  Te135  1  0.59615349  0.25993701  0.07719369  1
  Te  Te136  1  0.57827259  0.24651217  0.41266393  1
  Te  Te137  1  0.59395432  0.21860691  0.72516569  1
  Te  Te138  1  0.59712983  0.58475165  0.10937401  1
  Te  Te139  1  0.58880211  0.59900469  0.42490072  1
  Te  Te140  1  0.60549461  0.59944760  0.74337649  1
  Te  Te141  1  0.59786378  0.92898028  0.08099603  1
  Te  Te142  1  0.56318998  0.94117418  0.41187317  1
  Te  Te143  1  0.60654472  0.93739614  0.73201539  1
  Te  Te144  1  0.95378573  0.26790452  0.10540422  1
  Te  Te145  1  0.93200708  0.25067473  0.41054274  1
  Te  Te146  1  0.92032538  0.24851710  0.74478554  1
  Te  Te147  1  0.93832983  0.58164887  0.08735741  1
  Te  Te148  1  0.91069862  0.57887940  0.40324788  1
  Te  Te149  1  0.85357069  0.58223378  0.76257510  1
  Te  Te150  1  0.89998663  0.90421297  0.06236204  1
  Te  Te151  1  0.93778848  0.94001608  0.38953490  1
  Te  Te152  1  0.91046787  0.92421588  0.77441078  1
  Te  Te153  1  0.19603084  0.07459913  0.26081170  1
  Te  Te154  1  0.23007895  0.09834385  0.57189218  1
  Te  Te155  1  0.26606564  0.08402512  0.90900997  1
  Te  Te156  1  0.25497765  0.42287691  0.24254645  1
  Te  Te157  1  0.24685694  0.39142626  0.57540675  1
  Te  Te158  1  0.25650937  0.40212490  0.92112747  1
  Te  Te159  1  0.22106743  0.75782152  0.24605824  1
  Te  Te160  1  0.21711609  0.74819172  0.57483610  1
  Te  Te161  1  0.23488467  0.75627266  0.92812034  1
  Te  Te162  1  0.59950144  0.09536970  0.22871130  1
  Te  Te163  1  0.61010216  0.12598767  0.59843688  1
  Te  Te164  1  0.59505275  0.07549823  0.91253735  1
  Te  Te165  1  0.61090847  0.42299797  0.26198961  1
  Te  Te166  1  0.56546718  0.39197943  0.57446301  1
  Te  Te167  1  0.56446933  0.41442089  0.91269226  1
  Te  Te168  1  0.58640223  0.77783678  0.25550173  1
  Te  Te169  1  0.56787105  0.74238852  0.58368425  1
  Te  Te170  1  0.56997255  0.78053302  0.90305238  1
  Te  Te171  1  0.94575416  0.09784822  0.21753835  1
  Te  Te172  1  0.92892248  0.09295182  0.56651449  1
  Te  Te173  1  0.91633483  0.09674279  0.92861497  1
  Te  Te174  1  0.88800594  0.35319450  0.20975077  1
  Te  Te175  1  0.90709875  0.42555628  0.60135821  1
  Te  Te176  1  0.92891532  0.40974962  0.92501392  1
  Te  Te177  1  0.92680757  0.76509293  0.26813826  1
  Te  Te178  1  0.91046075  0.74614896  0.58404591  1
  Te  Te179  1  0.91291200  0.67246677  0.86259265  1
