# generated using pymatgen
data_In2Te3
_symmetry_space_group_name_H-M   'P 1'
_cell_length_a   19.00059558
_cell_length_b   19.02691875
_cell_length_c   19.03142819
_cell_angle_alpha   89.84411332
_cell_angle_beta   89.84932487
_cell_angle_gamma   89.90446646
_symmetry_Int_Tables_number   1
_chemical_formula_structural   In2Te3
_chemical_formula_sum   'In72 Te108'
_cell_volume   6880.23624602
_cell_formula_units_Z   36
loop_
 _symmetry_equiv_pos_site_id
 _symmetry_equiv_pos_as_xyz
  1  'x, y, z'
loop_
 _atom_site_type_symbol
 _atom_site_label
 _atom_site_symmetry_multiplicity
 _atom_site_fract_x
 _atom_site_fract_y
 _atom_site_fract_z
 _atom_site_occupancy
  In  In0  1  0.46592779  0.65576203  0.85396941  1
  In  In1  1  -0.00070474  0.35481245  0.66558738  1
  In  In2  1  0.81555690  0.66395992  0.15815161  1
  In  In3  1  0.67645951  0.66099119  0.68201082  1
  In  In4  1  0.67437497  0.48104703  0.47318333  1
  In  In5  1  -0.00031382  0.63347350  0.31439759  1
  In  In6  1  0.16446443  0.12854857  0.65457082  1
  In  In7  1  -0.00201785  0.34022554  0.33643384  1
  In  In8  1  0.81536233  0.32662986  0.49258263  1
  In  In9  1  0.84293082  0.51742603  0.67730549  1
  In  In10  1  0.51395517  0.18541992  0.67040371  1
  In  In11  1  0.47259745  0.02078194  0.45142897  1
  In  In12  1  0.66638066  -0.01410456  0.02221152  1
  In  In13  1  0.15704783  0.51583041  0.68605866  1
  In  In14  1  0.45451640  0.35488830  0.85923447  1
  In  In15  1  0.15053352  0.67832191  0.84446436  1
  In  In16  1  0.49463568  0.02198888  0.19882634  1
  In  In17  1  0.52122512  0.62873207  0.50958538  1
  In  In18  1  0.66064604  0.66012285  -0.01811282  1
  In  In19  1  0.51120685  0.13847400  0.03545861  1
  In  In20  1  0.84508373  0.67380458  0.48293054  1
  In  In21  1  0.30432409  0.83057902  0.15814785  1
  In  In22  1  0.65629833  0.18293301  0.83833554  1
  In  In23  1  0.85467813  0.00244084  0.15772966  1
  In  In24  1  0.01092344  -0.00330169  -0.02180910  1
  In  In25  1  0.31009325  0.82691800  0.83344688  1
  In  In26  1  0.32186431  0.15738768  0.85569026  1
  In  In27  1  0.48109629  0.83074396  0.00522335  1
  In  In28  1  0.67029220  0.65525293  0.33504779  1
  In  In29  1  0.15489672  0.32842275  0.15487033  1
  In  In30  1  0.85267952  0.81824994  0.30650191  1
  In  In31  1  0.28504529  0.49942430  0.14377007  1
  In  In32  1  0.01052144  0.84074747  0.50581094  1
  In  In33  1  0.50110683  -0.02156473  0.80979579  1
  In  In34  1  0.00675026  0.51518917  0.85042303  1
  In  In35  1  0.02117965  0.14766369  0.49025376  1
  In  In36  1  0.32183258  0.15824290  0.18887002  1
  In  In37  1  0.84460129  0.15224373  0.63376517  1
  In  In38  1  0.48713001  0.50763115  0.01637584  1
  In  In39  1  0.83365538  0.34771953  0.82865067  1
  In  In40  1  0.33909471  0.81072343  0.50688791  1
  In  In41  1  0.16368842  -0.00494416  0.16873656  1
  In  In42  1  0.15740804  0.50264952  0.31951128  1
  In  In43  1  -0.00367161  0.01242100  0.32880597  1
  In  In44  1  0.00904530  0.18401966  0.85104721  1
  In  In45  1  0.48514382  0.48201712  0.63990764  1
  In  In46  1  0.34008407  0.66612652  0.32654250  1
  In  In47  1  0.83025177  0.84271323  0.65035594  1
  In  In48  1  0.81060817  0.48203446  0.01878350  1
  In  In49  1  0.48329410  0.86725003  0.70818728  1
  In  In50  1  0.67242179  0.21110202  0.19541234  1
  In  In51  1  0.49622687  0.33298509  0.15442803  1
  In  In52  1  0.50156212  0.66080311  0.18089059  1
  In  In53  1  0.01300425  -0.04466725  0.67910831  1
  In  In54  1  0.33136166  0.47249816  0.50155791  1
  In  In55  1  -0.00894021  0.18721252  0.19316777  1
  In  In56  1  0.02077709  0.65888356  -0.01138061  1
  In  In57  1  0.32379898  0.33086431  0.71749649  1
  In  In58  1  0.18998032  0.31202229  0.48562390  1
  In  In59  1  0.50046407  0.84534525  0.32501490  1
  In  In60  1  0.16452224  0.66585876  0.52516473  1
  In  In61  1  0.32510879  -0.00633789  0.65971024  1
  In  In62  1  0.70800986  0.82787244  0.84897287  1
  In  In63  1  0.15878027  0.16915908  0.00124332  1
  In  In64  1  0.66477039  0.02459039  0.64697218  1
  In  In65  1  0.16471539  0.84672553  0.36182929  1
  In  In66  1  0.66116659  0.50087940  0.84101551  1
  In  In67  1  0.63941262  0.85424918  0.50399137  1
  In  In68  1  0.49739681  0.31280105  0.48140887  1
  In  In69  1  0.84486493  0.20533166  0.03839686  1
  In  In70  1  0.85340119  0.82442876  0.00183751  1
  In  In71  1  0.67422703  0.17235088  0.45613337  1
  Te  Te72  1  0.06061411  0.09338512  0.09580394  1
  Te  Te73  1  0.11004005  0.07071702  0.40219414  1
  Te  Te74  1  0.06383232  0.07901371  0.75816539  1
  Te  Te75  1  0.12540769  0.40880593  0.03484582  1
  Te  Te76  1  0.09404111  0.41596782  0.42781038  1
  Te  Te77  1  0.08789955  0.40993885  0.77133748  1
  Te  Te78  1  0.12746380  0.73000597  0.06137478  1
  Te  Te79  1  0.07054101  0.72833161  0.41410045  1
  Te  Te80  1  0.06221677  0.77545611  0.77871989  1
  Te  Te81  1  0.39526141  0.06248249  0.09185607  1
  Te  Te82  1  0.41727456  0.14142264  0.38691919  1
  Te  Te83  1  0.41818708  0.09347232  0.74477661  1
  Te  Te84  1  0.38813911  0.40874991  0.07667522  1
  Te  Te85  1  0.42151094  0.41324885  0.40469859  1
  Te  Te86  1  0.40150001  0.46667757  0.76361172  1
  Te  Te87  1  0.40353733  0.73368718  0.09069348  1
  Te  Te88  1  0.44768537  0.73451110  0.41522707  1
  Te  Te89  1  0.40415723  0.74254688  0.74618618  1
  Te  Te90  1  0.74837550  0.09399568  0.08962799  1
  Te  Te91  1  0.79296146  0.11252341  0.40064282  1
  Te  Te92  1  0.74715459  0.10209176  0.74590629  1
  Te  Te93  1  0.73735176  0.41199847  0.13069188  1
  Te  Te94  1  0.74957490  0.39459680  0.37808208  1
  Te  Te95  1  0.73999927  0.42304206  0.73716390  1
  Te  Te96  1  0.73448405  0.75900958  0.07028879  1
  Te  Te97  1  0.73834980  0.76423314  0.42279103  1
  Te  Te98  1  0.78192426  0.73504886  0.75614227  1
  Te  Te99  1  0.10231933  0.24804310  0.27393377  1
  Te  Te100  1  0.08095441  0.25154732  0.58878572  1
  Te  Te101  1  0.07779783  0.27882235  0.94083994  1
  Te  Te102  1  0.05866290  0.53407673  0.20717289  1
  Te  Te103  1  0.06615666  0.57812670  0.58856327  1
  Te  Te104  1  0.11932786  0.53987719  0.94904814  1
  Te  Te105  1  0.07493042  0.90546691  0.25519902  1
  Te  Te106  1  0.11578210  0.90804146  0.58314144  1
  Te  Te107  1  0.04721999  0.88458353  0.88762159  1
  Te  Te108  1  0.43311059  0.23593384  0.25027079  1
  Te  Te109  1  0.41069398  0.27227635  0.60500223  1
  Te  Te110  1  0.43368039  0.22134684  0.93247327  1
  Te  Te111  1  0.39627878  0.56468616  0.23173921  1
  Te  Te112  1  0.39424006  0.58788171  0.58038171  1
  Te  Te113  1  0.38198540  0.58577789  0.94997237  1
  Te  Te114  1  0.39323093  0.91642329  0.24949144  1
  Te  Te115  1  0.43562839  0.91739165  0.57109718  1
  Te  Te116  1  0.40453514  0.92083044  0.91391548  1
  Te  Te117  1  0.77873518  0.30387126  0.23397338  1
  Te  Te118  1  0.73303642  0.24035919  0.58477675  1
  Te  Te119  1  0.75476749  0.26059000  0.92363413  1
  Te  Te120  1  0.77565572  0.57582120  0.26964879  1
  Te  Te121  1  0.74266940  0.58386876  0.56910459  1
  Te  Te122  1  0.76757476  0.58285161  0.90884649  1
  Te  Te123  1  0.76835558  0.91200151  0.23386170  1
  Te  Te124  1  0.75234498  0.93836049  0.55852328  1
  Te  Te125  1  0.77503053  0.93537000  0.92875812  1
  Te  Te126  1  0.26177234  0.24463192  0.08062581  1
  Te  Te127  1  0.29688380  0.22899954  0.43327401  1
  Te  Te128  1  0.22519186  0.22099074  0.75827610  1
  Te  Te129  1  0.18446537  0.61066347  0.14330386  1
  Te  Te130  1  0.24832794  0.58322135  0.41889044  1
  Te  Te131  1  0.24374345  0.60596625  0.75813569  1
  Te  Te132  1  0.22348950  0.91069385  0.06553982  1
  Te  Te133  1  0.28043281  0.91279989  0.42042488  1
  Te  Te134  1  0.24353085  0.94253616  0.77038607  1
  Te  Te135  1  0.59903877  0.25339113  0.06976639  1
  Te  Te136  1  0.60345634  0.27774340  0.38426672  1
  Te  Te137  1  0.56717376  0.28287599  0.76926276  1
  Te  Te138  1  0.60131443  0.58032359  0.09571617  1
  Te  Te139  1  0.57030066  0.55335012  0.38810763  1
  Te  Te140  1  0.56851811  0.58229443  0.75251882  1
  Te  Te141  1  0.56071756  0.91486790  0.10130110  1
  Te  Te142  1  0.59224095  0.94591301  0.39275555  1
  Te  Te143  1  0.63190071  0.90505132  0.74100522  1
  Te  Te144  1  0.93749845  0.29914335  0.10868433  1
  Te  Te145  1  0.92108818  0.24028542  0.42404936  1
  Te  Te146  1  0.91204155  0.24822055  0.74088983  1
  Te  Te147  1  0.90918142  0.58718777  0.06733703  1
  Te  Te148  1  0.89954150  0.56594057  0.39979767  1
  Te  Te149  1  0.94949875  0.59419695  0.74038856  1
  Te  Te150  1  0.94791494  0.90761445  0.08443294  1
  Te  Te151  1  0.91702782  0.90913469  0.40891304  1
  Te  Te152  1  0.89041228  0.92547706  0.75343677  1
  Te  Te153  1  0.22861030  0.07774232  0.27107691  1
  Te  Te154  1  0.27546045  0.09469107  0.56484398  1
  Te  Te155  1  0.22535683  0.06727995  0.91876242  1
  Te  Te156  1  0.24701292  0.40140033  0.25377769  1
  Te  Te157  1  0.24052451  0.40635195  0.60338392  1
  Te  Te158  1  0.30505259  0.38476465  0.85829069  1
  Te  Te159  1  0.23073167  0.74851518  0.26399534  1
  Te  Te160  1  0.22866914  0.77581855  0.59892212  1
  Te  Te161  1  0.24340725  0.74489908  0.93899104  1
  Te  Te162  1  0.60843387  0.09423713  0.25553290  1
  Te  Te163  1  0.56189088  0.09293080  0.55920995  1
  Te  Te164  1  0.59080360  0.06401470  0.91066882  1
  Te  Te165  1  0.59563542  0.43400977  0.19169170  1
  Te  Te166  1  0.58937432  0.40157209  0.57190763  1
  Te  Te167  1  0.57741325  0.41950803  0.93350079  1
  Te  Te168  1  0.59674935  0.75649436  0.24816739  1
  Te  Te169  1  0.58495615  0.74217266  0.59039832  1
  Te  Te170  1  0.57510862  0.76044987  0.89778383  1
  Te  Te171  1  0.88224875  0.10674575  0.27190501  1
  Te  Te172  1  0.94257591  0.05422618  0.57872072  1
  Te  Te173  1  0.91331401  0.10653127  0.93884677  1
  Te  Te174  1  0.95440833  0.41670332  0.21845223  1
  Te  Te175  1  0.90233341  0.42361066  0.57365766  1
  Te  Te176  1  0.91757480  0.41880724  0.92874801  1
  Te  Te177  1  0.93974466  0.73390403  0.21801355  1
  Te  Te178  1  0.92713091  0.74423397  0.58742322  1
  Te  Te179  1  0.94376610  0.75831945  0.90072003  1
