# generated using pymatgen
data_In2Te3
_symmetry_space_group_name_H-M   'P 1'
_cell_length_a   18.76837893
_cell_length_b   18.76456915
_cell_length_c   18.77071339
_cell_angle_alpha   90.01255822
_cell_angle_beta   90.01259407
_cell_angle_gamma   90.04701002
_symmetry_Int_Tables_number   1
_chemical_formula_structural   In2Te3
_chemical_formula_sum   'In72 Te108'
_cell_volume   6610.67751567
_cell_formula_units_Z   36
loop_
 _symmetry_equiv_pos_site_id
 _symmetry_equiv_pos_as_xyz
  1  'x, y, z'
loop_
 _atom_site_type_symbol
 _atom_site_label
 _atom_site_symmetry_multiplicity
 _atom_site_fract_x
 _atom_site_fract_y
 _atom_site_fract_z
 _atom_site_occupancy
  In  In0  1  0.81292787  0.02728377  0.49050657  1
  In  In1  1  0.16612405  0.17275477  0.66293473  1
  In  In2  1  0.35493026  0.14777827  0.16884515  1
  In  In3  1  0.52777337  0.49899903  0.00416518  1
  In  In4  1  0.64698067  0.84200117  0.49364277  1
  In  In5  1  0.18169038  0.18138739  0.34115730  1
  In  In6  1  0.33740897  0.33009867  0.34122618  1
  In  In7  1  0.81425420  0.66184388  0.54182642  1
  In  In8  1  0.50163870  0.84069296  -0.00882206  1
  In  In9  1  0.33600355  0.00099290  0.69538562  1
  In  In10  1  0.79493580  0.81638305  0.69289470  1
  In  In11  1  0.68237139  0.33096965  0.31033805  1
  In  In12  1  0.36735452  0.01008655  0.01737458  1
  In  In13  1  0.66184518  0.00864868  0.35117225  1
  In  In14  1  0.18180268  0.85540458  0.00006720  1
  In  In15  1  0.84635053  0.84038760  0.34761578  1
  In  In16  1  0.80864113  0.31378853  0.51990119  1
  In  In17  1  0.84352037  0.48067678  0.34976141  1
  In  In18  1  -0.02067931  -0.00654174  0.65332513  1
  In  In19  1  0.64568743  0.32494352  0.01871384  1
  In  In20  1  0.34534413  0.81644856  0.48904095  1
  In  In21  1  0.16441155  -0.01066393  0.83348590  1
  In  In22  1  0.67347924  0.02020050  -0.02022860  1
  In  In23  1  0.15347382  0.17228518  -0.02064466  1
  In  In24  1  0.83203148  0.01733291  0.15496541  1
  In  In25  1  0.33611853  0.68456575  -0.00507504  1
  In  In26  1  0.15939824  -0.00727698  0.51512630  1
  In  In27  1  0.00423038  0.66078576  0.32844855  1
  In  In28  1  0.51545857  0.67728705  0.49795288  1
  In  In29  1  0.81639568  0.67818251  0.14684260  1
  In  In30  1  0.17458326  -0.02470511  0.15579059  1
  In  In31  1  0.17003068  0.82723678  0.31285638  1
  In  In32  1  0.36993878  0.16470307  0.82848315  1
  In  In33  1  0.49822381  0.32525220  0.50893152  1
  In  In34  1  -0.00005082  0.86606289  0.14697163  1
  In  In35  1  0.34380073  0.31278023  0.66135710  1
  In  In36  1  0.50279412  0.47343278  0.66419004  1
  In  In37  1  -0.03694296  0.50586246  0.79976514  1
  In  In38  1  -0.02063945  0.47245727  0.18597043  1
  In  In39  1  0.66023425  0.49959919  0.15772628  1
  In  In40  1  0.66600853  0.82561238  0.15657526  1
  In  In41  1  0.66206261  0.03174354  0.68236761  1
  In  In42  1  -0.01177499  0.47458535  0.51454533  1
  In  In43  1  0.33201997  0.66884400  0.66433182  1
  In  In44  1  0.33345803  0.83613264  0.86117865  1
  In  In45  1  0.68021372  0.50193532  0.82724100  1
  In  In46  1  0.82542249  0.16623241  0.00228806  1
  In  In47  1  0.17355460  0.63919533  0.50261613  1
  In  In48  1  -0.02318674  0.67155211  -0.01768462  1
  In  In49  1  0.79232114  0.49798132  -0.00880747  1
  In  In50  1  0.17249751  0.33042472  0.16435332  1
  In  In51  1  0.64329245  0.65288994  0.32653594  1
  In  In52  1  -0.02805317  0.02290610  0.01453541  1
  In  In53  1  0.35147980  0.34009261  -0.01371403  1
  In  In54  1  -0.02304809  0.17860129  0.84386841  1
  In  In55  1  0.37404350  -0.02447979  0.31616987  1
  In  In56  1  0.50379051  0.16519042  0.33137121  1
  In  In57  1  0.17730948  0.67213855  0.16687997  1
  In  In58  1  0.51715165  0.01439769  0.50600289  1
  In  In59  1  0.15011215  0.50725602  -0.00890919  1
  In  In60  1  0.33003431  0.49952953  0.46820016  1
  In  In61  1  -0.03051965  0.82684940  0.51220119  1
  In  In62  1  0.15205044  0.48870310  0.67494015  1
  In  In63  1  0.15421906  0.33989921  0.48583001  1
  In  In64  1  0.83199066  0.33531008  0.82558241  1
  In  In65  1  0.36504557  0.51810845  0.19653387  1
  In  In66  1  0.00662573  0.82329358  0.80469805  1
  In  In67  1  -0.01284624  0.18215666  0.50313446  1
  In  In68  1  0.52782299  0.85073840  0.67891041  1
  In  In69  1  0.50968040  0.66281547  0.85771624  1
  In  In70  1  0.33535242  0.48464305  0.80089946  1
  In  In71  1  -0.03553199  0.18549412  0.17557161  1
  Te  Te72  1  0.08969670  0.08934592  0.09303857  1
  Te  Te73  1  0.08719622  0.09394862  0.42636246  1
  Te  Te74  1  0.07549239  0.08011273  0.74830948  1
  Te  Te75  1  0.07250825  0.40844940  0.07943952  1
  Te  Te76  1  0.07558003  0.43204361  0.40316980  1
  Te  Te77  1  0.06786495  0.40527526  0.76225571  1
  Te  Te78  1  0.08006719  0.75204124  0.07743815  1
  Te  Te79  1  0.07860722  0.75860664  0.42133493  1
  Te  Te80  1  0.12389692  0.75945486  0.74933368  1
  Te  Te81  1  0.47052335  0.09891020  0.08308024  1
  Te  Te82  1  0.40908329  0.08197733  0.41947774  1
  Te  Te83  1  0.45215276  0.09234516  0.72389527  1
  Te  Te84  1  0.42759527  0.42300284  0.09060991  1
  Te  Te85  1  0.44317118  0.42311011  0.40234242  1
  Te  Te86  1  0.43751964  0.37731145  0.76495621  1
  Te  Te87  1  0.44543642  0.73387739  0.07968937  1
  Te  Te88  1  0.41492129  0.72272891  0.39310905  1
  Te  Te89  1  0.42136170  0.75338155  0.75594716  1
  Te  Te90  1  0.72542109  0.11048200  0.10211348  1
  Te  Te91  1  0.75936807  0.11646598  0.38526882  1
  Te  Te92  1  0.74275951  0.14194863  0.74671386  1
  Te  Te93  1  0.75664378  0.39517761  0.09732576  1
  Te  Te94  1  0.73500251  0.42002388  0.43285525  1
  Te  Te95  1  0.74088417  0.40781521  0.72690214  1
  Te  Te96  1  0.72653568  0.74081264  0.04861108  1
  Te  Te97  1  0.75090797  0.74804034  0.42214294  1
  Te  Te98  1  0.72948748  0.72979092  0.79502333  1
  Te  Te99  1  0.07857077  0.25601974  0.25904169  1
  Te  Te100  1  0.07261738  0.27191317  0.59528917  1
  Te  Te101  1  0.07744268  0.27228276  0.90327363  1
  Te  Te102  1  0.08760943  0.57025303  0.24055287  1
  Te  Te103  1  0.06479961  0.58415409  0.59266840  1
  Te  Te104  1  0.06451892  0.58527606  0.89254529  1
  Te  Te105  1  0.07018297  0.93372238  0.26312893  1
  Te  Te106  1  0.08043060  0.89387640  0.59898314  1
  Te  Te107  1  0.06395905  0.92613516  0.93186705  1
  Te  Te108  1  0.42763167  0.26326042  0.23930899  1
  Te  Te109  1  0.43573866  0.21887902  0.59399325  1
  Te  Te110  1  0.44626723  0.23292186  0.93818727  1
  Te  Te111  1  0.43729736  0.61008873  0.28395886  1
  Te  Te112  1  0.41783257  0.57624434  0.57799385  1
  Te  Te113  1  0.40401306  0.56507278  0.91391911  1
  Te  Te114  1  0.41867951  0.90463590  0.19794398  1
  Te  Te115  1  0.41906774  0.91144047  0.58519515  1
  Te  Te116  1  0.43401264  0.94455305  0.89614319  1
  Te  Te117  1  0.78439842  0.25588069  0.23301909  1
  Te  Te118  1  0.72692139  0.22101629  0.60922414  1
  Te  Te119  1  0.73622183  0.25652760  0.91668721  1
  Te  Te120  1  0.76653897  0.58049888  0.25441497  1
  Te  Te121  1  0.75755197  0.55397509  0.62722388  1
  Te  Te122  1  0.75944260  0.61098359  0.89757261  1
  Te  Te123  1  0.75414378  0.91612153  0.25299577  1
  Te  Te124  1  0.74977464  0.91744974  0.57852962  1
  Te  Te125  1  0.77623844  0.92095050  0.94240422  1
  Te  Te126  1  0.26287550  0.24019351  0.07734291  1
  Te  Te127  1  0.26912956  0.24604862  0.44853376  1
  Te  Te128  1  0.25358345  0.24442053  0.76653802  1
  Te  Te129  1  0.25794856  0.57204643  0.08223741  1
  Te  Te130  1  0.24751346  0.59027499  0.38591212  1
  Te  Te131  1  0.23642955  0.59128094  0.75453513  1
  Te  Te132  1  0.29495145  0.89256830  0.09876405  1
  Te  Te133  1  0.25166369  0.91921409  0.41388864  1
  Te  Te134  1  0.24038725  0.89028340  0.74588902  1
  Te  Te135  1  0.54684330  0.23800881  0.08446592  1
  Te  Te136  1  0.59545561  0.25323394  0.41340408  1
  Te  Te137  1  0.59342775  0.18468785  0.76293415  1
  Te  Te138  1  0.59527511  0.60788705  0.07846501  1
  Te  Te139  1  0.60538082  0.57295928  0.44411122  1
  Te  Te140  1  0.57475640  0.58122899  0.74619890  1
  Te  Te141  1  0.58901144  0.93132692  0.07752736  1
  Te  Te142  1  0.54966591  0.90902633  0.39909225  1
  Te  Te143  1  0.61607117  0.92312897  0.77322128  1
  Te  Te144  1  0.93540687  0.25430602  0.04993726  1
  Te  Te145  1  0.90854964  0.27186025  0.41611833  1
  Te  Te146  1  0.91704126  0.25486332  0.73277791  1
  Te  Te147  1  0.91449984  0.57426135  0.08583144  1
  Te  Te148  1  0.91019879  0.59843060  0.43172348  1
  Te  Te149  1  0.87231742  0.59609588  0.72176135  1
  Te  Te150  1  0.87446596  0.89945784  0.05816201  1
  Te  Te151  1  0.92735318  0.94365761  0.42529854  1
  Te  Te152  1  0.89181336  0.92119447  0.75318207  1
  Te  Te153  1  0.25144118  0.07403842  0.25558886  1
  Te  Te154  1  0.26148656  0.08089924  0.58732671  1
  Te  Te155  1  0.25793397  0.07421213  0.92118896  1
  Te  Te156  1  0.25411394  0.42293357  0.25379152  1
  Te  Te157  1  0.25889112  0.42220043  0.58466080  1
  Te  Te158  1  0.24537786  0.41746782  0.90791755  1
  Te  Te159  1  0.27574751  0.75003120  0.24522292  1
  Te  Te160  1  0.23865748  0.75479044  0.57878209  1
  Te  Te161  1  0.22172930  0.73968380  0.90801974  1
  Te  Te162  1  0.58259443  0.07441958  0.24506958  1
  Te  Te163  1  0.62435938  0.10809221  0.55578807  1
  Te  Te164  1  0.58868161  0.10719161  0.89291405  1
  Te  Te165  1  0.57971859  0.41803533  0.24937190  1
  Te  Te166  1  0.60035068  0.38018379  0.60419295  1
  Te  Te167  1  0.58510506  0.40558528  0.90084255  1
  Te  Te168  1  0.57582515  0.76425236  0.25841744  1
  Te  Te169  1  0.60553502  0.74251411  0.60376547  1
  Te  Te170  1  0.59991253  0.77769312  0.89270622  1
  Te  Te171  1  0.90707087  0.08428979  0.26484430  1
  Te  Te172  1  0.89363382  0.10434784  0.59659143  1
  Te  Te173  1  0.88461691  0.06850608  0.89691997  1
  Te  Te174  1  0.89085876  0.36764627  0.25681140  1
  Te  Te175  1  0.89213150  0.40814778  0.60430674  1
  Te  Te176  1  0.90783408  0.42797694  0.92162656  1
  Te  Te177  1  0.92239357  0.75686614  0.23847051  1
  Te  Te178  1  0.91712436  0.74019495  0.62638062  1
  Te  Te179  1  0.90346160  0.76072436  0.89053037  1
