# generated using pymatgen
data_In2Te3
_symmetry_space_group_name_H-M   'P 1'
_cell_length_a   18.99720066
_cell_length_b   18.99947781
_cell_length_c   18.98272409
_cell_angle_alpha   90.00008255
_cell_angle_beta   89.93045149
_cell_angle_gamma   89.95190220
_symmetry_Int_Tables_number   1
_chemical_formula_structural   In2Te3
_chemical_formula_sum   'In72 Te108'
_cell_volume   6851.55798287
_cell_formula_units_Z   36
loop_
 _symmetry_equiv_pos_site_id
 _symmetry_equiv_pos_as_xyz
  1  'x, y, z'
loop_
 _atom_site_type_symbol
 _atom_site_label
 _atom_site_symmetry_multiplicity
 _atom_site_fract_x
 _atom_site_fract_y
 _atom_site_fract_z
 _atom_site_occupancy
  In  In0  1  0.32544442  0.69973406  -0.01478370  1
  In  In1  1  0.84694685  -0.01121912  0.47448628  1
  In  In2  1  0.83127704  0.64746977  0.82312926  1
  In  In3  1  0.45922445  -0.01885361  0.51070867  1
  In  In4  1  0.49035876  0.37334199  0.19390207  1
  In  In5  1  0.67467718  0.01062484  0.66507626  1
  In  In6  1  -0.01053423  0.49254013  0.78512619  1
  In  In7  1  -0.00553121  0.32980614  0.35384600  1
  In  In8  1  0.48622764  0.52038310  0.33865883  1
  In  In9  1  0.83257060  0.29268741  0.15330583  1
  In  In10  1  0.31307189  -0.01267385  0.32523398  1
  In  In11  1  0.83325960  0.81925107  0.33669664  1
  In  In12  1  0.84559499  0.15082566  -0.01055821  1
  In  In13  1  0.14090363  -0.03551399  0.20745668  1
  In  In14  1  0.34151677  0.32477904  0.36679779  1
  In  In15  1  0.16429284  -0.00651249  0.50225178  1
  In  In16  1  0.29911217  0.81085639  0.17554087  1
  In  In17  1  0.46691184  0.69467397  0.79545387  1
  In  In18  1  0.49648524  -0.01811196  0.82549768  1
  In  In19  1  0.34444027  0.54718757  0.50433147  1
  In  In20  1  0.83150181  0.16463715  0.33781263  1
  In  In21  1  0.68150841  0.18564760  0.78610869  1
  In  In22  1  0.52087674  0.18082521  0.36277772  1
  In  In23  1  0.31685920  0.34708975  0.64955469  1
  In  In24  1  0.15514962  0.33302002  0.80593052  1
  In  In25  1  0.04642944  0.67822253  -0.02186806  1
  In  In26  1  0.50219964  0.17974675  0.66109256  1
  In  In27  1  0.84461176  0.48810650  -0.03463659  1
  In  In28  1  0.47012145  0.81785182  0.36678862  1
  In  In29  1  0.50079493  0.50213961  0.64911194  1
  In  In30  1  -0.02709844  0.50763232  0.52995345  1
  In  In31  1  0.16720124  0.36118494  0.17892167  1
  In  In32  1  0.16642260  0.84447801  -0.00545433  1
  In  In33  1  0.15584760  0.52161872  0.35518169  1
  In  In34  1  0.70038551  0.18290345  0.53941080  1
  In  In35  1  0.49825616  0.52415974  -0.00872084  1
  In  In36  1  0.65990150  0.67500100  0.35916877  1
  In  In37  1  0.83999911  0.83407679  -0.00626980  1
  In  In38  1  0.67561023  0.16930496  0.15603908  1
  In  In39  1  0.32661169  0.14343105  0.82477138  1
  In  In40  1  0.00238782  -0.00330662  0.00443788  1
  In  In41  1  0.18215968  0.50247263  -0.01095964  1
  In  In42  1  -0.00806086  -0.02221882  0.67856822  1
  In  In43  1  0.64670877  0.48913838  0.17252790  1
  In  In44  1  0.01286976  0.17849831  0.81522947  1
  In  In45  1  0.67532575  0.01397039  0.00419732  1
  In  In46  1  0.03186892  0.16529329  0.53510545  1
  In  In47  1  0.66089565  0.34172844  0.01385459  1
  In  In48  1  0.66906870  0.48040980  0.82850905  1
  In  In49  1  0.65884611  0.83780373  0.49540412  1
  In  In50  1  0.29547699  0.15933177  0.50063274  1
  In  In51  1  0.82238752  0.33380371  0.80855771  1
  In  In52  1  0.82013406  0.66348973  0.15318362  1
  In  In53  1  0.86692181  0.80368020  0.64000817  1
  In  In54  1  0.34483508  0.30211941  -0.00136934  1
  In  In55  1  0.30300575  0.50752967  0.79961444  1
  In  In56  1  0.83091266  0.48475289  0.34766451  1
  In  In57  1  0.68200872  0.83660757  0.19120005  1
  In  In58  1  0.68277688  0.49636234  0.50390506  1
  In  In59  1  0.65245603  0.82703123  0.85069853  1
  In  In60  1  -0.00789129  0.50462517  0.16241172  1
  In  In61  1  0.65548108  0.67248806  0.65325893  1
  In  In62  1  0.32150436  -0.02021143  -0.03475704  1
  In  In63  1  0.19850642  0.83136323  0.66115298  1
  In  In64  1  0.15264023  0.51516897  0.65955024  1
  In  In65  1  0.32458974  0.52741320  0.16692022  1
  In  In66  1  0.01200442  0.67371597  0.33377726  1
  In  In67  1  0.16109799  -0.00599915  0.83300466  1
  In  In68  1  0.31976975  0.14733501  0.18505637  1
  In  In69  1  -0.00859230  0.15605647  0.17718984  1
  In  In70  1  0.50435041  0.16183436  -0.01687197  1
  In  In71  1  0.50425976  0.00415914  0.16458166  1
  Te  Te72  1  0.09064540  0.06827531  0.10342223  1
  Te  Te73  1  0.07926049  0.08375753  0.42320320  1
  Te  Te74  1  0.09259840  0.08030776  0.73087370  1
  Te  Te75  1  0.08108831  0.42224130  0.07061329  1
  Te  Te76  1  0.07064829  0.42826413  0.43789948  1
  Te  Te77  1  0.05919704  0.38751765  0.69487619  1
  Te  Te78  1  0.07957109  0.76976189  0.08655630  1
  Te  Te79  1  0.11321074  0.77088999  0.38455436  1
  Te  Te80  1  0.13455952  0.73843669  0.75790481  1
  Te  Te81  1  0.40872458  0.08449353  0.07101376  1
  Te  Te82  1  0.40824245  0.08502801  0.40222654  1
  Te  Te83  1  0.41957139  0.07029259  0.73043756  1
  Te  Te84  1  0.40382634  0.42232870  0.07485847  1
  Te  Te85  1  0.42267526  0.42666880  0.43995827  1
  Te  Te86  1  0.41118687  0.41873589  0.74369488  1
  Te  Te87  1  0.40721404  0.76031992  0.09097111  1
  Te  Te88  1  0.38875050  0.71427667  0.43203223  1
  Te  Te89  1  0.38534471  0.80577274  0.74237209  1
  Te  Te90  1  0.77714837  0.07218513  0.10018018  1
  Te  Te91  1  0.73843104  0.08509912  0.42901248  1
  Te  Te92  1  0.76968698  0.07478326  0.75600403  1
  Te  Te93  1  0.76145345  0.42779299  0.08807362  1
  Te  Te94  1  0.78196493  0.39159430  0.45226569  1
  Te  Te95  1  0.77552260  0.45058478  0.73173240  1
  Te  Te96  1  0.73400556  0.75576830  0.07241054  1
  Te  Te97  1  0.76366095  0.73887708  0.44667579  1
  Te  Te98  1  0.74831441  0.75269094  0.75223124  1
  Te  Te99  1  0.07923858  0.26050188  0.24978226  1
  Te  Te100  1  0.10403050  0.27034255  0.60379542  1
  Te  Te101  1  0.10029330  0.24725536  0.91081670  1
  Te  Te102  1  0.09395503  0.58881437  0.23390218  1
  Te  Te103  1  0.08791680  0.60464412  0.55759894  1
  Te  Te104  1  0.08190703  0.55920305  0.89164893  1
  Te  Te105  1  0.06531163  0.90283592  0.31707387  1
  Te  Te106  1  0.08281689  0.89723567  0.58769397  1
  Te  Te107  1  0.06307294  0.90311705  0.90043017  1
  Te  Te108  1  0.41704001  0.24721383  0.25169579  1
  Te  Te109  1  0.40125207  0.24748600  0.57155348  1
  Te  Te110  1  0.42602692  0.24376789  0.88342239  1
  Te  Te111  1  0.43458485  0.60179971  0.22827240  1
  Te  Te112  1  0.40727065  0.61123799  0.62112553  1
  Te  Te113  1  0.39001473  0.58433852  0.90165906  1
  Te  Te114  1  0.41752920  0.90958227  0.24654085  1
  Te  Te115  1  0.42116545  0.86800824  0.60012127  1
  Te  Te116  1  0.43960115  0.90150163  0.93458840  1
  Te  Te117  1  0.73534750  0.26163014  0.26136764  1
  Te  Te118  1  0.79829134  0.26619068  0.61466000  1
  Te  Te119  1  0.74536977  0.24996197  0.92809092  1
  Te  Te120  1  0.74480662  0.58811279  0.26292908  1
  Te  Te121  1  0.75757167  0.59099728  0.58834113  1
  Te  Te122  1  0.73492420  0.58220367  0.92285661  1
  Te  Te123  1  0.75933743  0.92830385  0.27236947  1
  Te  Te124  1  0.76353801  0.91179913  0.58621327  1
  Te  Te125  1  0.75314028  0.92606004  0.90892361  1
  Te  Te126  1  0.24669590  0.25213917  0.10165214  1
  Te  Te127  1  0.22433741  0.25845040  0.42059263  1
  Te  Te128  1  0.24997728  0.23919349  0.73370017  1
  Te  Te129  1  0.23753128  0.61126685  0.07711996  1
  Te  Te130  1  0.26922340  0.61444333  0.38943177  1
  Te  Te131  1  0.23870123  0.61975069  0.72554366  1
  Te  Te132  1  0.25055687  0.93232064  0.09665918  1
  Te  Te133  1  0.27067591  0.90466396  0.44001282  1
  Te  Te134  1  0.26876306  0.91131833  0.77039514  1
  Te  Te135  1  0.56255119  0.25538681  0.09174103  1
  Te  Te136  1  0.60132016  0.25581490  0.45795889  1
  Te  Te137  1  0.59258089  0.28095415  0.72144939  1
  Te  Te138  1  0.57587990  0.59032274  0.09591877  1
  Te  Te139  1  0.57246289  0.58753761  0.44345259  1
  Te  Te140  1  0.57811334  0.58708409  0.76164803  1
  Te  Te141  1  0.59538788  0.91533240  0.08466333  1
  Te  Te142  1  0.56622993  0.92539564  0.41376531  1
  Te  Te143  1  0.59018500  0.90543250  0.73529870  1
  Te  Te144  1  0.93912140  0.24696690  0.06035721  1
  Te  Te145  1  0.92472536  0.22878083  0.43740082  1
  Te  Te146  1  0.90221664  0.23499957  0.72917791  1
  Te  Te147  1  0.91761226  0.58782280  0.06053370  1
  Te  Te148  1  0.91255040  0.59042269  0.41558340  1
  Te  Te149  1  0.94766377  0.62433026  0.72846931  1
  Te  Te150  1  0.92377317  0.90668135  0.08861955  1
  Te  Te151  1  0.93746547  0.88209435  0.42450877  1
  Te  Te152  1  0.91522537  0.87843858  0.75441632  1
  Te  Te153  1  0.21315008  0.08695623  0.27343823  1
  Te  Te154  1  0.24940834  0.06401652  0.59975307  1
  Te  Te155  1  0.22938110  0.09270388  0.92950521  1
  Te  Te156  1  0.26684112  0.43030812  0.27086842  1
  Te  Te157  1  0.24572578  0.44586604  0.56109299  1
  Te  Te158  1  0.26079419  0.39920929  0.90899682  1
  Te  Te159  1  0.23866440  0.75187069  0.29278979  1
  Te  Te160  1  0.29111872  0.79027347  0.54631500  1
  Te  Te161  1  0.21614230  0.74337156  0.89262231  1
  Te  Te162  1  0.58769220  0.09244715  0.25306985  1
  Te  Te163  1  0.56955556  0.07323454  0.57324251  1
  Te  Te164  1  0.59789968  0.08701061  0.89210152  1
  Te  Te165  1  0.59569186  0.41603419  0.29295876  1
  Te  Te166  1  0.60197118  0.41033678  0.59538245  1
  Te  Te167  1  0.56633073  0.40927382  0.91851626  1
  Te  Te168  1  0.57632413  0.75851722  0.26714158  1
  Te  Te169  1  0.56353919  0.76033006  0.57744158  1
  Te  Te170  1  0.55051311  0.73840952  0.90753059  1
  Te  Te171  1  0.91616846  0.06934551  0.26621906  1
  Te  Te172  1  0.91917113  0.06750579  0.58026418  1
  Te  Te173  1  0.93127625  0.07401898  0.89424932  1
  Te  Te174  1  0.91479206  0.40077480  0.24126650  1
  Te  Te175  1  0.87717989  0.40104741  0.57608885  1
  Te  Te176  1  0.93559663  0.39555131  0.89147058  1
  Te  Te177  1  0.91839762  0.74312681  0.23390829  1
  Te  Te178  1  0.97530579  0.71187389  0.60037992  1
  Te  Te179  1  0.92116888  0.73288244  0.91237722  1
