# generated using pymatgen
data_In2Te3
_symmetry_space_group_name_H-M   'P 1'
_cell_length_a   19.04832750
_cell_length_b   19.06872987
_cell_length_c   19.02720051
_cell_angle_alpha   89.97271125
_cell_angle_beta   89.72524491
_cell_angle_gamma   90.06610061
_symmetry_Int_Tables_number   1
_chemical_formula_structural   In2Te3
_chemical_formula_sum   'In72 Te108'
_cell_volume   6911.11592280
_cell_formula_units_Z   36
loop_
 _symmetry_equiv_pos_site_id
 _symmetry_equiv_pos_as_xyz
  1  'x, y, z'
loop_
 _atom_site_type_symbol
 _atom_site_label
 _atom_site_symmetry_multiplicity
 _atom_site_fract_x
 _atom_site_fract_y
 _atom_site_fract_z
 _atom_site_occupancy
  In  In0  1  0.81785889  0.16766019  0.68307554  1
  In  In1  1  0.66324432  0.49474021  0.14980581  1
  In  In2  1  0.01381014  0.83078996  0.82494056  1
  In  In3  1  0.82749153  0.49600596  0.35543860  1
  In  In4  1  0.51571342  0.47261168  0.68235083  1
  In  In5  1  0.66793345  0.69716623  -0.00611111  1
  In  In6  1  0.85811989  0.52502894  0.67493749  1
  In  In7  1  0.31183910  0.50410627  0.16418381  1
  In  In8  1  0.45254532  0.14530087  0.36969047  1
  In  In9  1  -0.02037967  0.19401622  0.16665699  1
  In  In10  1  0.49455400  0.85134104  0.33479915  1
  In  In11  1  0.80264841  -0.00034391  0.15004122  1
  In  In12  1  0.47995073  0.33084239  0.16760263  1
  In  In13  1  0.15955416  0.32395981  0.83255517  1
  In  In14  1  0.15849933  0.67109413  0.47558769  1
  In  In15  1  0.86141485  0.80987505  0.64347059  1
  In  In16  1  0.16975737  0.15610582  0.66813003  1
  In  In17  1  0.30822581  0.45713872  0.50607900  1
  In  In18  1  0.62286127  0.31189172  0.33554587  1
  In  In19  1  0.33979360  0.15339996  0.16930412  1
  In  In20  1  0.49681379  0.31050529  0.82567068  1
  In  In21  1  0.32896504  0.49268370  0.85879649  1
  In  In22  1  0.00754356  0.52466116  0.18424451  1
  In  In23  1  0.33113120  0.00012516  -0.00166554  1
  In  In24  1  0.16397622  0.18140883  0.00762062  1
  In  In25  1  0.50616731  0.69193045  0.14337800  1
  In  In26  1  0.66506903  0.51450422  0.84464928  1
  In  In27  1  0.68987023  0.66022549  0.66872081  1
  In  In28  1  0.80330920  0.34246851  0.15618665  1
  In  In29  1  0.33979547  0.83336205  0.50328668  1
  In  In30  1  0.16470340  0.51403412  0.32572705  1
  In  In31  1  0.84978609  0.67313338  0.13413668  1
  In  In32  1  0.31860890  0.67516374  -0.01144674  1
  In  In33  1  0.65691526  0.32345138  -0.01254018  1
  In  In34  1  0.86314751  0.68195123  0.82849740  1
  In  In35  1  0.04411416  0.17218644  0.50617201  1
  In  In36  1  0.17312659  -0.02189975  0.50038311  1
  In  In37  1  0.83948151  0.00661102  0.48838566  1
  In  In38  1  0.20988117  0.16379503  0.36081201  1
  In  In39  1  0.17766106  0.33530128  0.18239947  1
  In  In40  1  0.47359782  -0.01665843  0.16453638  1
  In  In41  1  0.63321872  -0.00405019  0.64533392  1
  In  In42  1  0.82909019  0.32499972  0.83279889  1
  In  In43  1  0.32645121  0.69763104  0.32366001  1
  In  In44  1  0.01245064  0.34108966  0.33233297  1
  In  In45  1  -0.02237939  0.35444410  -0.00708830  1
  In  In46  1  0.16301439  0.83367434  -0.00493094  1
  In  In47  1  0.17662964  0.48862969  0.69813639  1
  In  In48  1  0.84443710  0.18736046  0.32600329  1
  In  In49  1  0.47673954  0.51658330  0.34972255  1
  In  In50  1  0.00927561  0.51590252  0.50058130  1
  In  In51  1  0.43907306  0.86927647  0.68722582  1
  In  In52  1  0.66280905  0.66047459  0.32705746  1
  In  In53  1  0.86189301  0.84204667  0.33962557  1
  In  In54  1  0.21591596  0.83933153  0.75448422  1
  In  In55  1  0.66347706  0.02386678  0.30928266  1
  In  In56  1  0.67884873  0.82644521  0.47024779  1
  In  In57  1  -0.00811704  0.00325524  -0.01573345  1
  In  In58  1  0.69603116  0.47268484  0.52239866  1
  In  In59  1  0.13434441  0.50863541  -0.02094841  1
  In  In60  1  0.82807658  -0.00222111  0.84786388  1
  In  In61  1  0.65520003  0.03139429  -0.01350724  1
  In  In62  1  -0.00192975  -0.03098518  0.31943055  1
  In  In63  1  0.50976396  0.65197068  0.53498445  1
  In  In64  1  0.14468471  -0.00947491  0.18377031  1
  In  In65  1  0.46417243  0.17041663  0.62863939  1
  In  In66  1  0.34313422  0.65427102  0.67709514  1
  In  In67  1  0.49374188  0.84590023  -0.01085232  1
  In  In68  1  0.67288878  0.31457963  0.69114411  1
  In  In69  1  0.34878349  0.16424229  0.84136945  1
  In  In70  1  0.02521074  0.00210703  0.65791237  1
  In  In71  1  0.01640684  0.82400844  0.14420559  1
  Te  Te72  1  0.07436469  0.09015928  0.09342047  1
  Te  Te73  1  0.08622895  0.06681145  0.40409052  1
  Te  Te74  1  0.08076511  0.08685363  0.76129403  1
  Te  Te75  1  0.07547570  0.40857633  0.10202311  1
  Te  Te76  1  0.10514736  0.41307690  0.42144514  1
  Te  Te77  1  0.06590233  0.43001209  0.78142441  1
  Te  Te78  1  0.06151433  0.73420669  0.03589608  1
  Te  Te79  1  0.04194654  0.75706601  0.45887223  1
  Te  Te80  1  0.09896910  0.75499139  0.73190401  1
  Te  Te81  1  0.42985553  0.09206296  0.06499682  1
  Te  Te82  1  0.37953916  0.05231137  0.46020527  1
  Te  Te83  1  0.41260706  0.07996631  0.73610195  1
  Te  Te84  1  0.41662501  0.43587217  0.08915836  1
  Te  Te85  1  0.42760772  0.40515163  0.43353057  1
  Te  Te86  1  0.40286056  0.40651737  0.75506420  1
  Te  Te87  1  0.39592533  0.76838641  0.07945074  1
  Te  Te88  1  0.44512705  0.73481890  0.42579464  1
  Te  Te89  1  0.43977720  0.73562378  0.74761408  1
  Te  Te90  1  0.71602068  0.10336231  0.09993295  1
  Te  Te91  1  0.75231805  0.09851613  0.40812179  1
  Te  Te92  1  0.73856860  0.05583947  0.74126963  1
  Te  Te93  1  0.75121871  0.43011184  0.04613160  1
  Te  Te94  1  0.74005856  0.38524572  0.40733190  1
  Te  Te95  1  0.74794607  0.43831431  0.74346461  1
  Te  Te96  1  0.74415264  0.76359131  0.09881747  1
  Te  Te97  1  0.77395537  0.73184448  0.40249733  1
  Te  Te98  1  0.76250278  0.76428459  0.74991463  1
  Te  Te99  1  0.09852492  0.23076105  0.26184793  1
  Te  Te100  1  0.09116084  0.26610034  0.60644640  1
  Te  Te101  1  0.06095146  0.24854827  0.92202597  1
  Te  Te102  1  0.10142252  0.62376853  0.24742192  1
  Te  Te103  1  0.11727085  0.57559443  0.58552845  1
  Te  Te104  1  0.04619885  0.55600064  0.87235087  1
  Te  Te105  1  0.09936824  0.87040009  0.26418635  1
  Te  Te106  1  0.13785326  0.90693996  0.62859775  1
  Te  Te107  1  0.09618787  0.93316863  0.90251687  1
  Te  Te108  1  0.40039301  0.25028562  0.26786335  1
  Te  Te109  1  0.40083337  0.27834260  0.54893099  1
  Te  Te110  1  0.42265065  0.24819275  0.93483525  1
  Te  Te111  1  0.41839038  0.60074867  0.23689187  1
  Te  Te112  1  0.41271681  0.54593306  0.58631942  1
  Te  Te113  1  0.41615173  0.58274278  0.93198530  1
  Te  Te114  1  0.38826236  0.89895000  0.24881133  1
  Te  Te115  1  0.43212263  0.93853262  0.55198886  1
  Te  Te116  1  0.39713103  0.91399366  0.89940383  1
  Te  Te117  1  0.72994043  0.24656407  0.24686988  1
  Te  Te118  1  0.74887218  0.24969930  0.58518973  1
  Te  Te119  1  0.72391531  0.22988151  0.89028212  1
  Te  Te120  1  0.75503499  0.57453010  0.24053726  1
  Te  Te121  1  0.77435820  0.59322841  0.56393248  1
  Te  Te122  1  0.76059542  0.60648646  0.91317030  1
  Te  Te123  1  0.75117830  0.91034938  0.26050608  1
  Te  Te124  1  0.75880754  0.90878817  0.57132137  1
  Te  Te125  1  0.73976964  0.92325066  0.93542755  1
  Te  Te126  1  0.26548891  0.25727863  0.08788661  1
  Te  Te127  1  0.27615052  0.22004307  0.47916319  1
  Te  Te128  1  0.26040690  0.24729519  0.75070930  1
  Te  Te129  1  0.22472423  0.58636344  0.07095451  1
  Te  Te130  1  0.27313472  0.58274449  0.41602107  1
  Te  Te131  1  0.24876885  0.59301831  0.77869890  1
  Te  Te132  1  0.24138640  0.91983164  0.09091841  1
  Te  Te133  1  0.24164520  0.88588534  0.40918447  1
  Te  Te134  1  0.32027764  0.94440076  0.75041843  1
  Te  Te135  1  0.58615593  0.25803987  0.09821641  1
  Te  Te136  1  0.56862589  0.21482211  0.43275161  1
  Te  Te137  1  0.56913923  0.21430431  0.73522529  1
  Te  Te138  1  0.58240870  0.58812070  0.06567149  1
  Te  Te139  1  0.59831398  0.57129119  0.43668091  1
  Te  Te140  1  0.57812403  0.59241861  0.74872504  1
  Te  Te141  1  0.58212726  0.92538640  0.08067856  1
  Te  Te142  1  0.59236683  0.93557124  0.41224039  1
  Te  Te143  1  0.56016461  0.92594926  0.74913076  1
  Te  Te144  1  0.88596653  0.25147371  0.06663249  1
  Te  Te145  1  0.93632232  0.25154185  0.42640359  1
  Te  Te146  1  0.91871888  0.25134467  0.74577516  1
  Te  Te147  1  0.92924884  0.56922401  0.07108828  1
  Te  Te148  1  0.94166376  0.57892697  0.38678677  1
  Te  Te149  1  0.95860131  0.61523320  0.73587019  1
  Te  Te150  1  0.91715196  0.92150008  0.08634919  1
  Te  Te151  1  0.94733675  0.90616442  0.45042171  1
  Te  Te152  1  0.92087981  0.91903460  0.73775726  1
  Te  Te153  1  0.25663640  0.06353695  0.25813155  1
  Te  Te154  1  0.26099651  0.08362499  0.56630687  1
  Te  Te155  1  0.23946297  0.08849802  0.91760187  1
  Te  Te156  1  0.26627274  0.41118533  0.27594735  1
  Te  Te157  1  0.22664588  0.38482774  0.60558164  1
  Te  Te158  1  0.23385123  0.40411730  0.93726484  1
  Te  Te159  1  0.22190116  0.71812584  0.22711813  1
  Te  Te160  1  0.26073236  0.72908187  0.57674583  1
  Te  Te161  1  0.24796181  0.76644906  0.89062862  1
  Te  Te162  1  0.53924095  0.08591152  0.25508199  1
  Te  Te163  1  0.57972736  0.10302456  0.55999195  1
  Te  Te164  1  0.60550321  0.13417265  0.89364222  1
  Te  Te165  1  0.57528464  0.43777546  0.26065251  1
  Te  Te166  1  0.58854549  0.38692823  0.58351009  1
  Te  Te167  1  0.56990172  0.41782432  0.90805519  1
  Te  Te168  1  0.58739658  0.76367343  0.24822963  1
  Te  Te169  1  0.60588548  0.75598266  0.58441689  1
  Te  Te170  1  0.57433545  0.76018730  0.90270442  1
  Te  Te171  1  0.91387056  0.07464689  0.24677467  1
  Te  Te172  1  0.92676323  0.09089298  0.57781832  1
  Te  Te173  1  0.90010452  0.09798434  0.92535923  1
  Te  Te174  1  0.90830113  0.40795818  0.24620806  1
  Te  Te175  1  0.91927217  0.43235292  0.58046775  1
  Te  Te176  1  0.90486700  0.43495631  0.89514483  1
  Te  Te177  1  0.92753033  0.74754947  0.24146885  1
  Te  Te178  1  0.95331040  0.71980333  0.57578488  1
  Te  Te179  1  0.93091834  0.76619773  0.92909563  1
