# generated using pymatgen
data_In2Te3
_symmetry_space_group_name_H-M   'P 1'
_cell_length_a   18.96810091
_cell_length_b   18.97090338
_cell_length_c   18.96497066
_cell_angle_alpha   90.00337441
_cell_angle_beta   89.99724926
_cell_angle_gamma   90.03820317
_symmetry_Int_Tables_number   1
_chemical_formula_structural   In2Te3
_chemical_formula_sum   'In72 Te108'
_cell_volume   6824.39161874
_cell_formula_units_Z   36
loop_
 _symmetry_equiv_pos_site_id
 _symmetry_equiv_pos_as_xyz
  1  'x, y, z'
loop_
 _atom_site_type_symbol
 _atom_site_label
 _atom_site_symmetry_multiplicity
 _atom_site_fract_x
 _atom_site_fract_y
 _atom_site_fract_z
 _atom_site_occupancy
  In  In0  1  0.17114491  0.48825302  0.31242779  1
  In  In1  1  0.02541139  0.68097934  0.36172938  1
  In  In2  1  0.01383501  0.34472746  0.31006521  1
  In  In3  1  0.68410800  0.00276517  0.31624028  1
  In  In4  1  0.48467837  0.51935029  -0.00885588  1
  In  In5  1  0.49434183  0.33359657  0.53044420  1
  In  In6  1  0.00906664  0.15113657  0.48059374  1
  In  In7  1  0.00152610  0.47785054  0.83938022  1
  In  In8  1  0.83769971  0.69011027  0.52057593  1
  In  In9  1  0.67441001  0.32876799  0.32905043  1
  In  In10  1  0.82464492  0.48611577  0.65251964  1
  In  In11  1  0.65331537  0.50725109  0.46783153  1
  In  In12  1  0.66361044  0.84247764  0.49924240  1
  In  In13  1  0.32595206  0.67670198  0.00352805  1
  In  In14  1  0.35966488  0.15410652  0.19124867  1
  In  In15  1  0.67326786  0.31095115  0.67383755  1
  In  In16  1  0.00598106  0.82213451  0.17225946  1
  In  In17  1  0.01108989  0.85156925  0.82704312  1
  In  In18  1  0.84111583  0.15960341  -0.00941559  1
  In  In19  1  0.66736478  0.02675610  0.66629374  1
  In  In20  1  0.49189708  0.34119440  0.83032793  1
  In  In21  1  0.47646749  0.67973770  0.86133829  1
  In  In22  1  0.82168370  0.17429354  0.31884068  1
  In  In23  1  0.02730341  -0.01047084  0.34132987  1
  In  In24  1  0.82358518  0.83683213  -0.01130689  1
  In  In25  1  -0.00277794  0.49916443  0.13019402  1
  In  In26  1  0.48439039  0.52155014  0.32812491  1
  In  In27  1  0.18234969  0.32224832  0.17842601  1
  In  In28  1  0.66859929  0.00011151  -0.01339080  1
  In  In29  1  0.33317865  0.52126732  0.51523583  1
  In  In30  1  0.47836387  0.00155003  0.51504650  1
  In  In31  1  0.16186304  0.66708650  0.15701536  1
  In  In32  1  0.32068907  -0.04069522  0.04444644  1
  In  In33  1  0.68561096  0.46648811  0.13623564  1
  In  In34  1  0.49754501  0.82799977  0.01352593  1
  In  In35  1  0.83317958  0.31529149  0.52230169  1
  In  In36  1  0.85038222  0.65617636  0.16748358  1
  In  In37  1  0.03602362  0.04061296  0.68662918  1
  In  In38  1  0.31187208  -0.03033115  0.34585711  1
  In  In39  1  0.85268702  0.00451336  0.48842418  1
  In  In40  1  0.01027887  0.01654771  -0.03781809  1
  In  In41  1  0.68215682  0.85469489  0.80870511  1
  In  In42  1  0.49123196  0.82159677  0.34362878  1
  In  In43  1  0.64658021  0.68212891  0.67418446  1
  In  In44  1  0.67059318  0.47420685  0.82547677  1
  In  In45  1  0.17816864  0.15692668  0.35161287  1
  In  In46  1  -0.00332279  0.30966555  -0.00675512  1
  In  In47  1  0.17166137  0.50557371  -0.03096277  1
  In  In48  1  0.15942675  0.68635711  0.51488635  1
  In  In49  1  0.17539314  0.52094998  0.70219197  1
  In  In50  1  0.28611024  0.01666750  0.63677579  1
  In  In51  1  0.80917471  0.66974291  0.81922855  1
  In  In52  1  0.16462707  0.84051658  0.66097490  1
  In  In53  1  0.50513185  0.15658200  0.35142576  1
  In  In54  1  0.51631684  0.00032855  0.17949938  1
  In  In55  1  -0.01364202  0.29594194  0.69389401  1
  In  In56  1  0.15705736  0.33096621  0.48342975  1
  In  In57  1  0.31554312  0.82854660  0.83111352  1
  In  In58  1  0.66973993  0.19221187  0.84778700  1
  In  In59  1  0.52251352  0.32107209  0.14606051  1
  In  In60  1  -0.00331431  0.68748454  0.66899997  1
  In  In61  1  0.49172278  0.50944371  0.66536250  1
  In  In62  1  0.67134425  0.66447097  0.00057000  1
  In  In63  1  0.49840758  0.00022120  0.81871557  1
  In  In64  1  0.86121562  0.51323731  0.33011307  1
  In  In65  1  0.64712358  0.65835135  0.33740660  1
  In  In66  1  0.16559574  0.16854523  -0.00612131  1
  In  In67  1  0.33191407  0.34854319  -0.01001798  1
  In  In68  1  0.32265515  0.69100415  0.33360467  1
  In  In69  1  0.84935357  -0.01293946  0.17293032  1
  In  In70  1  0.33228579  0.14569235  0.84700174  1
  In  In71  1  0.31016623  0.30521282  0.65809564  1
  Te  Te72  1  0.06660780  0.09490547  0.07589714  1
  Te  Te73  1  0.12479036  0.04800397  0.45414273  1
  Te  Te74  1  0.11254610  0.12419843  0.78340141  1
  Te  Te75  1  0.09965014  0.39941941  0.07629913  1
  Te  Te76  1  0.07118715  0.43587367  0.41575925  1
  Te  Te77  1  0.08759512  0.40029541  0.74300322  1
  Te  Te78  1  0.04924885  0.71840486  0.07738080  1
  Te  Te79  1  0.11987379  0.78923446  0.40979302  1
  Te  Te80  1  0.09885906  0.74451731  0.76206721  1
  Te  Te81  1  0.42197038  0.06860448  0.08232764  1
  Te  Te82  1  0.39096042  0.08137263  0.41677638  1
  Te  Te83  1  0.39975296  0.07330405  0.73235082  1
  Te  Te84  1  0.42131653  0.42113005  0.08814519  1
  Te  Te85  1  0.42367121  0.42883239  0.43606361  1
  Te  Te86  1  0.40180991  0.40714272  0.73138836  1
  Te  Te87  1  0.42524958  0.73243751  0.09607384  1
  Te  Te88  1  0.38757315  0.77337789  0.43649543  1
  Te  Te89  1  0.43108984  0.77335461  0.76024778  1
  Te  Te90  1  0.75812554  0.07190201  0.08524283  1
  Te  Te91  1  0.74712633  0.09314949  0.42072214  1
  Te  Te92  1  0.75391621  0.10797020  0.75868112  1
  Te  Te93  1  0.77210588  0.39387055  0.04537020  1
  Te  Te94  1  0.77201813  0.42125895  0.41980216  1
  Te  Te95  1  0.77419360  0.38789934  0.75750506  1
  Te  Te96  1  0.75478848  0.75066266  0.09231838  1
  Te  Te97  1  0.74567511  0.74645585  0.41478296  1
  Te  Te98  1  0.76545113  0.76947883  0.71430817  1
  Te  Te99  1  0.08790247  0.22824244  0.25022073  1
  Te  Te100  1  0.08374429  0.24139421  0.58155896  1
  Te  Te101  1  0.07885018  0.23459625  0.88998574  1
  Te  Te102  1  0.06703718  0.57988078  0.24928440  1
  Te  Te103  1  0.08256838  0.58344285  0.59867789  1
  Te  Te104  1  0.07839366  0.58888528  0.89478703  1
  Te  Te105  1  0.09943331  0.92380827  0.22831443  1
  Te  Te106  1  0.04830655  0.91306377  0.60323393  1
  Te  Te107  1  0.10312462  0.90766267  0.92758362  1
  Te  Te108  1  0.43908750  0.26103347  0.26203728  1
  Te  Te109  1  0.39961469  0.23078214  0.57063087  1
  Te  Te110  1  0.42048820  0.24428842  0.92351044  1
  Te  Te111  1  0.40101140  0.60481798  0.24282898  1
  Te  Te112  1  0.38966438  0.60826140  0.62240505  1
  Te  Te113  1  0.38054225  0.56320182  0.88611307  1
  Te  Te114  1  0.41416106  0.91199571  0.24755583  1
  Te  Te115  1  0.37343051  0.91577326  0.57247265  1
  Te  Te116  1  0.41887361  0.91834358  0.92169310  1
  Te  Te117  1  0.75837011  0.26764763  0.22615660  1
  Te  Te118  1  0.74079161  0.22010623  0.58068092  1
  Te  Te119  1  0.74467012  0.27071550  0.95224948  1
  Te  Te120  1  0.74715462  0.57244688  0.24806139  1
  Te  Te121  1  0.73684093  0.58813622  0.58191980  1
  Te  Te122  1  0.75071190  0.56849985  0.91514742  1
  Te  Te123  1  0.76091193  0.89880077  0.25021038  1
  Te  Te124  1  0.75447427  0.93185170  0.58050007  1
  Te  Te125  1  0.77285055  0.94259825  0.89242029  1
  Te  Te126  1  0.27324830  0.23701250  0.08831259  1
  Te  Te127  1  0.25654168  0.27423588  0.39225939  1
  Te  Te128  1  0.23536389  0.21793650  0.75526830  1
  Te  Te129  1  0.25030316  0.56954274  0.08169965  1
  Te  Te130  1  0.23408076  0.58483089  0.41480778  1
  Te  Te131  1  0.28391023  0.59290873  0.76660301  1
  Te  Te132  1  0.22455357  0.88007310  0.12216087  1
  Te  Te133  1  0.23084727  0.89362366  0.44120671  1
  Te  Te134  1  0.23605797  0.93404079  0.75684310  1
  Te  Te135  1  0.60013050  0.20517363  0.10995307  1
  Te  Te136  1  0.58673373  0.26006575  0.42965394  1
  Te  Te137  1  0.56204108  0.23873501  0.74543018  1
  Te  Te138  1  0.58842571  0.57485995  0.08904731  1
  Te  Te139  1  0.54455195  0.60748952  0.43963839  1
  Te  Te140  1  0.57542395  0.58451165  0.77374754  1
  Te  Te141  1  0.59982774  0.91078445  0.08812325  1
  Te  Te142  1  0.57896190  0.93926744  0.40682813  1
  Te  Te143  1  0.57500985  0.91467639  0.72093857  1
  Te  Te144  1  0.94020448  0.21203725  0.08895233  1
  Te  Te145  1  0.92671630  0.25786547  0.40834064  1
  Te  Te146  1  0.88701672  0.21334656  0.76502911  1
  Te  Te147  1  0.91104670  0.58867784  0.05262456  1
  Te  Te148  1  0.92591178  0.59421265  0.44048934  1
  Te  Te149  1  0.90666816  0.57878583  0.74165131  1
  Te  Te150  1  0.92973686  0.91669747  0.06384758  1
  Te  Te151  1  0.91807751  0.91058584  0.39775138  1
  Te  Te152  1  0.93617329  0.94222426  0.73842862  1
  Te  Te153  1  0.24672440  0.07085297  0.24641959  1
  Te  Te154  1  0.19925962  0.11628055  0.57104844  1
  Te  Te155  1  0.25559297  0.05676569  0.94442507  1
  Te  Te156  1  0.27656369  0.40606238  0.25433626  1
  Te  Te157  1  0.23796600  0.42402636  0.58238326  1
  Te  Te158  1  0.23273712  0.39507870  0.89484706  1
  Te  Te159  1  0.24338762  0.76899717  0.23055438  1
  Te  Te160  1  0.25591103  0.73366640  0.61416020  1
  Te  Te161  1  0.23399460  0.76969577  0.93875474  1
  Te  Te162  1  0.60278315  0.11523615  0.23538888  1
  Te  Te163  1  0.57133672  0.09474140  0.57908918  1
  Te  Te164  1  0.57396413  0.09128562  0.91302091  1
  Te  Te165  1  0.58558401  0.42784300  0.25476941  1
  Te  Te166  1  0.60300584  0.42740747  0.59615340  1
  Te  Te167  1  0.57800454  0.41419196  0.92990561  1
  Te  Te168  1  0.57874388  0.75156677  0.24946328  1
  Te  Te169  1  0.57045615  0.75858917  0.57628791  1
  Te  Te170  1  0.60569702  0.76724688  0.90646942  1
  Te  Te171  1  0.92520116  0.07932285  0.26605053  1
  Te  Te172  1  0.92401555  0.09245583  0.58871308  1
  Te  Te173  1  0.92975172  0.11415482  0.87695624  1
  Te  Te174  1  0.91047049  0.41544371  0.22422063  1
  Te  Te175  1  0.93376683  0.40353031  0.58981381  1
  Te  Te176  1  0.90632472  0.40604060  0.92669065  1
  Te  Te177  1  0.92082367  0.74348256  0.27074612  1
  Te  Te178  1  0.94566627  0.78116694  0.56573082  1
  Te  Te179  1  0.90753904  0.75301447  0.89658581  1
