# generated using pymatgen
data_In2Te3
_symmetry_space_group_name_H-M   'P 1'
_cell_length_a   18.80258759
_cell_length_b   18.80412150
_cell_length_c   18.81302111
_cell_angle_alpha   90.08018295
_cell_angle_beta   90.04393690
_cell_angle_gamma   89.98620991
_symmetry_Int_Tables_number   1
_chemical_formula_structural   In2Te3
_chemical_formula_sum   'In72 Te108'
_cell_volume   6651.63862389
_cell_formula_units_Z   36
loop_
 _symmetry_equiv_pos_site_id
 _symmetry_equiv_pos_as_xyz
  1  'x, y, z'
loop_
 _atom_site_type_symbol
 _atom_site_label
 _atom_site_symmetry_multiplicity
 _atom_site_fract_x
 _atom_site_fract_y
 _atom_site_fract_z
 _atom_site_occupancy
  In  In0  1  0.34414459  0.69675719  0.02851642  1
  In  In1  1  0.48372173  0.86297533  0.64708597  1
  In  In2  1  0.15832298  0.49719454  0.32664650  1
  In  In3  1  0.17054883  0.15921364  0.67601974  1
  In  In4  1  0.49600040  0.83752390  0.33228552  1
  In  In5  1  0.34254291  0.49998236  0.85179620  1
  In  In6  1  0.14802622  -0.01935279  0.86161624  1
  In  In7  1  0.49032149  0.31788219  0.49890342  1
  In  In8  1  0.33389042  0.84630037  0.84070223  1
  In  In9  1  0.82685020  0.16375378  0.66298732  1
  In  In10  1  0.83707029  0.84598376  0.02033901  1
  In  In11  1  0.64948324  0.82602449  0.85793281  1
  In  In12  1  0.15322458  0.68202825  0.83360904  1
  In  In13  1  0.00630806  0.31855285  0.65361394  1
  In  In14  1  0.17387230  0.03542792  0.13612950  1
  In  In15  1  0.82345125  0.66758664  0.17244242  1
  In  In16  1  0.35979224  0.47644505  0.12341553  1
  In  In17  1  0.64162317  0.33492344  0.68028014  1
  In  In18  1  0.80749391  0.33856778  0.85474342  1
  In  In19  1  -0.00648374  0.00137399  0.32884427  1
  In  In20  1  0.34141345  0.67513011  0.32674125  1
  In  In21  1  0.34096523  0.16360727  0.17502508  1
  In  In22  1  0.32837875  0.32271475  0.33758093  1
  In  In23  1  0.86138630  0.33991128  0.15164563  1
  In  In24  1  0.66552159  0.15911646  0.84967762  1
  In  In25  1  0.64197139  0.69879069  0.33382792  1
  In  In26  1  0.48887727  0.30892947  0.85732406  1
  In  In27  1  0.00309343  0.81778563  0.52138868  1
  In  In28  1  0.17615277  0.31023043  0.15837663  1
  In  In29  1  0.00509455  0.67568579  -0.00234567  1
  In  In30  1  0.66960983  0.17822508  0.15664427  1
  In  In31  1  0.83030105  0.80238779  0.34456214  1
  In  In32  1  0.00227302  0.84911635  0.14279418  1
  In  In33  1  0.82956855  0.14027402  0.32642939  1
  In  In34  1  0.19674085  -0.00333744  0.49199001  1
  In  In35  1  0.32305791  0.32433402  0.65526176  1
  In  In36  1  0.50335611  0.51252886  0.32025081  1
  In  In37  1  0.01526310  0.49964157  0.17480497  1
  In  In38  1  0.79570129  0.51620084  -0.00783138  1
  In  In39  1  0.17768939  0.83447340  0.68203797  1
  In  In40  1  0.00564221  0.16065376  0.84029302  1
  In  In41  1  0.16855508  0.66285672  0.51615182  1
  In  In42  1  0.64320315  0.35062130  0.30951467  1
  In  In43  1  0.84641692  0.53205994  0.66357370  1
  In  In44  1  0.47003802  0.15461659  0.35073988  1
  In  In45  1  0.48259462  0.50667145  0.64821713  1
  In  In46  1  0.65657385  -0.00595373  0.34316345  1
  In  In47  1  0.01471082  0.63058948  0.33263145  1
  In  In48  1  0.03130493  0.50473517  0.50466022  1
  In  In49  1  0.18006920  0.33286321  0.84588084  1
  In  In50  1  0.64998150  0.69272325  0.66706259  1
  In  In51  1  0.33331204  0.66245942  0.64931016  1
  In  In52  1  0.86123130  -0.03315288  0.82216449  1
  In  In53  1  0.19540556  0.83412918  0.32914705  1
  In  In54  1  0.51164953  0.67271119  0.84278382  1
  In  In55  1  0.82593121  0.68541304  0.50901949  1
  In  In56  1  0.50160524  -0.02895376  0.16592404  1
  In  In57  1  -0.00331600  0.51945168  0.82935318  1
  In  In58  1  0.66286207  0.83739500  0.17464594  1
  In  In59  1  0.81631381  0.32503457  0.48882689  1
  In  In60  1  -0.00134715  0.16470095  0.52620648  1
  In  In61  1  0.01102264  0.31995692  0.00049722  1
  In  In62  1  0.64903968  0.32860240  -0.01726779  1
  In  In63  1  0.16870105  0.49936812  0.64184179  1
  In  In64  1  0.46891036  0.03358494  0.82769226  1
  In  In65  1  0.67210295  0.49851079  0.86163104  1
  In  In66  1  0.17946840  0.17876346  0.32483794  1
  In  In67  1  0.85476219  -0.01534162  0.14015004  1
  In  In68  1  0.63119288  0.01650499  0.64728494  1
  In  In69  1  0.81390147  -0.00756252  0.51974709  1
  In  In70  1  0.33176336  -0.00376199  0.00231654  1
  In  In71  1  0.82238992  0.49984192  0.30799263  1
  Te  Te72  1  0.06930527  0.10178609  0.05788364  1
  Te  Te73  1  0.08167043  0.08227323  0.42360789  1
  Te  Te74  1  0.07498491  0.06437587  0.74683181  1
  Te  Te75  1  0.09884894  0.41751149  0.07798354  1
  Te  Te76  1  0.08759025  0.40291028  0.41596203  1
  Te  Te77  1  0.08542497  0.41190817  0.74915325  1
  Te  Te78  1  0.09674059  0.75168365  0.08502976  1
  Te  Te79  1  0.08451366  0.74789000  0.40976128  1
  Te  Te80  1  0.06267242  0.78334107  0.76641576  1
  Te  Te81  1  0.43128643  0.07991716  0.08486860  1
  Te  Te82  1  0.45458403  0.03922605  0.44804081  1
  Te  Te83  1  0.42900051  0.10203219  0.70238261  1
  Te  Te84  1  0.42733824  0.36796603  0.04551640  1
  Te  Te85  1  0.41839671  0.42038454  0.41183859  1
  Te  Te86  1  0.41818085  0.40901775  0.75047208  1
  Te  Te87  1  0.46330032  0.76730461  0.08254473  1
  Te  Te88  1  0.43413712  0.73797569  0.42498493  1
  Te  Te89  1  0.41295205  0.74775331  0.75130041  1
  Te  Te90  1  0.73670545  0.06230981  0.08801558  1
  Te  Te91  1  0.73454683  0.09126753  0.43501881  1
  Te  Te92  1  0.74453869  0.07095075  0.75127451  1
  Te  Te93  1  0.73895737  0.41341993  0.09273018  1
  Te  Te94  1  0.73404670  0.42618061  0.40988867  1
  Te  Te95  1  0.75406927  0.42302187  0.73834371  1
  Te  Te96  1  0.73759341  0.74443461  0.07510538  1
  Te  Te97  1  0.71989362  0.77539779  0.44311998  1
  Te  Te98  1  0.74024160  0.75630245  0.76392247  1
  Te  Te99  1  0.07701451  0.24750934  0.24662339  1
  Te  Te100  1  0.11456990  0.25635933  0.56879042  1
  Te  Te101  1  0.11088094  0.22496385  0.93091109  1
  Te  Te102  1  0.11624594  0.60401594  0.22312702  1
  Te  Te103  1  0.06214618  0.60908748  0.61158217  1
  Te  Te104  1  0.09864139  0.57495830  0.92766927  1
  Te  Te105  1  0.09210410  0.92070197  0.24720745  1
  Te  Te106  1  0.09641734  0.91996677  0.58161954  1
  Te  Te107  1  0.05810922  0.88786222  0.93480665  1
  Te  Te108  1  0.43307563  0.26143532  0.24713712  1
  Te  Te109  1  0.42218629  0.22286865  0.59650446  1
  Te  Te110  1  0.38764573  0.25182012  0.95006406  1
  Te  Te111  1  0.41063359  0.58288768  0.22248333  1
  Te  Te112  1  0.40403804  0.58098092  0.54891877  1
  Te  Te113  1  0.42355637  0.59398055  0.93994333  1
  Te  Te114  1  0.39698287  0.91369253  0.25203848  1
  Te  Te115  1  0.39685868  0.95229077  0.56756108  1
  Te  Te116  1  0.43689702  0.91376709  0.92640457  1
  Te  Te117  1  0.76252571  0.25958829  0.25488142  1
  Te  Te118  1  0.72648264  0.24610982  0.58379364  1
  Te  Te119  1  0.76230000  0.22938904  0.94756706  1
  Te  Te120  1  0.71555877  0.58932313  0.24548278  1
  Te  Te121  1  0.73297795  0.58765748  0.58037928  1
  Te  Te122  1  0.74744306  0.61978817  0.89934901  1
  Te  Te123  1  0.76983439  0.91841222  0.26045272  1
  Te  Te124  1  0.72530752  0.91090899  0.60409399  1
  Te  Te125  1  0.75070755  0.92358486  0.92118866  1
  Te  Te126  1  0.26481735  0.23324383  0.06590152  1
  Te  Te127  1  0.28015857  0.21570884  0.42612039  1
  Te  Te128  1  0.26797960  0.23653590  0.76755484  1
  Te  Te129  1  0.26508725  0.57736276  0.06903074  1
  Te  Te130  1  0.24764576  0.58388308  0.41414830  1
  Te  Te131  1  0.24780618  0.58264825  0.75122523  1
  Te  Te132  1  0.24553622  0.91522290  0.09074951  1
  Te  Te133  1  0.28997286  0.90904471  0.41585144  1
  Te  Te134  1  0.25945980  0.94193830  0.75160368  1
  Te  Te135  1  0.56675748  0.25302137  0.07989921  1
  Te  Te136  1  0.58457567  0.24501842  0.40361380  1
  Te  Te137  1  0.56658164  0.22661000  0.75296805  1
  Te  Te138  1  0.63686244  0.53086725  0.09642452  1
  Te  Te139  1  0.59002120  0.58706136  0.41415328  1
  Te  Te140  1  0.58045096  0.56862324  0.74993783  1
  Te  Te141  1  0.61759578  0.94062717  0.07676220  1
  Te  Te142  1  0.57198563  0.91604339  0.43688129  1
  Te  Te143  1  0.56979456  0.91966747  0.76055917  1
  Te  Te144  1  0.92106304  0.22902483  0.07582995  1
  Te  Te145  1  0.91551783  0.23353541  0.41812784  1
  Te  Te146  1  0.90769955  0.25943311  0.75571296  1
  Te  Te147  1  0.91074374  0.57240244  0.08855554  1
  Te  Te148  1  0.90198902  0.57932111  0.42128829  1
  Te  Te149  1  0.90673212  0.61679611  0.76715029  1
  Te  Te150  1  0.98568601  0.97205639  0.04337528  1
  Te  Te151  1  0.91433582  0.91152190  0.42324683  1
  Te  Te152  1  0.94290501  0.88309251  0.73277581  1
  Te  Te153  1  0.25931298  0.06737879  0.26002527  1
  Te  Te154  1  0.26810069  0.07885334  0.59464844  1
  Te  Te155  1  0.25599586  0.07407826  0.90081570  1
  Te  Te156  1  0.26031676  0.41920925  0.23731947  1
  Te  Te157  1  0.26036698  0.41917876  0.56064378  1
  Te  Te158  1  0.25284870  0.42182984  0.93867964  1
  Te  Te159  1  0.27065430  0.75917118  0.22652269  1
  Te  Te160  1  0.26114788  0.77095853  0.57008230  1
  Te  Te161  1  0.24252469  0.76217565  0.92690177  1
  Te  Te162  1  0.57796726  0.08851107  0.25290168  1
  Te  Te163  1  0.54093179  0.10024755  0.56472402  1
  Te  Te164  1  0.56288730  0.08794084  0.92786760  1
  Te  Te165  1  0.57155761  0.43540051  0.20598747  1
  Te  Te166  1  0.58197788  0.41936454  0.56939868  1
  Te  Te167  1  0.55233062  0.43541918  0.92768261  1
  Te  Te168  1  0.54905365  0.73868849  0.21299280  1
  Te  Te169  1  0.54144297  0.74292469  0.57991610  1
  Te  Te170  1  0.57173826  0.74590171  0.96059810  1
  Te  Te171  1  0.93060548  0.09081778  0.22413799  1
  Te  Te172  1  0.92272188  0.05940546  0.60553491  1
  Te  Te173  1  0.89699770  0.08423977  0.90420241  1
  Te  Te174  1  0.93638455  0.40667865  0.26717872  1
  Te  Te175  1  0.91289223  0.41334880  0.57789154  1
  Te  Te176  1  0.91776630  0.42060725  0.92239859  1
  Te  Te177  1  0.93415297  0.74281799  0.24689617  1
  Te  Te178  1  0.89124220  0.77578649  0.61013395  1
  Te  Te179  1  0.92104371  0.77131619  0.92180168  1
