# generated using pymatgen
data_In2Te3
_symmetry_space_group_name_H-M   'P 1'
_cell_length_a   18.87169149
_cell_length_b   18.88671677
_cell_length_c   18.85842550
_cell_angle_alpha   89.99885734
_cell_angle_beta   89.98002134
_cell_angle_gamma   89.82616127
_symmetry_Int_Tables_number   1
_chemical_formula_structural   In2Te3
_chemical_formula_sum   'In72 Te108'
_cell_volume   6721.56961254
_cell_formula_units_Z   36
loop_
 _symmetry_equiv_pos_site_id
 _symmetry_equiv_pos_as_xyz
  1  'x, y, z'
loop_
 _atom_site_type_symbol
 _atom_site_label
 _atom_site_symmetry_multiplicity
 _atom_site_fract_x
 _atom_site_fract_y
 _atom_site_fract_z
 _atom_site_occupancy
  In  In0  1  0.01299323  0.48525075  0.13868049  1
  In  In1  1  0.65383176  0.01822220  0.31707365  1
  In  In2  1  0.82050941  0.67827793  0.48475243  1
  In  In3  1  0.65920454  0.16563172  0.48142221  1
  In  In4  1  0.52727328  0.82799558  0.30379621  1
  In  In5  1  0.15370244  0.47867922  0.29765129  1
  In  In6  1  0.49745565  0.32566058  0.17640239  1
  In  In7  1  0.00356200  -0.01388901  0.67620583  1
  In  In8  1  0.37136045  0.02669588  0.35272322  1
  In  In9  1  0.32378273  0.41262576  0.84413705  1
  In  In10  1  0.32935714  0.01826846  0.00086509  1
  In  In11  1  0.00491553  0.17618894  0.49624253  1
  In  In12  1  0.17952050  0.31377975  0.48497707  1
  In  In13  1  0.17429809  0.01132181  0.85608544  1
  In  In14  1  -0.04139430  0.65997371  0.36258251  1
  In  In15  1  0.62250179  0.02150123  0.01773419  1
  In  In16  1  0.00958849  0.02173898  0.31980074  1
  In  In17  1  0.32581425  0.18619853  0.14841125  1
  In  In18  1  -0.00264134  0.65169122  0.00407824  1
  In  In19  1  0.16784388  0.85917170  0.33982628  1
  In  In20  1  0.51805236  -0.00600510  0.81779694  1
  In  In21  1  0.20155314  0.18350197  0.69562869  1
  In  In22  1  0.80090949  -0.01425952  0.49702121  1
  In  In23  1  -0.00025454  0.83312114  0.18435214  1
  In  In24  1  0.51734431  0.53257358  0.34195061  1
  In  In25  1  0.17457693  0.81764014  0.66859806  1
  In  In26  1  0.48202340  0.32133429  0.84175776  1
  In  In27  1  0.18659460  0.16452878  0.32373480  1
  In  In28  1  0.04190734  0.20423232  0.85722019  1
  In  In29  1  0.35884454  0.65715151  0.01392107  1
  In  In30  1  0.33665109  0.00168551  0.63565516  1
  In  In31  1  0.01493600  0.01150820  -0.00104128  1
  In  In32  1  0.53244374  0.52494246  0.66626567  1
  In  In33  1  -0.01141191  0.83264370  0.51914383  1
  In  In34  1  0.51726472  0.82701267  0.02471025  1
  In  In35  1  0.50906453  0.64956851  0.80947746  1
  In  In36  1  0.33693194  0.65436352  0.66757661  1
  In  In37  1  0.81343930  0.83348426  0.35105162  1
  In  In38  1  0.84709354  0.00020818  0.17657099  1
  In  In39  1  0.14992789  0.47549082  0.66242058  1
  In  In40  1  0.63346495  0.32466969  0.65699587  1
  In  In41  1  -0.00969753  0.50093324  0.82767578  1
  In  In42  1  0.33138078  0.46968459  0.16583301  1
  In  In43  1  0.33949824  0.49197323  0.50750797  1
  In  In44  1  0.33783685  0.66342789  0.34063267  1
  In  In45  1  0.82666265  0.49568877  0.00353698  1
  In  In46  1  0.16907791  0.86351915  -0.01010293  1
  In  In47  1  0.83134087  0.34205526  0.83922007  1
  In  In48  1  0.64925993  0.52337426  0.80786988  1
  In  In49  1  0.02333320  0.18969489  0.13240902  1
  In  In50  1  0.67336774  0.65580965  -0.00170540  1
  In  In51  1  0.66069371  0.18787016  0.18798212  1
  In  In52  1  -0.00842304  0.36069793  0.67020451  1
  In  In53  1  0.14551817  0.66343792  0.82952040  1
  In  In54  1  0.82322997  0.16793126  0.65370298  1
  In  In55  1  0.69211878  0.51631975  0.18931151  1
  In  In56  1  0.17418809  0.66140514  0.17810334  1
  In  In57  1  -0.03098711  0.51826400  0.48114584  1
  In  In58  1  0.63051376  0.83370852  0.51670516  1
  In  In59  1  -0.01834874  0.33528627  0.33946576  1
  In  In60  1  0.84885295  0.17075328  0.01246216  1
  In  In61  1  0.66649372  0.31696593  0.00691093  1
  In  In62  1  0.83210045  0.50892650  0.64879471  1
  In  In63  1  0.49806678  0.15837974  0.67107180  1
  In  In64  1  0.66933630  -0.02010830  0.66546312  1
  In  In65  1  0.15347380  0.65462830  0.50787310  1
  In  In66  1  0.79918380  0.81468018  -0.02630048  1
  In  In67  1  0.49658424  0.49820284  -0.00824112  1
  In  In68  1  0.83437144  -0.01467655  0.83207225  1
  In  In69  1  0.33910809  0.82150405  0.84325870  1
  In  In70  1  0.49644619  0.31985723  0.48588265  1
  In  In71  1  0.37151065  0.84256107  0.46960143  1
  Te  Te72  1  0.11301804  0.08178654  0.08134661  1
  Te  Te73  1  0.10101361  0.08372718  0.42355509  1
  Te  Te74  1  0.08525350  0.09164672  0.75042814  1
  Te  Te75  1  0.12134505  0.39802705  0.08883717  1
  Te  Te76  1  0.08383814  0.42203307  0.43091448  1
  Te  Te77  1  0.09276604  0.39541350  0.77874350  1
  Te  Te78  1  0.08820795  0.75249930  0.08525642  1
  Te  Te79  1  0.08047807  0.75293772  0.41084678  1
  Te  Te80  1  0.06755667  0.74400101  0.73546270  1
  Te  Te81  1  0.42323479  0.09283689  0.08694731  1
  Te  Te82  1  0.40119593  0.12828098  0.45732591  1
  Te  Te83  1  0.40237714  0.07355384  0.75231606  1
  Te  Te84  1  0.41635321  0.39306410  0.06331109  1
  Te  Te85  1  0.42099107  0.42373405  0.40186034  1
  Te  Te86  1  0.43804487  0.42647722  0.73883020  1
  Te  Te87  1  0.41637044  0.75426742  0.10549761  1
  Te  Te88  1  0.45524092  0.73319172  0.40615257  1
  Te  Te89  1  0.42456054  0.75808650  0.73543285  1
  Te  Te90  1  0.74920736  0.09059654  0.09818293  1
  Te  Te91  1  0.76395567  0.09003766  0.39622938  1
  Te  Te92  1  0.74496306  0.08185860  0.74984917  1
  Te  Te93  1  0.74896301  0.40418531  0.09698516  1
  Te  Te94  1  0.78341401  0.41444390  0.33377028  1
  Te  Te95  1  0.73948107  0.41173419  0.73745904  1
  Te  Te96  1  0.73171215  0.75666536  0.09279632  1
  Te  Te97  1  0.70350764  0.74688851  0.41127187  1
  Te  Te98  1  0.79697102  0.78765415  0.82792883  1
  Te  Te99  1  0.08649057  0.25790625  0.25915049  1
  Te  Te100  1  0.08502846  0.25649343  0.59877609  1
  Te  Te101  1  0.07271644  0.24728824  0.99506171  1
  Te  Te102  1  0.06215968  0.59483654  0.25822185  1
  Te  Te103  1  0.05810607  0.57701654  0.59483976  1
  Te  Te104  1  0.09198884  0.56055149  0.92784645  1
  Te  Te105  1  0.09947104  0.93852491  0.22860119  1
  Te  Te106  1  0.09898531  0.91721267  0.57911746  1
  Te  Te107  1  0.06498891  0.90997636  0.89189354  1
  Te  Te108  1  0.39546778  0.25806291  0.25949288  1
  Te  Te109  1  0.41157992  0.24213321  0.58198389  1
  Te  Te110  1  0.37597745  0.23349818  0.89717794  1
  Te  Te111  1  0.41211800  0.58004591  0.23768722  1
  Te  Te112  1  0.43423434  0.59385329  0.56716897  1
  Te  Te113  1  0.40580717  0.57194231  0.89366226  1
  Te  Te114  1  0.41584205  0.91624042  0.26429225  1
  Te  Te115  1  0.43814184  0.91242963  0.57947693  1
  Te  Te116  1  0.42505819  0.91427333  0.92379540  1
  Te  Te117  1  0.72963097  0.27604296  0.28655269  1
  Te  Te118  1  0.74104968  0.26270528  0.56772329  1
  Te  Te119  1  0.75149285  0.23448102  0.91170915  1
  Te  Te120  1  0.70782620  0.63964991  0.27148007  1
  Te  Te121  1  0.73567169  0.57112475  0.55022034  1
  Te  Te122  1  0.76074438  0.58132640  0.89777550  1
  Te  Te123  1  0.74178480  0.91477752  0.24453028  1
  Te  Te124  1  0.75851531  0.87784926  0.59121469  1
  Te  Te125  1  0.72958036  0.94609416  0.93403596  1
  Te  Te126  1  0.22999100  0.28408908  0.08222372  1
  Te  Te127  1  0.28626066  0.22894346  0.41941471  1
  Te  Te128  1  0.28152489  0.27755184  0.77855536  1
  Te  Te129  1  0.25121394  0.57229422  0.08333651  1
  Te  Te130  1  0.23737566  0.57013303  0.41116441  1
  Te  Te131  1  0.23777309  0.57172703  0.74552959  1
  Te  Te132  1  0.27466920  0.90438552  0.07984782  1
  Te  Te133  1  0.26176678  0.93799338  0.42594342  1
  Te  Te134  1  0.25104585  0.91629861  0.75942752  1
  Te  Te135  1  0.56175385  0.23310248  0.07307770  1
  Te  Te136  1  0.59428390  0.26212193  0.38731612  1
  Te  Te137  1  0.58711434  0.23514177  0.76854316  1
  Te  Te138  1  0.58253526  0.57325532  0.08865484  1
  Te  Te139  1  0.62219368  0.55656251  0.44192117  1
  Te  Te140  1  0.63848512  0.64735486  0.71642625  1
  Te  Te141  1  0.57494856  0.92583033  0.11761336  1
  Te  Te142  1  0.57485773  0.93080440  0.41130941  1
  Te  Te143  1  0.59583567  0.88828608  0.75279453  1
  Te  Te144  1  0.90095414  0.27117918  0.10570022  1
  Te  Te145  1  0.89954982  0.24627949  0.42363977  1
  Te  Te146  1  0.91544630  0.24786896  0.74759189  1
  Te  Te147  1  0.89943477  0.58811809  0.09981326  1
  Te  Te148  1  0.85509846  0.54540609  0.38010769  1
  Te  Te149  1  0.89696620  0.58749755  0.75446240  1
  Te  Te150  1  0.92360371  0.91401444  0.07695324  1
  Te  Te151  1  0.92684524  0.92361436  0.40551808  1
  Te  Te152  1  0.90194452  0.89453873  0.73523374  1
  Te  Te153  1  0.27280269  0.07185674  0.24266176  1
  Te  Te154  1  0.23670649  0.09576489  0.58400669  1
  Te  Te155  1  0.25249689  0.12005552  0.92074405  1
  Te  Te156  1  0.26440331  0.38598273  0.26901563  1
  Te  Te157  1  0.25791444  0.39480175  0.59035539  1
  Te  Te158  1  0.24452452  0.39074058  0.96726753  1
  Te  Te159  1  0.25478768  0.76206719  0.25840328  1
  Te  Te160  1  0.26366340  0.74600447  0.56088463  1
  Te  Te161  1  0.24553984  0.73405844  0.92504822  1
  Te  Te162  1  0.55585429  0.10747791  0.25350410  1
  Te  Te163  1  0.58571269  0.07494474  0.57810108  1
  Te  Te164  1  0.56099521  0.10025365  0.91070024  1
  Te  Te165  1  0.58194866  0.42816821  0.24937819  1
  Te  Te166  1  0.58403952  0.42646747  0.55511086  1
  Te  Te167  1  0.59889808  0.41706629  0.90951992  1
  Te  Te168  1  0.60965444  0.73519223  0.21386981  1
  Te  Te169  1  0.57142892  0.73228915  0.60346008  1
  Te  Te170  1  0.57711009  0.73885943  0.91411357  1
  Te  Te171  1  0.92231690  0.11265232  0.24030091  1
  Te  Te172  1  0.91205275  0.06794990  0.57620210  1
  Te  Te173  1  0.92666635  0.09202079  0.90336077  1
  Te  Te174  1  0.91602413  0.42411293  0.23653244  1
  Te  Te175  1  0.89881239  0.40504508  0.55928853  1
  Te  Te176  1  0.92924725  0.40678915  0.93423876  1
  Te  Te177  1  0.89488207  0.74847720  0.25173625  1
  Te  Te178  1  0.91170581  0.72984224  0.58848566  1
  Te  Te179  1  0.92093003  0.74022926  0.91177269  1
