# generated using pymatgen
data_In2Te3
_symmetry_space_group_name_H-M   'P 1'
_cell_length_a   18.85981303
_cell_length_b   18.85085767
_cell_length_c   18.85728210
_cell_angle_alpha   89.87305182
_cell_angle_beta   89.93177131
_cell_angle_gamma   90.05155264
_symmetry_Int_Tables_number   1
_chemical_formula_structural   In2Te3
_chemical_formula_sum   'In72 Te108'
_cell_volume   6704.18584253
_cell_formula_units_Z   36
loop_
 _symmetry_equiv_pos_site_id
 _symmetry_equiv_pos_as_xyz
  1  'x, y, z'
loop_
 _atom_site_type_symbol
 _atom_site_label
 _atom_site_symmetry_multiplicity
 _atom_site_fract_x
 _atom_site_fract_y
 _atom_site_fract_z
 _atom_site_occupancy
  In  In0  1  0.51931541  -0.00184676  0.15353185  1
  In  In1  1  0.01510883  0.50189624  0.49368349  1
  In  In2  1  0.01421090  0.79436739  0.12940814  1
  In  In3  1  0.33188163  0.66637481  0.66238286  1
  In  In4  1  0.65321905  -0.00468327  0.32158501  1
  In  In5  1  0.66127744  0.01251550  -0.00311424  1
  In  In6  1  0.63691526  0.79080732  0.85864463  1
  In  In7  1  0.16083601  0.49702313  0.67927694  1
  In  In8  1  0.34184211  0.50452698  0.15903894  1
  In  In9  1  0.32629913  0.83412284  0.17724863  1
  In  In10  1  0.16319899  -0.01622259  0.83500924  1
  In  In11  1  0.32838783  0.32455750  0.34535098  1
  In  In12  1  0.33381941  -0.01735092  -0.01329147  1
  In  In13  1  0.65630611  0.80850537  0.49495386  1
  In  In14  1  0.16358013  0.35765025  0.15749217  1
  In  In15  1  0.34084391  0.00243239  0.34432989  1
  In  In16  1  0.00028924  0.64756602  0.32439703  1
  In  In17  1  0.33509252  0.13887762  0.82711909  1
  In  In18  1  0.15504951  -0.00364947  0.14224967  1
  In  In19  1  0.66287685  0.57297530  0.66947964  1
  In  In20  1  0.51160799  0.34902426  0.51546274  1
  In  In21  1  0.33414753  0.66736276  0.34698305  1
  In  In22  1  0.32311372  0.66159131  -0.00065791  1
  In  In23  1  0.66710969  0.82362566  0.16967619  1
  In  In24  1  0.49976701  0.82957278  0.65407626  1
  In  In25  1  0.84838831  0.83106653  -0.00514620  1
  In  In26  1  0.03390557  0.18970320  0.49760107  1
  In  In27  1  0.86665714  0.79847459  0.67718236  1
  In  In28  1  0.80328118  0.63576485  0.84778770  1
  In  In29  1  0.00333856  0.36469325  0.33354444  1
  In  In30  1  0.50287227  0.18374385  0.68582367  1
  In  In31  1  0.83668684  0.17540759  0.70342781  1
  In  In32  1  -0.00259535  0.83033083  0.81203338  1
  In  In33  1  0.83461769  0.16202113  0.32002158  1
  In  In34  1  0.65685275  0.19190936  0.50989356  1
  In  In35  1  0.50154079  0.66277870  0.15669697  1
  In  In36  1  0.65412153  0.64886788  0.31051546  1
  In  In37  1  0.66538332  0.18127493  0.15736456  1
  In  In38  1  0.85280542  0.65648801  0.14066997  1
  In  In39  1  0.16677426  0.81766647  0.31976272  1
  In  In40  1  -0.02419252  0.81060353  0.50181236  1
  In  In41  1  0.33454938  0.18622182  0.18707270  1
  In  In42  1  0.16710533  0.18103878  0.64313318  1
  In  In43  1  0.67285836  0.49330452  0.15954919  1
  In  In44  1  0.32393954  0.51615535  0.49911909  1
  In  In45  1  -0.00582695  0.49980640  0.14848627  1
  In  In46  1  0.80124098  0.83303893  0.32971597  1
  In  In47  1  0.34110535  0.82338843  0.84047996  1
  In  In48  1  -0.03662008  0.19863304  0.14364660  1
  In  In49  1  0.66571535  0.35983791  0.33031557  1
  In  In50  1  0.48181295  0.01047110  0.50735981  1
  In  In51  1  0.67205805  0.34680160  -0.00291002  1
  In  In52  1  0.14821886  0.35315155  0.83592090  1
  In  In53  1  -0.00054718  0.00936980  -0.01666041  1
  In  In54  1  0.82677518  0.34774703  0.85290403  1
  In  In55  1  0.35464427  0.49076792  0.83901339  1
  In  In56  1  0.34529825  0.33528061  0.67218046  1
  In  In57  1  0.50032989  0.66201957  0.48992592  1
  In  In58  1  0.66872029  0.36106326  0.68999810  1
  In  In59  1  0.16034251  0.17458855  0.34217052  1
  In  In60  1  -0.01150178  0.19336538  0.85932220  1
  In  In61  1  0.68388797  -0.02790387  0.67169576  1
  In  In62  1  0.33208518  0.35801783  0.01357344  1
  In  In63  1  0.02860479  0.02995375  0.64280010  1
  In  In64  1  0.83858912  0.00551600  0.83719597  1
  In  In65  1  0.50780691  0.36032142  0.86743279  1
  In  In66  1  -0.00303946  0.65530539  0.68744683  1
  In  In67  1  0.84370655  -0.00381142  0.49092054  1
  In  In68  1  0.83640887  0.36353955  0.49306196  1
  In  In69  1  0.17748230  0.81356953  0.66628253  1
  In  In70  1  0.17938631  0.01762480  0.49301645  1
  In  In71  1  0.50324566  0.17199930  0.00139746  1
  Te  Te72  1  0.07192778  0.10458828  0.07708406  1
  Te  Te73  1  0.06604684  0.06987294  0.40878698  1
  Te  Te74  1  0.07681677  0.09529700  0.77004354  1
  Te  Te75  1  0.06528410  0.40418037  0.05403892  1
  Te  Te76  1  0.10830273  0.40990632  0.42331001  1
  Te  Te77  1  0.06148207  0.46262527  0.78559623  1
  Te  Te78  1  0.10851057  0.69565778  0.06959957  1
  Te  Te79  1  0.08037166  0.73817041  0.41806145  1
  Te  Te80  1  0.10345778  0.72901999  0.76935032  1
  Te  Te81  1  0.40508931  0.08260000  0.08955650  1
  Te  Te82  1  0.41991367  0.10473903  0.41228386  1
  Te  Te83  1  0.43152447  0.06854227  0.74292468  1
  Te  Te84  1  0.43911143  0.44886225  0.05951082  1
  Te  Te85  1  0.41780624  0.42371522  0.42192756  1
  Te  Te86  1  0.44767040  0.42302583  0.73932992  1
  Te  Te87  1  0.41420440  0.75901134  0.07818214  1
  Te  Te88  1  0.41493983  0.76289807  0.42591964  1
  Te  Te89  1  0.43043207  0.73549962  0.75435156  1
  Te  Te90  1  0.75131796  0.08524227  0.08644691  1
  Te  Te91  1  0.73667877  0.08275425  0.42195025  1
  Te  Te92  1  0.73008747  0.08572149  0.76548342  1
  Te  Te93  1  0.77550835  0.41072228  0.08507074  1
  Te  Te94  1  0.73177497  0.44653610  0.43105638  1
  Te  Te95  1  0.78151170  0.44147283  0.74460184  1
  Te  Te96  1  0.74851446  0.74336331  0.06925776  1
  Te  Te97  1  0.74896499  0.71995030  0.41372926  1
  Te  Te98  1  0.74904188  0.74887597  0.76032609  1
  Te  Te99  1  0.07822309  0.25544375  0.24283379  1
  Te  Te100  1  0.06847653  0.28193117  0.60617519  1
  Te  Te101  1  0.09418998  0.25920975  0.93817364  1
  Te  Te102  1  0.08915164  0.57575859  0.23194244  1
  Te  Te103  1  0.09653873  0.59953187  0.58788946  1
  Te  Te104  1  0.03305768  0.62718153  0.96021699  1
  Te  Te105  1  0.07656155  0.89910899  0.22945348  1
  Te  Te106  1  0.07568828  0.90042054  0.57980395  1
  Te  Te107  1  0.07980258  0.89392200  0.92502640  1
  Te  Te108  1  0.42503252  0.28794883  0.23856257  1
  Te  Te109  1  0.41744747  0.24260313  0.57540939  1
  Te  Te110  1  0.40135304  0.25618748  0.90964697  1
  Te  Te111  1  0.42709513  0.58042144  0.26019816  1
  Te  Te112  1  0.42939079  0.57320716  0.59259877  1
  Te  Te113  1  0.43338966  0.57878635  0.93403605  1
  Te  Te114  1  0.42799425  0.92031814  0.25039114  1
  Te  Te115  1  0.40342020  0.90323250  0.57107951  1
  Te  Te116  1  0.43694958  0.90823004  0.91531332  1
  Te  Te117  1  0.75521429  0.26723320  0.24540209  1
  Te  Te118  1  0.75696252  0.26303337  0.59856738  1
  Te  Te119  1  0.73419884  0.24659226  0.90895950  1
  Te  Te120  1  0.77024379  0.57785367  0.24353099  1
  Te  Te121  1  0.77758742  0.59161995  0.58312156  1
  Te  Te122  1  0.73025359  0.55873798  0.95184043  1
  Te  Te123  1  0.75467181  0.93579942  0.22568481  1
  Te  Te124  1  0.76833380  0.88979747  0.57295596  1
  Te  Te125  1  0.74780284  0.90357676  0.90564880  1
  Te  Te126  1  0.24584331  0.25201131  0.08293311  1
  Te  Te127  1  0.24584849  0.24321262  0.43863514  1
  Te  Te128  1  0.24781578  0.25441244  0.75881196  1
  Te  Te129  1  0.23356240  0.57244652  0.08072642  1
  Te  Te130  1  0.22941507  0.58445405  0.41043859  1
  Te  Te131  1  0.25711754  0.58033626  0.76376594  1
  Te  Te132  1  0.23869202  0.89422285  0.06746846  1
  Te  Te133  1  0.24748915  0.90605820  0.41630685  1
  Te  Te134  1  0.25989232  0.91663311  0.74189263  1
  Te  Te135  1  0.56929604  0.27743024  0.08714504  1
  Te  Te136  1  0.57392454  0.26045229  0.40604903  1
  Te  Te137  1  0.59125558  0.26418341  0.77846555  1
  Te  Te138  1  0.61099587  0.60152286  0.07382450  1
  Te  Te139  1  0.58989273  0.56917797  0.41744240  1
  Te  Te140  1  0.58256187  0.57932590  0.79396869  1
  Te  Te141  1  0.58430897  0.89547170  0.06310895  1
  Te  Te142  1  0.57520342  0.91558578  0.42451867  1
  Te  Te143  1  0.58498587  0.89963628  0.76115729  1
  Te  Te144  1  0.88396658  0.29376114  0.06166621  1
  Te  Te145  1  0.91761130  0.24881609  0.41665604  1
  Te  Te146  1  0.93070345  0.28201082  0.75094160  1
  Te  Te147  1  0.91192176  0.56647681  0.03485120  1
  Te  Te148  1  0.91437572  0.54771487  0.39182275  1
  Te  Te149  1  0.91582034  0.56493060  0.77608655  1
  Te  Te150  1  0.92790839  0.91885180  0.08529468  1
  Te  Te151  1  0.92038500  0.90668126  0.39619332  1
  Te  Te152  1  0.92016664  0.93902290  0.72759948  1
  Te  Te153  1  0.23749701  0.07254134  0.24638317  1
  Te  Te154  1  0.25803328  0.07515210  0.60142763  1
  Te  Te155  1  0.23491240  0.08252089  0.92747818  1
  Te  Te156  1  0.25176726  0.42652795  0.25798335  1
  Te  Te157  1  0.24861403  0.41341699  0.58654931  1
  Te  Te158  1  0.23947584  0.43980402  0.92515725  1
  Te  Te159  1  0.24364646  0.72023690  0.23343271  1
  Te  Te160  1  0.25402335  0.74239271  0.56358682  1
  Te  Te161  1  0.23766823  0.74450258  0.91059226  1
  Te  Te162  1  0.57181087  0.10266959  0.25123831  1
  Te  Te163  1  0.59945247  0.07843679  0.59477125  1
  Te  Te164  1  0.56305199  0.07660862  0.90820067  1
  Te  Te165  1  0.56921236  0.43072730  0.24388807  1
  Te  Te166  1  0.60335581  0.44723566  0.58610623  1
  Te  Te167  1  0.62351186  0.46127881  0.89285521  1
  Te  Te168  1  0.56512431  0.76144249  0.26190933  1
  Te  Te169  1  0.59830263  0.72209893  0.60523174  1
  Te  Te170  1  0.55592671  0.68170822  0.91852072  1
  Te  Te171  1  0.92810807  0.08835382  0.23533009  1
  Te  Te172  1  0.90637335  0.10151838  0.58272391  1
  Te  Te173  1  0.89006643  0.10672974  0.93732715  1
  Te  Te174  1  0.90476145  0.43121438  0.24892175  1
  Te  Te175  1  0.92432196  0.43136390  0.58769629  1
  Te  Te176  1  0.93990658  0.38115029  0.94692660  1
  Te  Te177  1  0.90997920  0.75646798  0.24331347  1
  Te  Te178  1  0.89632938  0.69266515  0.56530582  1
  Te  Te179  1  0.92023221  0.73325532  0.90491979  1
