# generated using pymatgen
data_In2Te3
_symmetry_space_group_name_H-M   'P 1'
_cell_length_a   18.89026843
_cell_length_b   18.89391072
_cell_length_c   18.89273215
_cell_angle_alpha   89.95369691
_cell_angle_beta   89.96383204
_cell_angle_gamma   90.03455607
_symmetry_Int_Tables_number   1
_chemical_formula_structural   In2Te3
_chemical_formula_sum   'In72 Te108'
_cell_volume   6743.02000942
_cell_formula_units_Z   36
loop_
 _symmetry_equiv_pos_site_id
 _symmetry_equiv_pos_as_xyz
  1  'x, y, z'
loop_
 _atom_site_type_symbol
 _atom_site_label
 _atom_site_symmetry_multiplicity
 _atom_site_fract_x
 _atom_site_fract_y
 _atom_site_fract_z
 _atom_site_occupancy
  In  In0  1  0.85929051  0.14210789  -0.03011990  1
  In  In1  1  0.17985370  0.35889782  0.50563049  1
  In  In2  1  0.17036524  0.67438368  0.84485408  1
  In  In3  1  0.66913455  0.84698910  0.47143579  1
  In  In4  1  0.49544532  0.67653241  0.85317437  1
  In  In5  1  -0.00807424  -0.01706382  0.31533248  1
  In  In6  1  0.18295441  0.67661206  0.16121493  1
  In  In7  1  0.18329126  0.30066202  0.80716090  1
  In  In8  1  0.66107987  0.67667508  0.29426120  1
  In  In9  1  0.33141060  0.50637006  0.48027741  1
  In  In10  1  0.15534417  -0.01643975  0.83518729  1
  In  In11  1  0.80789673  0.33052875  0.83597962  1
  In  In12  1  0.33741647  -0.00952638  0.32692588  1
  In  In13  1  0.02155308  0.50831984  0.82729836  1
  In  In14  1  0.63638778  0.32139729  0.00788546  1
  In  In15  1  0.64891920  0.46788465  0.19396569  1
  In  In16  1  0.47229910  0.68838520  0.15340645  1
  In  In17  1  0.02874100  0.81434986  0.49047662  1
  In  In18  1  0.00737149  0.54018105  0.16402328  1
  In  In19  1  0.83174233  0.36486235  0.50267203  1
  In  In20  1  0.66498111  0.50721102  0.48371320  1
  In  In21  1  0.65362011  0.16792245  0.15475387  1
  In  In22  1  0.33901668  0.84317730  0.86118589  1
  In  In23  1  0.33870650  0.16819409  0.83166611  1
  In  In24  1  0.03868061  0.66015313  0.63114213  1
  In  In25  1  0.83699701  0.52204856  0.01495269  1
  In  In26  1  0.03574635  0.15546495  0.17330382  1
  In  In27  1  0.49497923  0.00279131  0.16192846  1
  In  In28  1  0.64273805  0.01670329  -0.00128667  1
  In  In29  1  0.68309016  0.67145643  0.01013382  1
  In  In30  1  0.65475892  0.02299038  0.66793701  1
  In  In31  1  0.34627682  0.34990337  -0.00314208  1
  In  In32  1  0.15484912  0.83978797  0.66506970  1
  In  In33  1  0.49743798  0.48831020  0.65440642  1
  In  In34  1  0.82902154  0.47928130  0.67807638  1
  In  In35  1  0.90232153  0.67687695  0.44852839  1
  In  In36  1  0.15954769  0.52038990  0.32125165  1
  In  In37  1  0.18542652  0.52652807  0.00191274  1
  In  In38  1  0.29834690  0.82946018  0.49223355  1
  In  In39  1  0.66149367  0.17956441  0.49620111  1
  In  In40  1  0.32940867  0.49302940  0.82380995  1
  In  In41  1  0.82770627  0.00735430  0.49707957  1
  In  In42  1  0.49547577  0.17567564  0.33408409  1
  In  In43  1  0.35182705  0.00322441  0.00265663  1
  In  In44  1  0.82629681  0.14975475  0.69022427  1
  In  In45  1  -0.00585040  0.16778692  0.50044024  1
  In  In46  1  0.18693844  0.14436430  0.67746967  1
  In  In47  1  0.17031903  -0.01113124  0.18165857  1
  In  In48  1  0.34545834  0.03661029  0.66135021  1
  In  In49  1  0.81308168  0.17507043  0.34998247  1
  In  In50  1  0.01220543  0.33934042  -0.01078972  1
  In  In51  1  0.65857324  0.65201495  0.66055425  1
  In  In52  1  0.83718251  0.84302091  0.01371196  1
  In  In53  1  0.82704129  0.66935475  0.85036634  1
  In  In54  1  0.86698164  0.85847480  0.69002186  1
  In  In55  1  0.17286967  0.17176245  0.33433762  1
  In  In56  1  0.82734949  -0.01698907  0.17864858  1
  In  In57  1  -0.01878520  0.33658786  0.65777525  1
  In  In58  1  0.66946820  0.82603873  0.85097606  1
  In  In59  1  0.32908648  0.66541016  0.32145311  1
  In  In60  1  0.17036311  0.84804077  0.00646081  1
  In  In61  1  0.63834857  0.28700931  0.68521503  1
  In  In62  1  0.33718144  0.33143097  0.33785807  1
  In  In63  1  0.50728923  -0.00312603  0.49311362  1
  In  In64  1  0.84042489  0.79930968  0.31599462  1
  In  In65  1  0.48446578  0.82479322  0.68567889  1
  In  In66  1  0.14741201  0.16952922  0.01030894  1
  In  In67  1  0.50900259  0.49252523  0.00308200  1
  In  In68  1  0.48735974  0.66921435  0.49132544  1
  In  In69  1  0.18328418  0.33095609  0.16954450  1
  In  In70  1  0.85394166  0.33807941  0.16535769  1
  In  In71  1  0.46783530  0.32268074  0.51825251  1
  Te  Te72  1  0.07693667  0.05017078  0.07283188  1
  Te  Te73  1  0.07295828  0.08039699  0.40455418  1
  Te  Te74  1  0.07678965  0.07951087  0.75228088  1
  Te  Te75  1  0.08454960  0.42408541  0.09273388  1
  Te  Te76  1  0.09522897  0.41069295  0.39683307  1
  Te  Te77  1  0.09044481  0.40618213  0.74040635  1
  Te  Te78  1  0.08602589  0.75521094  0.08489793  1
  Te  Te79  1  0.11162341  0.73157872  0.40131510  1
  Te  Te80  1  0.07066382  0.74454659  0.75158182  1
  Te  Te81  1  0.43812225  0.10326434  0.06798816  1
  Te  Te82  1  0.40812591  0.08766940  0.42217760  1
  Te  Te83  1  0.42720021  0.05712109  0.78388718  1
  Te  Te84  1  0.42635779  0.41659746  0.09962161  1
  Te  Te85  1  0.43765874  0.42424598  0.40981941  1
  Te  Te86  1  0.43510501  0.40844830  0.76309584  1
  Te  Te87  1  0.39538366  0.74680251  0.04373692  1
  Te  Te88  1  0.40912629  0.76635534  0.40690784  1
  Te  Te89  1  0.38998162  0.73495211  0.76040349  1
  Te  Te90  1  0.76912635  0.08828761  0.08408291  1
  Te  Te91  1  0.72061604  0.06888856  0.40936680  1
  Te  Te92  1  0.74098579  0.06908060  0.77763878  1
  Te  Te93  1  0.75263198  0.40964220  0.07507092  1
  Te  Te94  1  0.75473560  0.42905055  0.39624723  1
  Te  Te95  1  0.71338819  0.40779778  0.74727458  1
  Te  Te96  1  0.74653582  0.76589881  0.10206329  1
  Te  Te97  1  0.75315902  0.72823761  0.42753539  1
  Te  Te98  1  0.74651873  0.74888856  0.74171538  1
  Te  Te99  1  0.07928859  0.27055274  0.26318329  1
  Te  Te100  1  0.08721031  0.25129327  0.58682774  1
  Te  Te101  1  0.07415603  0.23708740  0.89613196  1
  Te  Te102  1  0.04033469  0.63092638  0.30094511  1
  Te  Te103  1  0.07269066  0.54405873  0.55272498  1
  Te  Te104  1  0.06896064  0.59905021  0.93903527  1
  Te  Te105  1  0.08490044  0.89007013  0.25072552  1
  Te  Te106  1  0.06978567  0.92286379  0.57870768  1
  Te  Te107  1  0.07097073  0.87946467  0.89994521  1
  Te  Te108  1  0.40961918  0.24950853  0.23910598  1
  Te  Te109  1  0.41579140  0.22204725  0.60869981  1
  Te  Te110  1  0.42318937  0.27265555  0.89510887  1
  Te  Te111  1  0.43026485  0.58645011  0.25100373  1
  Te  Te112  1  0.40570568  0.59101253  0.59030910  1
  Te  Te113  1  0.40677873  0.57613752  0.92484292  1
  Te  Te114  1  0.39954139  0.90517973  0.22346246  1
  Te  Te115  1  0.41330522  0.91410028  0.58545023  1
  Te  Te116  1  0.44431336  0.93848630  0.90436772  1
  Te  Te117  1  0.74829133  0.25627017  0.23904571  1
  Te  Te118  1  0.76532851  0.24811942  0.58575280  1
  Te  Te119  1  0.74488044  0.23603413  0.93425498  1
  Te  Te120  1  0.74488584  0.56926502  0.24058964  1
  Te  Te121  1  0.76239407  0.57719500  0.58033958  1
  Te  Te122  1  0.73459859  0.56564848  0.90997972  1
  Te  Te123  1  0.74737185  0.90461390  0.27263306  1
  Te  Te124  1  0.74564758  0.91801223  0.59027425  1
  Te  Te125  1  0.74944636  0.93038014  0.92280454  1
  Te  Te126  1  0.26133611  0.24275035  0.07565687  1
  Te  Te127  1  0.25835622  0.24571604  0.43538918  1
  Te  Te128  1  0.29233567  0.25442440  0.70429254  1
  Te  Te129  1  0.27546904  0.57727704  0.10552018  1
  Te  Te130  1  0.22933868  0.60578325  0.42869148  1
  Te  Te131  1  0.22751768  0.57373961  0.75449212  1
  Te  Te132  1  0.27561269  0.91156956  0.09834335  1
  Te  Te133  1  0.23247285  0.93534048  0.41561064  1
  Te  Te134  1  0.26424302  0.91817783  0.74975394  1
  Te  Te135  1  0.54457842  0.25533252  0.10396176  1
  Te  Te136  1  0.59782162  0.27248774  0.39531140  1
  Te  Te137  1  0.57275508  0.20546196  0.78614967  1
  Te  Te138  1  0.59631848  0.57836940  0.09480778  1
  Te  Te139  1  0.57638791  0.59402248  0.39592808  1
  Te  Te140  1  0.56898744  0.58175790  0.75761315  1
  Te  Te141  1  0.59669383  0.91691015  0.09503192  1
  Te  Te142  1  0.55904063  0.90215721  0.39342359  1
  Te  Te143  1  0.58769439  0.91084559  0.75307477  1
  Te  Te144  1  0.93741337  0.24033497  0.07954660  1
  Te  Te145  1  0.91479714  0.26670942  0.41702858  1
  Te  Te146  1  0.91463639  0.24989098  0.76392651  1
  Te  Te147  1  0.90391245  0.62612184  0.09789616  1
  Te  Te148  1  0.91969848  0.55350811  0.37162141  1
  Te  Te149  1  0.91259742  0.58339564  0.75230244  1
  Te  Te150  1  0.93196053  0.92004945  0.09928138  1
  Te  Te151  1  0.90770873  0.90542681  0.41787504  1
  Te  Te152  1  0.93358314  0.94283087  0.78771642  1
  Te  Te153  1  0.26028075  0.09670017  0.23722073  1
  Te  Te154  1  0.23633266  0.06111227  0.56680584  1
  Te  Te155  1  0.24077798  0.08144748  0.91978629  1
  Te  Te156  1  0.26203700  0.43233937  0.24979081  1
  Te  Te157  1  0.27669793  0.42721370  0.59168051  1
  Te  Te158  1  0.22077798  0.40513510  0.91811297  1
  Te  Te159  1  0.22608565  0.76400389  0.27435160  1
  Te  Te160  1  0.23615305  0.74116248  0.59130690  1
  Te  Te161  1  0.27086048  0.73605917  0.94945944  1
  Te  Te162  1  0.58742993  0.08004148  0.25865189  1
  Te  Te163  1  0.56010832  0.10940327  0.58523620  1
  Te  Te164  1  0.57474840  0.10810230  0.90738895  1
  Te  Te165  1  0.57501319  0.38213283  0.28555730  1
  Te  Te166  1  0.59492787  0.40063398  0.57349065  1
  Te  Te167  1  0.57480399  0.40455985  0.90365059  1
  Te  Te168  1  0.57757784  0.77073243  0.21824449  1
  Te  Te169  1  0.58097687  0.75681771  0.57884955  1
  Te  Te170  1  0.57348614  0.76227238  0.95022522  1
  Te  Te171  1  0.91541798  0.10533644  0.25710322  1
  Te  Te172  1  0.92071932  0.07412667  0.59579903  1
  Te  Te173  1  0.94948571  0.06281095  0.88640488  1
  Te  Te174  1  0.92634793  0.44184443  0.24456375  1
  Te  Te175  1  0.94449636  0.45702718  0.56806565  1
  Te  Te176  1  0.91261263  0.42389906  0.91079600  1
  Te  Te177  1  0.93307366  0.72317639  0.23163472  1
  Te  Te178  1  0.91646140  0.74806032  0.58725771  1
  Te  Te179  1  0.91607468  0.76584680  0.91298418  1
