# generated using pymatgen
data_In2Te3
_symmetry_space_group_name_H-M   'P 1'
_cell_length_a   18.89403302
_cell_length_b   18.89493636
_cell_length_c   18.90990718
_cell_angle_alpha   90.00514677
_cell_angle_beta   89.96641923
_cell_angle_gamma   89.89982755
_symmetry_Int_Tables_number   1
_chemical_formula_structural   In2Te3
_chemical_formula_sum   'In72 Te108'
_cell_volume   6750.85469669
_cell_formula_units_Z   36
loop_
 _symmetry_equiv_pos_site_id
 _symmetry_equiv_pos_as_xyz
  1  'x, y, z'
loop_
 _atom_site_type_symbol
 _atom_site_label
 _atom_site_symmetry_multiplicity
 _atom_site_fract_x
 _atom_site_fract_y
 _atom_site_fract_z
 _atom_site_occupancy
  In  In0  1  0.48909816  0.00246249  0.83445464  1
  In  In1  1  0.31679610  0.49296363  0.81799506  1
  In  In2  1  0.33419468  0.33047387  -0.00998543  1
  In  In3  1  0.70236462  0.50619087  0.16200495  1
  In  In4  1  0.16639880  0.17608409  0.32150977  1
  In  In5  1  0.66568175  0.51467281  0.50985644  1
  In  In6  1  0.35281606  0.18736763  0.17924978  1
  In  In7  1  0.82672921  0.27401538  0.84747203  1
  In  In8  1  0.52197695  0.49047838  -0.01439087  1
  In  In9  1  0.82045318  0.15954500  0.32823166  1
  In  In10  1  0.67947287  0.84746657  0.82531131  1
  In  In11  1  0.15872079  0.67187031  0.81889735  1
  In  In12  1  0.19550183  0.33916864  0.84181001  1
  In  In13  1  0.17905295  0.14717533  0.00470462  1
  In  In14  1  0.81723152  0.68187173  0.81927785  1
  In  In15  1  0.82242497  0.36144454  0.49693135  1
  In  In16  1  0.52399276  0.66299022  0.82276981  1
  In  In17  1  0.67211662  0.65238360  0.32192793  1
  In  In18  1  -0.03194000  0.31890555  0.65239370  1
  In  In19  1  0.30111007  0.74158714  0.37283620  1
  In  In20  1  0.50214406  0.48894168  0.33724409  1
  In  In21  1  0.35675166  0.32573605  0.66474273  1
  In  In22  1  0.84938249  0.82068818  0.00358494  1
  In  In23  1  -0.00301772  0.83965999  0.50637955  1
  In  In24  1  0.83766430  0.82661643  0.33512654  1
  In  In25  1  0.12372498  0.34915210  0.15683151  1
  In  In26  1  0.66505589  0.00645664  0.33722380  1
  In  In27  1  0.17564701  0.00061536  0.85167071  1
  In  In28  1  0.34752721  0.15715870  0.52142477  1
  In  In29  1  0.66612803  0.49187072  0.82374518  1
  In  In30  1  0.02616940  -0.02059225  0.32106335  1
  In  In31  1  0.81058842  0.00099158  0.51912254  1
  In  In32  1  0.66050205  0.82879077  0.14709160  1
  In  In33  1  0.66050266  0.33029314  0.66306027  1
  In  In34  1  0.34039247  0.36042479  0.34976190  1
  In  In35  1  0.50042674  0.16802220  -0.00756904  1
  In  In36  1  0.02403700  0.17599706  0.14463701  1
  In  In37  1  0.48815855  0.32037539  0.17850781  1
  In  In38  1  0.65626349  0.84112378  0.50862117  1
  In  In39  1  0.34968537  0.85819610  0.84319263  1
  In  In40  1  0.30659318  -0.04104743  0.35374490  1
  In  In41  1  0.15533698  0.52471065  0.33874379  1
  In  In42  1  0.49642191  -0.00154710  0.52586362  1
  In  In43  1  0.15904677  -0.00028820  0.15455437  1
  In  In44  1  0.14731643  0.14636175  0.68146872  1
  In  In45  1  -0.02431074  0.83561315  0.80656417  1
  In  In46  1  0.67506291  0.68236892  -0.02081504  1
  In  In47  1  -0.02320728  0.65562879  0.31464894  1
  In  In48  1  0.34517000  -0.01706311  0.64667683  1
  In  In49  1  0.14395716  0.50565949  0.65335897  1
  In  In50  1  0.16873584  0.67941679  0.50367636  1
  In  In51  1  0.16102461  0.36073263  0.48203014  1
  In  In52  1  0.31303542  0.51520245  0.16254984  1
  In  In53  1  0.36450502  0.53886458  0.54394319  1
  In  In54  1  0.85856710  0.37220650  0.17754750  1
  In  In55  1  0.81921454  0.50677549  0.66109098  1
  In  In56  1  0.34238814  0.67541673  0.00720416  1
  In  In57  1  0.00368632  0.31123903  0.00277849  1
  In  In58  1  0.51277075  -0.01215467  0.16332755  1
  In  In59  1  0.00356646  0.66963552  0.64732217  1
  In  In60  1  0.64584473  0.30379167  0.36035877  1
  In  In61  1  0.81704670  0.14369184  0.68057952  1
  In  In62  1  0.85192164  0.00518894  0.15609849  1
  In  In63  1  0.01681299  0.49359583  0.83941887  1
  In  In64  1  0.13958280  0.81704360  0.01326640  1
  In  In65  1  0.49404713  0.83152181  0.67448775  1
  In  In66  1  0.52265474  0.14832141  0.68161022  1
  In  In67  1  0.32173643  0.83410648  0.16159517  1
  In  In68  1  -0.01703344  0.16463243  0.49117629  1
  In  In69  1  0.88122728  0.50810253  0.02942995  1
  In  In70  1  0.49510065  0.66171036  0.17920197  1
  In  In71  1  0.68057939  0.15850760  0.15232690  1
  Te  Te72  1  0.06243288  0.06169510  0.05280303  1
  Te  Te73  1  0.08871057  0.08356332  0.41418498  1
  Te  Te74  1  0.06733870  0.06096232  0.76997032  1
  Te  Te75  1  0.04378665  0.43928435  0.07126505  1
  Te  Te76  1  0.06219947  0.42082513  0.39134312  1
  Te  Te77  1  0.08739530  0.39366365  0.74094996  1
  Te  Te78  1  0.03462710  0.74955248  0.09446266  1
  Te  Te79  1  0.06227434  0.73965201  0.41282443  1
  Te  Te80  1  0.08802158  0.76791279  0.72549862  1
  Te  Te81  1  0.41610794  0.08403590  0.08889736  1
  Te  Te82  1  0.40347985  0.05816206  0.42048493  1
  Te  Te83  1  0.39974612  0.08681936  0.74419779  1
  Te  Te84  1  0.41565273  0.42634320  0.08885438  1
  Te  Te85  1  0.42560741  0.42756892  0.45361043  1
  Te  Te86  1  0.42511817  0.41198817  0.76178171  1
  Te  Te87  1  0.43643382  0.76496355  0.08471400  1
  Te  Te88  1  0.42630016  0.75921780  0.44167349  1
  Te  Te89  1  0.40676003  0.74296112  0.76197897  1
  Te  Te90  1  0.73730037  0.04688120  0.07181397  1
  Te  Te91  1  0.73065016  0.10135740  0.43564671  1
  Te  Te92  1  0.78393603  0.03934720  0.78222512  1
  Te  Te93  1  0.76432207  0.41042033  0.06334065  1
  Te  Te94  1  0.72612575  0.42484449  0.39847528  1
  Te  Te95  1  0.77793061  0.39590525  0.75438610  1
  Te  Te96  1  0.76277216  0.73042293  0.09363621  1
  Te  Te97  1  0.74348115  0.74730153  0.41930461  1
  Te  Te98  1  0.71163252  0.73483251  0.73448741  1
  Te  Te99  1  0.05720090  0.26555267  0.26506335  1
  Te  Te100  1  0.08484250  0.25411148  0.57244890  1
  Te  Te101  1  0.10195277  0.24080497  0.91055266  1
  Te  Te102  1  0.07516865  0.58271202  0.22852557  1
  Te  Te103  1  0.06426849  0.57430662  0.54479650  1
  Te  Te104  1  0.09374176  0.58823674  0.91955200  1
  Te  Te105  1  0.12788833  0.89553232  0.25515278  1
  Te  Te106  1  0.11483153  0.90273566  0.56864449  1
  Te  Te107  1  0.06860176  0.90236717  0.90855155  1
  Te  Te108  1  0.43092590  0.24664963  0.29971224  1
  Te  Te109  1  0.45516600  0.24846605  0.57444474  1
  Te  Te110  1  0.42135882  0.25574952  0.90179857  1
  Te  Te111  1  0.40180667  0.58244660  0.26681785  1
  Te  Te112  1  0.46279899  0.61987031  0.61526861  1
  Te  Te113  1  0.42117709  0.58196313  0.91356638  1
  Te  Te114  1  0.41313318  0.91110753  0.25517596  1
  Te  Te115  1  0.39412359  0.86159972  0.55469559  1
  Te  Te116  1  0.42969126  0.92472970  0.94479749  1
  Te  Te117  1  0.74384685  0.26492264  0.24747377  1
  Te  Te118  1  0.76158694  0.25145616  0.58146884  1
  Te  Te119  1  0.73226814  0.18638975  0.92262664  1
  Te  Te120  1  0.78914121  0.59641032  0.24360935  1
  Te  Te121  1  0.76628693  0.60578272  0.56822251  1
  Te  Te122  1  0.76045273  0.57249275  0.91652267  1
  Te  Te123  1  0.74740234  0.91966218  0.24334544  1
  Te  Te124  1  0.76465679  0.88682547  0.60221962  1
  Te  Te125  1  0.78606735  0.91722549  0.90657782  1
  Te  Te126  1  0.24080424  0.25456279  0.09737907  1
  Te  Te127  1  0.25630450  0.24763045  0.42397319  1
  Te  Te128  1  0.25407815  0.24277702  0.73932489  1
  Te  Te129  1  0.23535869  0.61434656  0.08760071  1
  Te  Te130  1  0.26623579  0.58343345  0.42797786  1
  Te  Te131  1  0.24741131  0.59212875  0.72383709  1
  Te  Te132  1  0.24560205  0.91752598  0.06009393  1
  Te  Te133  1  0.21385522  0.88813651  0.45068594  1
  Te  Te134  1  0.25050938  0.91655861  0.74587274  1
  Te  Te135  1  0.58682776  0.25779082  0.08185495  1
  Te  Te136  1  0.54806759  0.22965151  0.43446426  1
  Te  Te137  1  0.60849887  0.23566829  0.76299901  1
  Te  Te138  1  0.59234017  0.59126244  0.08208290  1
  Te  Te139  1  0.57038261  0.59628287  0.41907336  1
  Te  Te140  1  0.58417885  0.56787686  0.72488471  1
  Te  Te141  1  0.60571949  0.93447589  0.05958381  1
  Te  Te142  1  0.56806506  0.91862453  0.41252636  1
  Te  Te143  1  0.58590521  0.93202786  0.73860144  1
  Te  Te144  1  0.89522277  0.24417359  0.09592566  1
  Te  Te145  1  0.90173815  0.26133475  0.40829806  1
  Te  Te146  1  0.93435613  0.21430320  0.75363569  1
  Te  Te147  1  0.95340812  0.61541361  0.09808378  1
  Te  Te148  1  0.87457870  0.56652501  0.37730230  1
  Te  Te149  1  0.92665814  0.58149738  0.75152145  1
  Te  Te150  1  0.93815460  0.89821571  0.09788346  1
  Te  Te151  1  0.90377842  0.94302644  0.41002787  1
  Te  Te152  1  0.86310738  0.91247013  0.74268499  1
  Te  Te153  1  0.25806789  0.07901910  0.24703166  1
  Te  Te154  1  0.23723477  0.07324813  0.58064238  1
  Te  Te155  1  0.27530223  0.09144565  0.91051395  1
  Te  Te156  1  0.23985841  0.40760165  0.24692088  1
  Te  Te157  1  0.25362515  0.41900972  0.58787255  1
  Te  Te158  1  0.24216989  0.44234758  0.94323422  1
  Te  Te159  1  0.23698437  0.74182246  0.24114832  1
  Te  Te160  1  0.24711522  0.78621255  0.57071403  1
  Te  Te161  1  0.24647628  0.75862424  0.91190915  1
  Te  Te162  1  0.57960443  0.09520456  0.24841745  1
  Te  Te163  1  0.60734870  0.06736734  0.59168559  1
  Te  Te164  1  0.59134795  0.08885608  0.90274152  1
  Te  Te165  1  0.58838839  0.42774681  0.22846472  1
  Te  Te166  1  0.57856224  0.41853194  0.57967375  1
  Te  Te167  1  0.59961763  0.39319902  0.90995297  1
  Te  Te168  1  0.58241977  0.75904500  0.25707453  1
  Te  Te169  1  0.57242815  0.74083209  0.58357885  1
  Te  Te170  1  0.57444646  0.77247326  0.91437758  1
  Te  Te171  1  0.93446448  0.09070676  0.25229802  1
  Te  Te172  1  0.92554019  0.06896130  0.59217043  1
  Te  Te173  1  0.87699821  0.16632191  0.94823463  1
  Te  Te174  1  0.92439703  0.45607741  0.27878016  1
  Te  Te175  1  0.92791255  0.44024697  0.57263520  1
  Te  Te176  1  0.92044858  0.39708398  0.90505875  1
  Te  Te177  1  0.93945570  0.78062232  0.23789143  1
  Te  Te178  1  0.90290062  0.75752142  0.58479802  1
  Te  Te179  1  0.92820907  0.73064031  0.90833875  1
