# generated using pymatgen
data_In2Te3
_symmetry_space_group_name_H-M   'P 1'
_cell_length_a   18.89872739
_cell_length_b   18.90849982
_cell_length_c   18.90554406
_cell_angle_alpha   89.96457370
_cell_angle_beta   90.05693345
_cell_angle_gamma   90.09580269
_symmetry_Int_Tables_number   1
_chemical_formula_structural   In2Te3
_chemical_formula_sum   'In72 Te108'
_cell_volume   6755.81751448
_cell_formula_units_Z   36
loop_
 _symmetry_equiv_pos_site_id
 _symmetry_equiv_pos_as_xyz
  1  'x, y, z'
loop_
 _atom_site_type_symbol
 _atom_site_label
 _atom_site_symmetry_multiplicity
 _atom_site_fract_x
 _atom_site_fract_y
 _atom_site_fract_z
 _atom_site_occupancy
  In  In0  1  0.35333387  0.49993192  0.84668638  1
  In  In1  1  0.84855091  0.17309616  0.64231391  1
  In  In2  1  0.48927268  0.82130841  0.33073574  1
  In  In3  1  0.83227214  0.66286481  0.14785512  1
  In  In4  1  0.33995787  0.83417880  0.49806557  1
  In  In5  1  0.68214884  0.02136422  0.31929343  1
  In  In6  1  0.32834973  0.82662999  0.17164437  1
  In  In7  1  0.68979953  0.50540143  0.83310197  1
  In  In8  1  0.49501015  0.49750323  0.66156220  1
  In  In9  1  0.49663554  0.30630139  0.85893507  1
  In  In10  1  0.01016069  0.16105775  0.16688502  1
  In  In11  1  -0.00312432  0.83878099  0.16679814  1
  In  In12  1  0.84818831  0.66505649  0.50083535  1
  In  In13  1  0.49658789  -0.00058233  0.81913298  1
  In  In14  1  0.16821617  0.51214289  0.33372123  1
  In  In15  1  0.31765577  0.49342593  0.48334768  1
  In  In16  1  0.00229904  0.50545154  0.50337865  1
  In  In17  1  0.15325476  0.18180237  0.33357968  1
  In  In18  1  0.66166987  0.48021426  0.20020702  1
  In  In19  1  0.83383632  0.50690294  0.00350474  1
  In  In20  1  0.47343534  0.64360895  0.18268406  1
  In  In21  1  0.48747099  0.19721457  0.36731500  1
  In  In22  1  0.83882403  0.17724411  0.34102440  1
  In  In23  1  0.83478909  0.15535046  0.00295161  1
  In  In24  1  0.01601730  0.33287030  0.67232199  1
  In  In25  1  0.40820706  0.16111825  0.62647607  1
  In  In26  1  0.85035126  0.82270958  -0.02192656  1
  In  In27  1  0.65294850  0.34698739  0.67804709  1
  In  In28  1  0.18009083  0.14624650  -0.01636690  1
  In  In29  1  0.16130999  0.85126790  -0.01466876  1
  In  In30  1  0.30808233  0.67154119  0.65573060  1
  In  In31  1  0.66781023  0.00200618  0.63192490  1
  In  In32  1  0.18560517  0.64701172  0.15433210  1
  In  In33  1  0.17966196  0.48626312  0.65265088  1
  In  In34  1  0.16665149  0.01206905  0.49775424  1
  In  In35  1  0.49180632  0.00013317  0.16015043  1
  In  In36  1  0.63781757  0.19812700  0.16293277  1
  In  In37  1  -0.00600808  0.32607452  0.00469856  1
  In  In38  1  0.33344742  0.15340059  0.16517887  1
  In  In39  1  0.65315613  -0.01217244  0.00418820  1
  In  In40  1  0.09648088  0.68027465  0.87577783  1
  In  In41  1  0.67898093  0.14227988  0.84480058  1
  In  In42  1  0.65734592  0.66451054  0.34290158  1
  In  In43  1  0.16033127  0.82218669  0.33409732  1
  In  In44  1  0.82694154  0.31839908  0.84044730  1
  In  In45  1  0.30889524  0.34381558  0.32684264  1
  In  In46  1  0.19032425  0.16768162  0.66451004  1
  In  In47  1  0.01549050  0.67563073  0.33102878  1
  In  In48  1  0.49328314  0.50164797  0.00556834  1
  In  In49  1  0.65829056  0.35131505  0.04816408  1
  In  In50  1  0.32428315  0.84190450  0.82950525  1
  In  In51  1  0.67063744  0.84021267  0.50970059  1
  In  In52  1  0.48783405  0.00321988  0.49673553  1
  In  In53  1  0.86180118  0.68363067  0.80637802  1
  In  In54  1  0.86734487  -0.00178663  0.83254220  1
  In  In55  1  0.17134804  0.33610756  0.82359136  1
  In  In56  1  0.15916312  0.36270655  0.17009500  1
  In  In57  1  0.33981595  0.33159890  0.01491230  1
  In  In58  1  0.02368631  -0.01643959  0.66848295  1
  In  In59  1  0.50884673  0.65531936  0.85360854  1
  In  In60  1  0.84027115  0.33839326  0.47041574  1
  In  In61  1  0.65158106  0.51163051  0.49565304  1
  In  In62  1  0.51124119  0.82375361  0.67188000  1
  In  In63  1  0.68885484  0.68777894  0.65431351  1
  In  In64  1  0.17044599  -0.02034029  0.16404763  1
  In  In65  1  0.01743053  0.67034514  0.66102533  1
  In  In66  1  0.16701330  -0.00876664  0.82529485  1
  In  In67  1  0.83170791  -0.01530214  0.16914766  1
  In  In68  1  0.64551364  0.18212469  0.47815127  1
  In  In69  1  0.17139342  0.35065934  0.49544947  1
  In  In70  1  0.86636809  -0.03072831  0.48359491  1
  In  In71  1  0.64927240  0.69173664  0.00368855  1
  Te  Te72  1  0.08454204  0.06704234  0.07389817  1
  Te  Te73  1  0.07148229  0.08922142  0.41350149  1
  Te  Te74  1  0.08637645  0.09684152  0.74840107  1
  Te  Te75  1  0.07120041  0.43302403  0.07362822  1
  Te  Te76  1  0.07166656  0.41524684  0.40160041  1
  Te  Te77  1  0.07974776  0.43991723  0.75936976  1
  Te  Te78  1  0.10118377  0.75972242  0.09234199  1
  Te  Te79  1  0.05688711  0.77560614  0.43839292  1
  Te  Te80  1  0.10853778  0.74990596  0.74681246  1
  Te  Te81  1  0.40837154  0.07658058  0.06679995  1
  Te  Te82  1  0.40178593  0.08721814  0.41366772  1
  Te  Te83  1  0.39452680  0.08076953  0.74900727  1
  Te  Te84  1  0.43382247  0.40715363  0.10122134  1
  Te  Te85  1  0.41647836  0.43562805  0.38566400  1
  Te  Te86  1  0.42826082  0.40206600  0.75834964  1
  Te  Te87  1  0.42018982  0.74496108  0.09126110  1
  Te  Te88  1  0.41172047  0.73393720  0.41769738  1
  Te  Te89  1  0.41812338  0.73084720  0.75012835  1
  Te  Te90  1  0.73516714  0.08990958  0.09830274  1
  Te  Te91  1  0.75184218  0.07588756  0.44329019  1
  Te  Te92  1  0.76233963  0.08072109  0.73332304  1
  Te  Te93  1  0.77749138  0.41840610  0.11282488  1
  Te  Te94  1  0.75202416  0.44405583  0.40575318  1
  Te  Te95  1  0.77142167  0.41958132  0.73948685  1
  Te  Te96  1  0.75094489  0.77343572  0.08233575  1
  Te  Te97  1  0.75501324  0.75452775  0.41793612  1
  Te  Te98  1  0.74408086  0.76147163  0.76702491  1
  Te  Te99  1  0.06440232  0.27550012  0.25182784  1
  Te  Te100  1  0.09351739  0.24700383  0.57592544  1
  Te  Te101  1  0.08729834  0.24673163  0.91430496  1
  Te  Te102  1  0.07380245  0.57679540  0.23162144  1
  Te  Te103  1  0.11359819  0.58912069  0.56198013  1
  Te  Te104  1  0.12245531  0.56642685  0.96844942  1
  Te  Te105  1  0.07043282  0.92692317  0.26653072  1
  Te  Te106  1  0.08651204  0.90257308  0.56070475  1
  Te  Te107  1  0.06044047  0.91722205  0.89902361  1
  Te  Te108  1  0.40669304  0.25528704  0.25002006  1
  Te  Te109  1  0.39572554  0.28504293  0.55207623  1
  Te  Te110  1  0.38031548  0.23370299  0.91150526  1
  Te  Te111  1  0.41432148  0.54846229  0.27556886  1
  Te  Te112  1  0.40343156  0.58231697  0.57726075  1
  Te  Te113  1  0.39970405  0.60747624  0.94978546  1
  Te  Te114  1  0.40389443  0.92497674  0.26006675  1
  Te  Te115  1  0.41733918  0.91883636  0.60128385  1
  Te  Te116  1  0.43607615  0.89685178  0.90913360  1
  Te  Te117  1  0.73877584  0.25655796  0.25907750  1
  Te  Te118  1  0.73701062  0.25642585  0.58102741  1
  Te  Te119  1  0.72855307  0.25843632  0.93990617  1
  Te  Te120  1  0.75556227  0.58620020  0.25578934  1
  Te  Te121  1  0.75846935  0.57335292  0.58667446  1
  Te  Te122  1  0.75489293  0.60999418  0.91974211  1
  Te  Te123  1  0.75021609  0.90592277  0.26191692  1
  Te  Te124  1  0.77911414  0.90495881  0.59403811  1
  Te  Te125  1  0.75765456  0.92627616  0.91292954  1
  Te  Te126  1  0.22694566  0.24888579  0.09494303  1
  Te  Te127  1  0.25728734  0.24299832  0.42786003  1
  Te  Te128  1  0.27108464  0.25162843  0.75677148  1
  Te  Te129  1  0.25223691  0.56799850  0.04917077  1
  Te  Te130  1  0.23150516  0.60249521  0.43181854  1
  Te  Te131  1  0.25256609  0.57178996  0.75709345  1
  Te  Te132  1  0.26998587  0.92135849  0.06629049  1
  Te  Te133  1  0.25212131  0.91856015  0.40627396  1
  Te  Te134  1  0.23372239  0.89938089  0.72809472  1
  Te  Te135  1  0.54112333  0.26388037  0.07186836  1
  Te  Te136  1  0.60296926  0.29494644  0.38616628  1
  Te  Te137  1  0.58986527  0.23619674  0.76054526  1
  Te  Te138  1  0.60092381  0.57439716  0.08729788  1
  Te  Te139  1  0.55500466  0.57844336  0.40568978  1
  Te  Te140  1  0.59224013  0.58415052  0.74413520  1
  Te  Te141  1  0.58925082  0.90571802  0.10641863  1
  Te  Te142  1  0.58700489  0.92363239  0.41222200  1
  Te  Te143  1  0.60425007  0.92051467  0.74295125  1
  Te  Te144  1  0.90408757  0.24909160  0.10070895  1
  Te  Te145  1  0.93682208  0.23018369  0.43736943  1
  Te  Te146  1  0.92518771  0.24056306  0.75486569  1
  Te  Te147  1  0.93354277  0.59668456  0.06569668  1
  Te  Te148  1  0.91956384  0.57732209  0.39878523  1
  Te  Te149  1  0.93081943  0.57656444  0.73653361  1
  Te  Te150  1  0.92424761  0.92531698  0.06503389  1
  Te  Te151  1  0.94664130  0.87945247  0.40112876  1
  Te  Te152  1  0.94849043  0.89678704  0.76421271  1
  Te  Te153  1  0.23832771  0.07916571  0.25622005  1
  Te  Te154  1  0.27662665  0.08097255  0.57858952  1
  Te  Te155  1  0.27051970  0.06607647  0.90130363  1
  Te  Te156  1  0.26504730  0.45475749  0.22822364  1
  Te  Te157  1  0.28597587  0.38607874  0.59944993  1
  Te  Te158  1  0.25128423  0.41788704  0.92628206  1
  Te  Te159  1  0.25702978  0.72775059  0.26225183  1
  Te  Te160  1  0.23463605  0.78247925  0.59134754  1
  Te  Te161  1  0.23703259  0.74576005  0.90757281  1
  Te  Te162  1  0.56633786  0.10104787  0.26293367  1
  Te  Te163  1  0.56582464  0.10699710  0.58883292  1
  Te  Te164  1  0.56729166  0.08774574  0.92936023  1
  Te  Te165  1  0.57067997  0.38599405  0.26405834  1
  Te  Te166  1  0.56690108  0.40347249  0.56683428  1
  Te  Te167  1  0.59067615  0.42258371  0.91192732  1
  Te  Te168  1  0.57900487  0.74225082  0.23792632  1
  Te  Te169  1  0.57490922  0.73547356  0.56560189  1
  Te  Te170  1  0.56993010  0.77632785  0.91179356  1
  Te  Te171  1  0.91692634  0.07795017  0.25451475  1
  Te  Te172  1  0.93649138  0.07046476  0.57563350  1
  Te  Te173  1  0.93483630  0.10042021  0.91274976  1
  Te  Te174  1  0.85233354  0.35201838  0.31580327  1
  Te  Te175  1  0.91941796  0.40961983  0.58491754  1
  Te  Te176  1  0.91620817  0.41962872  0.90990886  1
  Te  Te177  1  0.90863055  0.74948085  0.25013699  1
  Te  Te178  1  0.91430027  0.75403579  0.59655637  1
  Te  Te179  1  0.95345574  0.73081858  0.91779580  1
