# generated using pymatgen
data_In2Te3
_symmetry_space_group_name_H-M   'P 1'
_cell_length_a   18.97030220
_cell_length_b   18.97617328
_cell_length_c   18.97033682
_cell_angle_alpha   89.89610049
_cell_angle_beta   90.18696414
_cell_angle_gamma   90.06667773
_symmetry_Int_Tables_number   1
_chemical_formula_structural   In2Te3
_chemical_formula_sum   'In72 Te108'
_cell_volume   6828.96066855
_cell_formula_units_Z   36
loop_
 _symmetry_equiv_pos_site_id
 _symmetry_equiv_pos_as_xyz
  1  'x, y, z'
loop_
 _atom_site_type_symbol
 _atom_site_label
 _atom_site_symmetry_multiplicity
 _atom_site_fract_x
 _atom_site_fract_y
 _atom_site_fract_z
 _atom_site_occupancy
  In  In0  1  0.66019810  0.84584713  0.17390257  1
  In  In1  1  0.35026740  0.65933424  0.33611486  1
  In  In2  1  0.50541888  0.64946007  0.18066747  1
  In  In3  1  0.68561061  0.64173211  0.00127129  1
  In  In4  1  0.84492354  -0.01792030  0.51044685  1
  In  In5  1  0.66250622  -0.02180961  0.31570282  1
  In  In6  1  0.02412956  0.49269568  0.89534465  1
  In  In7  1  0.17745546  0.83760990  0.02408475  1
  In  In8  1  0.50022324  0.65244684  0.84794927  1
  In  In9  1  0.51684489  0.46217845  -0.03433387  1
  In  In10  1  0.47761140  0.13940751  0.35484693  1
  In  In11  1  0.31903876  0.20320380  0.80258495  1
  In  In12  1  0.85662380  0.82441164  -0.00061552  1
  In  In13  1  0.16005182  0.86937062  0.66518700  1
  In  In14  1  0.02736759  0.81960649  0.50601692  1
  In  In15  1  0.48122051  0.22869610  0.67941624  1
  In  In16  1  0.19393849  0.24363202  0.35492175  1
  In  In17  1  0.66430471  0.64436994  0.66649173  1
  In  In18  1  0.32747490  0.63310984  0.02219581  1
  In  In19  1  0.00401259  0.03198733  0.33874896  1
  In  In20  1  0.17748454  0.00458181  0.84174261  1
  In  In21  1  0.83406033  0.49567619  0.31127905  1
  In  In22  1  0.30828163  0.65000823  0.68457522  1
  In  In23  1  0.14893770  0.48035250  0.68860622  1
  In  In24  1  0.49778693  0.02044498  0.52749346  1
  In  In25  1  0.81273181  0.32507945  0.02121886  1
  In  In26  1  0.04068508  0.17568859  0.50654492  1
  In  In27  1  0.51114673  0.20901443  -0.03860240  1
  In  In28  1  0.48516376  0.04509028  0.83035406  1
  In  In29  1  0.66131946  0.16378304  0.48420457  1
  In  In30  1  -0.02602628  0.03798715  0.68503755  1
  In  In31  1  0.62885981  0.32774056  0.33434164  1
  In  In32  1  -0.00607091  0.82430564  0.17291772  1
  In  In33  1  0.84322446  0.86294998  0.65845382  1
  In  In34  1  0.49264679  0.81033573  0.34402443  1
  In  In35  1  0.50543316  0.45695779  0.71920458  1
  In  In36  1  -0.00093796  0.16714523  0.82215895  1
  In  In37  1  0.67397571  0.82824072  0.81316541  1
  In  In38  1  0.33871306  -0.02019462  0.35943195  1
  In  In39  1  0.73403648  0.18771447  0.13095440  1
  In  In40  1  0.84456844  0.62938497  0.14117469  1
  In  In41  1  0.82115518  0.83662592  0.31742456  1
  In  In42  1  0.16461545  0.67192015  0.49932648  1
  In  In43  1  0.63499970  0.48497454  0.52317387  1
  In  In44  1  0.48940711  0.49071536  0.33965731  1
  In  In45  1  0.83961424  0.34353011  0.48589789  1
  In  In46  1  0.68857222  0.84170047  0.49479969  1
  In  In47  1  0.34079999  0.82823196  0.85850730  1
  In  In48  1  0.01857671  0.33468492  0.32635943  1
  In  In49  1  0.79943752  0.17544776  0.67907141  1
  In  In50  1  0.19742897  0.21932968  -0.02595277  1
  In  In51  1  0.32189790  0.50047945  0.53794857  1
  In  In52  1  0.16802060  0.02859487  0.14251397  1
  In  In53  1  0.81632197  0.64041028  0.85630864  1
  In  In54  1  0.16378956  0.64255712  0.16375575  1
  In  In55  1  0.48391524  0.64957332  0.51227748  1
  In  In56  1  0.32878443  0.85492279  0.17819951  1
  In  In57  1  -0.00413662  0.48543053  0.12938862  1
  In  In58  1  0.50024077  0.04013306  0.15169230  1
  In  In59  1  -0.00546429  0.49590861  0.48170721  1
  In  In60  1  0.81778600  0.33626954  0.81677550  1
  In  In61  1  0.00443169  0.02187459  -0.02645362  1
  In  In62  1  0.15289267  0.83697760  0.34154857  1
  In  In63  1  0.85459943  0.49322707  0.65954503  1
  In  In64  1  0.84450944  0.15128226  0.31124652  1
  In  In65  1  0.33375937  0.17624074  0.16657169  1
  In  In66  1  0.50384419  0.84923601  0.66648524  1
  In  In67  1  0.14549313  0.44866800  0.27130023  1
  In  In68  1  0.00586389  0.68374350  0.68838699  1
  In  In69  1  0.51078856  0.84179432  0.01698120  1
  In  In70  1  0.49555990  0.33035142  0.15003568  1
  In  In71  1  0.84299854  -0.00213160  0.84642106  1
  Te  Te72  1  0.09560295  0.11700578  0.04592913  1
  Te  Te73  1  0.11910481  0.10689577  0.39919921  1
  Te  Te74  1  0.10750870  0.09639103  0.74072190  1
  Te  Te75  1  0.11520461  0.41313366  0.07854852  1
  Te  Te76  1  0.10682054  0.42103783  0.41994888  1
  Te  Te77  1  0.06126320  0.40536832  0.78066887  1
  Te  Te78  1  0.07846323  0.73808036  0.08168415  1
  Te  Te79  1  0.06642151  0.72500725  0.39438990  1
  Te  Te80  1  0.10944823  0.76285145  0.75375674  1
  Te  Te81  1  0.42042477  0.12131784  0.05573230  1
  Te  Te82  1  0.37722987  0.09017575  0.45699969  1
  Te  Te83  1  0.39977211  0.10362660  0.71948865  1
  Te  Te84  1  0.41408775  0.41112884  0.05785377  1
  Te  Te85  1  0.40602895  0.42826085  0.44216739  1
  Te  Te86  1  0.38809338  0.39427616  0.78478535  1
  Te  Te87  1  0.41762776  0.75234047  0.09978361  1
  Te  Te88  1  0.39575901  0.75457080  0.44566297  1
  Te  Te89  1  0.42372870  0.74693614  0.75654930  1
  Te  Te90  1  0.80067198  0.09024551  0.04629561  1
  Te  Te91  1  0.75475928  0.06592181  0.40960508  1
  Te  Te92  1  0.74708457  0.06362596  0.75653606  1
  Te  Te93  1  0.74785091  0.44621037  0.06808058  1
  Te  Te94  1  0.72750979  0.41677105  0.41217219  1
  Te  Te95  1  0.74420119  0.41861495  0.71961146  1
  Te  Te96  1  0.74706317  0.75392841  0.08822953  1
  Te  Te97  1  0.75398374  0.74496803  0.40986790  1
  Te  Te98  1  0.76713960  0.74241067  0.73039451  1
  Te  Te99  1  0.09782342  0.24387611  0.24173086  1
  Te  Te100  1  0.12380099  0.26372104  0.59074188  1
  Te  Te101  1  0.07103874  0.27159451  0.90422072  1
  Te  Te102  1  0.06146030  0.56893173  0.24668340  1
  Te  Te103  1  0.07994222  0.58430033  0.59075831  1
  Te  Te104  1  0.12969441  0.59165566  0.90456299  1
  Te  Te105  1  0.09400692  0.92576496  0.23389503  1
  Te  Te106  1  0.04082368  0.95765281  0.56835404  1
  Te  Te107  1  0.09086634  0.90778825  0.92025319  1
  Te  Te108  1  0.42756783  0.24968291  0.26137590  1
  Te  Te109  1  0.36479241  0.28259678  0.59776856  1
  Te  Te110  1  0.39747418  0.28996105  0.89880495  1
  Te  Te111  1  0.39645486  0.55842064  0.23514567  1
  Te  Te112  1  0.43465519  0.57313749  0.63248761  1
  Te  Te113  1  0.40060282  0.56108110  0.91149525  1
  Te  Te114  1  0.44463213  0.92514170  0.24913801  1
  Te  Te115  1  0.40824921  0.91859407  0.58184199  1
  Te  Te116  1  0.43148197  0.92972055  0.92342391  1
  Te  Te117  1  0.74695383  0.25959323  0.26740835  1
  Te  Te118  1  0.73967928  0.26360150  0.56846281  1
  Te  Te119  1  0.71547257  0.24567641  0.88181402  1
  Te  Te120  1  0.73966657  0.56031711  0.21721148  1
  Te  Te121  1  0.75313786  0.57008754  0.57079835  1
  Te  Te122  1  0.75373001  0.52716832  0.93444885  1
  Te  Te123  1  0.77294050  0.94173303  0.21910502  1
  Te  Te124  1  0.72673818  0.94339282  0.59958044  1
  Te  Te125  1  0.75089839  0.90276901  0.92113798  1
  Te  Te126  1  0.26389333  0.28326672  0.09253356  1
  Te  Te127  1  0.25078217  0.26920948  0.49148665  1
  Te  Te128  1  0.19633945  0.23748381  0.72725350  1
  Te  Te129  1  0.22768145  0.53819390  0.07986880  1
  Te  Te130  1  0.25450646  0.57866990  0.42129427  1
  Te  Te131  1  0.22319473  0.57542854  0.78278477  1
  Te  Te132  1  0.27443683  0.94487017  0.06962420  1
  Te  Te133  1  0.23286411  0.91162702  0.43957011  1
  Te  Te134  1  0.27432984  0.92148263  0.76130291  1
  Te  Te135  1  0.60147183  0.24669763  0.08215058  1
  Te  Te136  1  0.54651299  0.25065750  0.43447023  1
  Te  Te137  1  0.58792399  0.24566728  0.78841568  1
  Te  Te138  1  0.56443624  0.57549339  0.06313622  1
  Te  Te139  1  0.58059868  0.58504392  0.41800500  1
  Te  Te140  1  0.60289006  0.56573183  0.77894783  1
  Te  Te141  1  0.59876103  0.94903007  0.07932942  1
  Te  Te142  1  0.57091031  0.92155849  0.42531868  1
  Te  Te143  1  0.57616727  0.93408194  0.76626631  1
  Te  Te144  1  0.88378910  0.22416288  0.10473646  1
  Te  Te145  1  0.92587708  0.24214239  0.41178496  1
  Te  Te146  1  0.91708303  0.25554231  0.73056548  1
  Te  Te147  1  0.93802824  0.58586437  0.03709904  1
  Te  Te148  1  0.89788184  0.57925417  0.41313286  1
  Te  Te149  1  0.92572011  0.57668856  0.76422311  1
  Te  Te150  1  0.93782353  0.92705413  0.07583782  1
  Te  Te151  1  0.92882213  0.91316700  0.39791183  1
  Te  Te152  1  0.93922402  0.91286738  0.76469601  1
  Te  Te153  1  0.27229116  0.06405764  0.24827973  1
  Te  Te154  1  0.18619113  -0.00805434  0.58403081  1
  Te  Te155  1  0.27092126  0.10101227  0.90788407  1
  Te  Te156  1  0.25911845  0.35870770  0.28222784  1
  Te  Te157  1  0.28272776  0.41020297  0.65414971  1
  Te  Te158  1  0.18290469  0.37279771  0.94346341  1
  Te  Te159  1  0.24981986  0.74629231  0.25110131  1
  Te  Te160  1  0.24462097  0.75403091  0.59730947  1
  Te  Te161  1  0.25149956  0.73582088  0.93752121  1
  Te  Te162  1  0.58960375  0.09900103  0.25954832  1
  Te  Te163  1  0.57479168  0.12377652  0.60281262  1
  Te  Te164  1  0.59333645  0.09425121  0.91693817  1
  Te  Te165  1  0.57888157  0.42796667  0.23352118  1
  Te  Te166  1  0.55992229  0.38607465  0.60172247  1
  Te  Te167  1  0.60148668  0.35763967  0.89604306  1
  Te  Te168  1  0.59778800  0.73881340  0.26292299  1
  Te  Te169  1  0.58960220  0.74826513  0.58149090  1
  Te  Te170  1  0.59164863  0.75141540  0.92249760  1
  Te  Te171  1  0.95213854  0.10549425  0.22185367  1
  Te  Te172  1  0.90191048  0.11210016  0.57088086  1
  Te  Te173  1  0.89240695  0.12491425  0.92399264  1
  Te  Te174  1  0.91928773  0.40168559  0.23144768  1
  Te  Te175  1  0.94375814  0.39600070  0.58295059  1
  Te  Te176  1  0.90909069  0.39104219  0.92526904  1
  Te  Te177  1  0.90151522  0.73027561  0.24321409  1
  Te  Te178  1  0.91616227  0.75288093  0.58002040  1
  Te  Te179  1  0.91810485  0.73584016  0.90105199  1
