# generated using pymatgen
data_In2Te3
_symmetry_space_group_name_H-M   'P 1'
_cell_length_a   18.75122341
_cell_length_b   18.75237929
_cell_length_c   18.74919753
_cell_angle_alpha   90.08786836
_cell_angle_beta   90.03869748
_cell_angle_gamma   89.98308487
_symmetry_Int_Tables_number   1
_chemical_formula_structural   In2Te3
_chemical_formula_sum   'In72 Te108'
_cell_volume   6592.77178781
_cell_formula_units_Z   36
loop_
 _symmetry_equiv_pos_site_id
 _symmetry_equiv_pos_as_xyz
  1  'x, y, z'
loop_
 _atom_site_type_symbol
 _atom_site_label
 _atom_site_symmetry_multiplicity
 _atom_site_fract_x
 _atom_site_fract_y
 _atom_site_fract_z
 _atom_site_occupancy
  In  In0  1  0.16387575  0.67090533  0.15202937  1
  In  In1  1  0.32891306  0.49380005  0.84282848  1
  In  In2  1  0.67680213  -0.00729413  0.01360405  1
  In  In3  1  0.15029787  0.83178271  0.01535833  1
  In  In4  1  0.49626957  0.17820100  0.00527160  1
  In  In5  1  0.81288498  0.31145692  0.85595638  1
  In  In6  1  0.84363226  0.35229619  0.51562941  1
  In  In7  1  0.49224338  0.16220631  0.69391543  1
  In  In8  1  0.67182868  0.32188813  0.31995612  1
  In  In9  1  0.64901706  0.32177946  0.66305528  1
  In  In10  1  0.00463198  0.82997509  0.83553434  1
  In  In11  1  0.52222132  0.00321378  0.16319788  1
  In  In12  1  0.83924023  0.14003804  0.65929779  1
  In  In13  1  0.70540730  -0.01900291  0.29727717  1
  In  In14  1  0.01252668  0.16276199  0.84452729  1
  In  In15  1  0.49571119  0.65069888  0.85629791  1
  In  In16  1  0.15169333  0.16881957  0.32125761  1
  In  In17  1  0.67797035  0.84590188  0.49810005  1
  In  In18  1  -0.00451884  0.66977067  0.31161528  1
  In  In19  1  0.33569969  0.83135148  0.16082993  1
  In  In20  1  0.00759253  0.34602459  0.32164599  1
  In  In21  1  0.32716491  0.50205243  0.16608103  1
  In  In22  1  0.83516856  0.16156705  0.02445618  1
  In  In23  1  -0.01981495  0.85022908  0.48489408  1
  In  In24  1  0.32679074  0.50487402  0.48123067  1
  In  In25  1  0.48480837  0.33662009  0.86213827  1
  In  In26  1  0.16018550  0.34391142  0.47769624  1
  In  In27  1  0.48766449  0.33455101  0.15161541  1
  In  In28  1  0.14904776  0.33583967  0.86015796  1
  In  In29  1  -0.01377004  0.35106022  0.66151469  1
  In  In30  1  0.68532578  0.66439613  0.69985391  1
  In  In31  1  0.30010000  0.01534771  0.30925549  1
  In  In32  1  0.50004685  0.81024226  0.33721740  1
  In  In33  1  0.15350275  -0.00179759  0.48948643  1
  In  In34  1  0.16050529  0.17059153  0.68975568  1
  In  In35  1  0.00057051  0.49495920  0.16515891  1
  In  In36  1  0.32049452  0.85461854  0.85279378  1
  In  In37  1  0.17731171  0.01081884  0.83812069  1
  In  In38  1  0.31810627  0.67377345  0.65937928  1
  In  In39  1  0.66604127  0.49080983  0.48305395  1
  In  In40  1  0.68614196  0.82741732  0.84415749  1
  In  In41  1  -0.00958672  0.33804237  0.01275924  1
  In  In42  1  0.84037671  0.00238158  0.83310345  1
  In  In43  1  0.82724156  0.50325295  0.01479711  1
  In  In44  1  0.85295759  0.68304524  0.83922664  1
  In  In45  1  0.32165063  0.34204900  0.66631988  1
  In  In46  1  0.84996982  0.50557782  0.66618269  1
  In  In47  1  0.84504367  0.14803056  0.30935707  1
  In  In48  1  0.01491352  0.52177080  0.83446976  1
  In  In49  1  0.69513996  0.00379273  0.66476803  1
  In  In50  1  0.69005616  0.14135340  0.45769885  1
  In  In51  1  0.85590700  0.67119143  0.48413564  1
  In  In52  1  0.35049707  -0.01727223  0.67467527  1
  In  In53  1  0.15614678  0.64440742  0.51797427  1
  In  In54  1  0.64537965  0.47999976  0.84359546  1
  In  In55  1  0.31122404  0.16695645  0.48337709  1
  In  In56  1  0.48968806  -0.00336607  0.84154590  1
  In  In57  1  -0.00364266  0.14785708  0.49488807  1
  In  In58  1  0.48952639  0.66069427  0.17022747  1
  In  In59  1  0.66959756  0.66980915  0.33501179  1
  In  In60  1  0.18472907  0.32168198  0.14875699  1
  In  In61  1  0.68524919  0.67137471  0.01996852  1
  In  In62  1  0.49767767  0.82718627  0.66196281  1
  In  In63  1  0.84485562  0.68516791  0.17018106  1
  In  In64  1  0.47622187  0.35441525  0.48799811  1
  In  In65  1  0.49896885  -0.00687706  0.51353856  1
  In  In66  1  0.16107190  0.67707234  0.84472240  1
  In  In67  1  0.48764581  0.66100077  0.49329876  1
  In  In68  1  0.49610548  0.18187355  0.31252806  1
  In  In69  1  0.66939973  0.49435108  0.16948573  1
  In  In70  1  0.33089578  0.00665866  0.00301344  1
  In  In71  1  0.14672087  0.84018761  0.30172709  1
  Te  Te72  1  0.05218437  0.05908913  0.11071527  1
  Te  Te73  1  0.06170281  0.06292406  0.38518151  1
  Te  Te74  1  0.06694994  0.06344242  0.74219638  1
  Te  Te75  1  0.09949821  0.42704428  0.07065095  1
  Te  Te76  1  0.08959926  0.44455802  0.39613084  1
  Te  Te77  1  0.09249645  0.42200343  0.74612593  1
  Te  Te78  1  0.05444965  0.76015223  0.10293344  1
  Te  Te79  1  0.08215546  0.75116490  0.40935245  1
  Te  Te80  1  0.09230285  0.75562454  0.74051693  1
  Te  Te81  1  0.41431055  0.08969111  0.10215329  1
  Te  Te82  1  0.41699009  0.07981702  0.41336008  1
  Te  Te83  1  0.38687088  0.09019013  0.77885464  1
  Te  Te84  1  0.40596858  0.42321369  0.06301777  1
  Te  Te85  1  0.40285498  0.42291847  0.38121579  1
  Te  Te86  1  0.42550256  0.41864756  0.74648824  1
  Te  Te87  1  0.41625516  0.74583234  0.07216150  1
  Te  Te88  1  0.39411061  0.74403996  0.41498501  1
  Te  Te89  1  0.41302232  0.75533536  0.76658526  1
  Te  Te90  1  0.76563346  0.06069772  0.11392035  1
  Te  Te91  1  0.79984547  0.03615132  0.41679322  1
  Te  Te92  1  0.74148774  0.10319547  0.77208501  1
  Te  Te93  1  0.74818793  0.40101852  0.08366062  1
  Te  Te94  1  0.76716577  0.41627736  0.39807872  1
  Te  Te95  1  0.75301625  0.41142073  0.74234385  1
  Te  Te96  1  0.76414022  0.77993196  0.08608253  1
  Te  Te97  1  0.76628492  0.76607290  0.40241054  1
  Te  Te98  1  0.78049168  0.77554276  0.73523549  1
  Te  Te99  1  0.06512335  0.24614469  0.22213356  1
  Te  Te100  1  0.08613786  0.24711235  0.57835626  1
  Te  Te101  1  0.08798126  0.23208991  0.95656437  1
  Te  Te102  1  0.09866810  0.57413024  0.25241647  1
  Te  Te103  1  0.06033861  0.56620044  0.59665306  1
  Te  Te104  1  0.09049837  0.58821982  0.94158016  1
  Te  Te105  1  0.08511567  0.94546127  0.21465644  1
  Te  Te106  1  0.07748148  0.91246760  0.58113954  1
  Te  Te107  1  0.08018454  0.93272861  0.92495944  1
  Te  Te108  1  0.39437877  0.25370240  0.23676822  1
  Te  Te109  1  0.41246699  0.24055786  0.58491257  1
  Te  Te110  1  0.38796280  0.25296898  0.93566569  1
  Te  Te111  1  0.40739980  0.58304181  0.26480615  1
  Te  Te112  1  0.41216601  0.57393485  0.59238844  1
  Te  Te113  1  0.41279531  0.56692207  0.94443903  1
  Te  Te114  1  0.41980017  0.92486022  0.25905258  1
  Te  Te115  1  0.39903144  0.88839547  0.56231069  1
  Te  Te116  1  0.43192369  0.90425098  0.94698792  1
  Te  Te117  1  0.75656007  0.23892729  0.23158700  1
  Te  Te118  1  0.75176833  0.24335854  0.57633328  1
  Te  Te119  1  0.73001333  0.24997127  0.96031346  1
  Te  Te120  1  0.76392270  0.58308140  0.25141732  1
  Te  Te121  1  0.74488914  0.58571288  0.57645522  1
  Te  Te122  1  0.74871423  0.58420042  0.89979397  1
  Te  Te123  1  0.79011953  0.87895480  0.23214262  1
  Te  Te124  1  0.77785819  0.91208168  0.58503260  1
  Te  Te125  1  0.77879924  0.90615248  0.93529873  1
  Te  Te126  1  0.24493376  0.20530689  0.07708106  1
  Te  Te127  1  0.25545002  0.26690728  0.38531263  1
  Te  Te128  1  0.25315206  0.25653156  0.77256546  1
  Te  Te129  1  0.25362942  0.58893470  0.06788848  1
  Te  Te130  1  0.24390814  0.60194176  0.40665404  1
  Te  Te131  1  0.24046632  0.58140957  0.75253888  1
  Te  Te132  1  0.23773619  0.92940907  0.09695771  1
  Te  Te133  1  0.24558408  0.91121537  0.40386475  1
  Te  Te134  1  0.23431431  0.90624584  0.73900017  1
  Te  Te135  1  0.59373777  0.24480333  0.09609907  1
  Te  Te136  1  0.57967676  0.25311335  0.43123028  1
  Te  Te137  1  0.58687952  0.24644653  0.77852413  1
  Te  Te138  1  0.58099203  0.57663467  0.07665662  1
  Te  Te139  1  0.56913040  0.57323495  0.39761088  1
  Te  Te140  1  0.57161165  0.57495698  0.74603265  1
  Te  Te141  1  0.59051084  0.89686656  0.08842110  1
  Te  Te142  1  0.58909158  0.92967997  0.40537283  1
  Te  Te143  1  0.58741517  0.91798226  0.74973002  1
  Te  Te144  1  0.91396460  0.25782383  0.11010053  1
  Te  Te145  1  0.91209107  0.24884146  0.41651441  1
  Te  Te146  1  0.91834527  0.24567126  0.75270706  1
  Te  Te147  1  0.92871187  0.59769323  0.07386683  1
  Te  Te148  1  0.91212295  0.57389821  0.38882794  1
  Te  Te149  1  0.93980230  0.61007750  0.73325519  1
  Te  Te150  1  0.96141282  0.94371342  0.10337991  1
  Te  Te151  1  0.90341286  0.92309431  0.38001811  1
  Te  Te152  1  0.92152218  0.91672770  0.74572339  1
  Te  Te153  1  0.23943141  0.11105909  0.21028038  1
  Te  Te154  1  0.25157351  0.07984291  0.59468970  1
  Te  Te155  1  0.23221112  0.10400691  0.94311442  1
  Te  Te156  1  0.23367639  0.41838913  0.24874882  1
  Te  Te157  1  0.23381274  0.43023573  0.58148802  1
  Te  Te158  1  0.24964908  0.41053311  0.93852843  1
  Te  Te159  1  0.25519943  0.74348894  0.25442336  1
  Te  Te160  1  0.22511609  0.75942359  0.58459293  1
  Te  Te161  1  0.25850938  0.74860571  0.94060037  1
  Te  Te162  1  0.60609203  0.09396729  0.25412884  1
  Te  Te163  1  0.58903962  0.09194888  0.58853713  1
  Te  Te164  1  0.58581413  0.07978000  0.92387327  1
  Te  Te165  1  0.57193316  0.41765684  0.25766963  1
  Te  Te166  1  0.57079453  0.42756746  0.58496892  1
  Te  Te167  1  0.57472103  0.41346237  0.95351135  1
  Te  Te168  1  0.59633023  0.75664456  0.23303168  1
  Te  Te169  1  0.59667804  0.74293266  0.58092833  1
  Te  Te170  1  0.58701449  0.75067951  0.92945148  1
  Te  Te171  1  0.91307676  0.06090382  0.20446276  1
  Te  Te172  1  0.93355261  0.05118279  0.58812406  1
  Te  Te173  1  0.92760694  0.07569464  0.93561211  1
  Te  Te174  1  0.90373406  0.40699531  0.23372251  1
  Te  Te175  1  0.95394557  0.45796919  0.55155714  1
  Te  Te176  1  0.91272451  0.42008792  0.90075496  1
  Te  Te177  1  0.91958499  0.79117089  0.25542784  1
  Te  Te178  1  0.93149758  0.74817978  0.58323524  1
  Te  Te179  1  0.92720278  0.75801096  0.94136996  1
