# generated using pymatgen
data_In2Te3
_symmetry_space_group_name_H-M   'P 1'
_cell_length_a   18.99603773
_cell_length_b   18.99149518
_cell_length_c   18.98754802
_cell_angle_alpha   90.02394711
_cell_angle_beta   90.03809104
_cell_angle_gamma   89.96842722
_symmetry_Int_Tables_number   1
_chemical_formula_structural   In2Te3
_chemical_formula_sum   'In72 Te108'
_cell_volume   6850.00465563
_cell_formula_units_Z   36
loop_
 _symmetry_equiv_pos_site_id
 _symmetry_equiv_pos_as_xyz
  1  'x, y, z'
loop_
 _atom_site_type_symbol
 _atom_site_label
 _atom_site_symmetry_multiplicity
 _atom_site_fract_x
 _atom_site_fract_y
 _atom_site_fract_z
 _atom_site_occupancy
  In  In0  1  0.36324429  -0.01529562  0.34659624  1
  In  In1  1  0.82238698  0.16477628  0.65876845  1
  In  In2  1  0.49351453  0.82324327  0.66938332  1
  In  In3  1  -0.00216517  0.12082521  0.14923601  1
  In  In4  1  0.04015736  0.82555424  0.50836613  1
  In  In5  1  0.31709218  0.67841385  0.00086814  1
  In  In6  1  -0.04831689  0.01381160  0.65973808  1
  In  In7  1  0.16909081  0.16865900  0.30358023  1
  In  In8  1  0.63124072  0.34411265  0.66792022  1
  In  In9  1  0.81897382  0.36029817  0.12984441  1
  In  In10  1  0.67692568  0.85652811  0.47020198  1
  In  In11  1  -0.00592669  0.31777669  0.00819695  1
  In  In12  1  0.51375415  0.50247936  0.01636333  1
  In  In13  1  0.49033965  0.50892317  0.32708991  1
  In  In14  1  0.84835839  0.01667319  0.46921805  1
  In  In15  1  0.81058370  0.35145368  0.86811526  1
  In  In16  1  0.83403527  0.85029183  0.30757972  1
  In  In17  1  0.51200854  0.33928049  0.49036342  1
  In  In18  1  0.35576177  -0.00403158  0.68589247  1
  In  In19  1  0.18386902  0.34238576  0.47564364  1
  In  In20  1  0.01588354  0.49137044  0.49737204  1
  In  In21  1  0.66564939  0.65313901  0.02432098  1
  In  In22  1  0.17902403  0.52261654  0.35421626  1
  In  In23  1  0.65613593  0.83000327  0.83862750  1
  In  In24  1  0.01903452  0.32811215  0.66552596  1
  In  In25  1  0.64013975  0.83078481  0.15079984  1
  In  In26  1  0.65154866  -0.03643815  0.66746909  1
  In  In27  1  0.15116770  0.30592733  0.15255475  1
  In  In28  1  0.17168308  0.66082687  0.17441443  1
  In  In29  1  0.19372185  0.82342996  0.32934828  1
  In  In30  1  0.33295855  0.33619635  0.30960105  1
  In  In31  1  0.51235629  0.17068139  0.65778653  1
  In  In32  1  0.31699544  0.48044520  0.84420284  1
  In  In33  1  0.84111649  0.50123164  0.31704399  1
  In  In34  1  0.47117891  0.69115470  0.83339528  1
  In  In35  1  0.80937152  0.00949525  0.83526540  1
  In  In36  1  0.79836049  0.12358923  0.02576699  1
  In  In37  1  0.00335658  0.79823993  0.84492045  1
  In  In38  1  0.34964902  0.33988620  0.68209834  1
  In  In39  1  0.15710235  0.00963221  0.84482862  1
  In  In40  1  0.17562708  0.51025483  0.66777864  1
  In  In41  1  0.24516725  0.79674621  0.66033964  1
  In  In42  1  0.66290126  0.48984717  0.48924900  1
  In  In43  1  0.51869354  0.82713514  0.32525999  1
  In  In44  1  0.66882224  0.68255437  0.68401816  1
  In  In45  1  0.15791408  0.15003727  0.66586844  1
  In  In46  1  0.13637581  0.33124992  0.85015638  1
  In  In47  1  0.64666885  0.52206440  0.85625590  1
  In  In48  1  0.15997079  0.67739725  0.84805932  1
  In  In49  1  0.34676864  0.13676689  0.16957878  1
  In  In50  1  -0.02113407  0.68003598  0.32183355  1
  In  In51  1  0.33925436  0.51313242  0.16503716  1
  In  In52  1  -0.00617333  0.65349367  0.01021149  1
  In  In53  1  0.17945204  0.85025670  0.01214732  1
  In  In54  1  0.30204306  0.16345951  0.84629035  1
  In  In55  1  0.67629698  0.34476028  0.32561657  1
  In  In56  1  0.18115384  0.01425782  0.49937927  1
  In  In57  1  0.48696529  0.31423739  0.86351012  1
  In  In58  1  0.83021367  0.65691702  0.16677559  1
  In  In59  1  0.53545490  0.32097654  0.13658749  1
  In  In60  1  0.44027918  0.86814447  -0.00373508  1
  In  In61  1  0.67630937  0.15934621  0.51318517  1
  In  In62  1  0.48715462  0.66687631  0.50320840  1
  In  In63  1  0.81848245  0.68909300  0.50666223  1
  In  In64  1  -0.03526365  0.17874804  0.85808656  1
  In  In65  1  0.82661867  0.19220092  0.32434385  1
  In  In66  1  0.02410023  -0.00673673  0.31505149  1
  In  In67  1  0.84694687  0.50339500  0.68888380  1
  In  In68  1  0.80343097  0.82142907  0.69029571  1
  In  In69  1  0.51612409  0.13326090  0.30455241  1
  In  In70  1  0.51320242  0.00495126  0.15365678  1
  In  In71  1  0.00269571  0.65251183  0.67205224  1
  Te  Te72  1  0.12310279  0.05210998  0.09266941  1
  Te  Te73  1  0.08871494  0.09205710  0.40968440  1
  Te  Te74  1  0.04878871  0.09094862  0.75403022  1
  Te  Te75  1  0.07973047  0.41075805  0.08165913  1
  Te  Te76  1  0.07677141  0.40553201  0.39127460  1
  Te  Te77  1  0.07679766  0.43578118  0.75492905  1
  Te  Te78  1  0.09248352  0.75031721  0.08265963  1
  Te  Te79  1  0.09580700  0.73366418  0.40483122  1
  Te  Te80  1  0.10155522  0.76059098  0.72627603  1
  Te  Te81  1  0.44193735  0.09850890  0.06048711  1
  Te  Te82  1  0.42741983  0.09739586  0.41400165  1
  Te  Te83  1  0.41772756  0.11112418  0.76217644  1
  Te  Te84  1  0.41806886  0.40907546  0.08802644  1
  Te  Te85  1  0.40672912  0.41788952  0.41459665  1
  Te  Te86  1  0.43703846  0.42525766  0.76935168  1
  Te  Te87  1  0.40754950  0.75658679  0.08372495  1
  Te  Te88  1  0.42770345  0.77956309  0.43155299  1
  Te  Te89  1  0.37709534  0.75139897  0.72971984  1
  Te  Te90  1  0.74945443  0.03688770  0.13801630  1
  Te  Te91  1  0.73686290  0.08433060  0.39708845  1
  Te  Te92  1  0.72209397  0.08107592  0.73626172  1
  Te  Te93  1  0.72083528  0.43227267  0.04879211  1
  Te  Te94  1  0.77149021  0.41168658  0.42208716  1
  Te  Te95  1  0.72961074  0.42964386  0.75606328  1
  Te  Te96  1  0.75552109  0.76025249  0.08142360  1
  Te  Te97  1  0.74906404  0.75064730  0.38821475  1
  Te  Te98  1  0.76214360  0.72195855  0.79479440  1
  Te  Te99  1  0.05139448  0.23551321  0.24038625  1
  Te  Te100  1  0.10041972  0.24945403  0.56636415  1
  Te  Te101  1  0.08948637  0.21496766  0.93363760  1
  Te  Te102  1  0.07432121  0.58052084  0.25857609  1
  Te  Te103  1  0.09809081  0.59547023  0.56933078  1
  Te  Te104  1  0.07930389  0.57864344  0.91572303  1
  Te  Te105  1  0.10371010  0.89682498  0.23600931  1
  Te  Te106  1  0.07074733  0.95088504  0.58543321  1
  Te  Te107  1  0.07115181  0.91202485  0.92056080  1
  Te  Te108  1  0.43934565  0.25420791  0.24047863  1
  Te  Te109  1  0.41791905  0.25583105  0.57583630  1
  Te  Te110  1  0.36343410  0.26932116  0.93084472  1
  Te  Te111  1  0.39279976  0.60413950  0.26815007  1
  Te  Te112  1  0.37641184  0.59539435  0.56898926  1
  Te  Te113  1  0.41463178  0.57723241  0.92536840  1
  Te  Te114  1  0.42444147  0.91066514  0.23112202  1
  Te  Te115  1  0.42540703  0.91803396  0.58256802  1
  Te  Te116  1  0.42206028  0.91267900  0.85922532  1
  Te  Te117  1  0.74069401  0.26201961  0.21770541  1
  Te  Te118  1  0.73880882  0.27480527  0.58805364  1
  Te  Te119  1  0.75279247  0.22751279  0.91773632  1
  Te  Te120  1  0.73900556  0.57918639  0.25078519  1
  Te  Te121  1  0.74700994  0.58315403  0.59075238  1
  Te  Te122  1  0.75535654  0.55291774  0.95649623  1
  Te  Te123  1  0.72127204  0.92274287  0.24141325  1
  Te  Te124  1  0.77235461  0.92749728  0.57544079  1
  Te  Te125  1  0.75114668  0.90607289  0.92005706  1
  Te  Te126  1  0.25682366  0.22455601  0.09348538  1
  Te  Te127  1  0.26407780  0.23755109  0.40149778  1
  Te  Te128  1  0.23314378  0.26304734  0.74490244  1
  Te  Te129  1  0.23671897  0.57117883  0.06922789  1
  Te  Te130  1  0.27889898  0.58809314  0.44034204  1
  Te  Te131  1  0.25811316  0.59249868  0.76265426  1
  Te  Te132  1  0.25249266  0.96466772  0.06993632  1
  Te  Te133  1  0.26388571  0.90656551  0.43503200  1
  Te  Te134  1  0.22889858  0.93020186  0.73518399  1
  Te  Te135  1  0.56860234  0.20531649  0.04882131  1
  Te  Te136  1  0.59426043  0.24407765  0.40677599  1
  Te  Te137  1  0.58565428  0.24295959  0.76952038  1
  Te  Te138  1  0.56189846  0.60099739  0.11563719  1
  Te  Te139  1  0.58589811  0.59328463  0.41279898  1
  Te  Te140  1  0.56310092  0.59957115  0.75177485  1
  Te  Te141  1  0.57476739  0.91879457  0.04378899  1
  Te  Te142  1  0.58855732  0.94013053  0.39117059  1
  Te  Te143  1  0.55626068  0.93185166  0.78444381  1
  Te  Te144  1  0.90084121  0.22768860  0.08510776  1
  Te  Te145  1  0.89852438  0.23696882  0.44126554  1
  Te  Te146  1  0.90426230  0.26147886  0.74531659  1
  Te  Te147  1  0.92730995  0.56494590  0.10735697  1
  Te  Te148  1  0.91570022  0.59497459  0.43714382  1
  Te  Te149  1  0.91399958  0.60001123  0.77513657  1
  Te  Te150  1  1.00009907  0.96917063  0.12533763  1
  Te  Te151  1  0.93476107  0.89888361  0.41686159  1
  Te  Te152  1  0.91165907  0.90458028  0.75861925  1
  Te  Te153  1  0.25707881  0.05468030  0.26039554  1
  Te  Te154  1  0.27324900  0.09162714  0.59025263  1
  Te  Te155  1  0.27448337  0.04287308  0.93058829  1
  Te  Te156  1  0.23377561  0.42623676  0.24257703  1
  Te  Te157  1  0.25978039  0.41657621  0.58415734  1
  Te  Te158  1  0.24057800  0.39483647  0.93454866  1
  Te  Te159  1  0.27774262  0.73257040  0.24825329  1
  Te  Te160  1  0.27124303  0.70860934  0.54323689  1
  Te  Te161  1  0.25751940  0.77827287  0.90400394  1
  Te  Te162  1  0.62008479  0.10200608  0.20246244  1
  Te  Te163  1  0.57798718  0.06155127  0.57591425  1
  Te  Te164  1  0.65916660  0.10972514  0.96455687  1
  Te  Te165  1  0.58306386  0.42584460  0.23945317  1
  Te  Te166  1  0.55534130  0.44785674  0.58748382  1
  Te  Te167  1  0.59448646  0.39955115  0.93377833  1
  Te  Te168  1  0.58004321  0.72600146  0.23572797  1
  Te  Te169  1  0.60491698  0.76533949  0.57514452  1
  Te  Te170  1  0.57669072  0.73760569  0.92876431  1
  Te  Te171  1  0.90612000  0.07317383  0.26615564  1
  Te  Te172  1  0.92466424  0.12588199  0.54831113  1
  Te  Te173  1  0.91072885  0.06223954  0.93494230  1
  Te  Te174  1  0.91200768  0.40579176  0.23367521  1
  Te  Te175  1  0.92127919  0.41693549  0.58887379  1
  Te  Te176  1  0.93338059  0.41230952  0.91274472  1
  Te  Te177  1  0.92549134  0.77325807  0.21741288  1
  Te  Te178  1  0.91815019  0.76212358  0.59465272  1
  Te  Te179  1  0.91224227  0.76215793  0.95196708  1
