# generated using pymatgen
data_In2Te3
_symmetry_space_group_name_H-M   'P 1'
_cell_length_a   18.84749521
_cell_length_b   18.85017923
_cell_length_c   18.85329703
_cell_angle_alpha   90.05659333
_cell_angle_beta   90.06258835
_cell_angle_gamma   89.96460761
_symmetry_Int_Tables_number   1
_chemical_formula_structural   In2Te3
_chemical_formula_sum   'In72 Te108'
_cell_volume   6698.16562063
_cell_formula_units_Z   36
loop_
 _symmetry_equiv_pos_site_id
 _symmetry_equiv_pos_as_xyz
  1  'x, y, z'
loop_
 _atom_site_type_symbol
 _atom_site_label
 _atom_site_symmetry_multiplicity
 _atom_site_fract_x
 _atom_site_fract_y
 _atom_site_fract_z
 _atom_site_occupancy
  In  In0  1  0.48681935  0.02896715  0.84682886  1
  In  In1  1  0.34352964  -0.00927154  0.69187490  1
  In  In2  1  0.00770591  0.34949787  0.67530921  1
  In  In3  1  0.15543807  0.81857996  0.34836620  1
  In  In4  1  0.49511183  0.17440203  0.35977925  1
  In  In5  1  0.01402775  0.83144471  0.17258579  1
  In  In6  1  0.68827394  0.84503015  0.82961533  1
  In  In7  1  0.34023215  0.33105096  0.38417083  1
  In  In8  1  0.31224134  0.84466929  0.83683821  1
  In  In9  1  0.65819133  0.86189151  0.17112246  1
  In  In10  1  0.83607167  0.83851541  -0.02707799  1
  In  In11  1  0.82183072  0.52134445  0.67210134  1
  In  In12  1  -0.00532578  0.67097237  0.37293529  1
  In  In13  1  0.47680251  0.50452131  0.30723633  1
  In  In14  1  0.14781782  -0.00466518  0.49831660  1
  In  In15  1  0.85237786  0.17714000  0.31954571  1
  In  In16  1  0.66734525  0.49752285  0.48836332  1
  In  In17  1  0.15484295  -0.00400466  0.15717165  1
  In  In18  1  0.33690975  0.32826695  -0.00715351  1
  In  In19  1  -0.00193187  0.01266037  -0.01274699  1
  In  In20  1  0.17824318  0.83110485  0.00717915  1
  In  In21  1  0.64295477  0.15075660  0.50438080  1
  In  In22  1  0.29564696  0.53283177  0.50709796  1
  In  In23  1  0.69034078  0.70233550  0.34773479  1
  In  In24  1  0.66848010  0.00453560  0.66002464  1
  In  In25  1  0.01428184  0.84211865  0.82428700  1
  In  In26  1  0.49254299  0.81487078  0.03402580  1
  In  In27  1  0.48376127  0.18699439  0.00152839  1
  In  In28  1  0.47950655  0.49558426  0.67499461  1
  In  In29  1  -0.00634889  -0.01704055  0.65590569  1
  In  In30  1  0.85890463  0.30463711  0.13763876  1
  In  In31  1  0.68723128  -0.01372650  0.34856633  1
  In  In32  1  0.51722498  -0.01594650  0.17535681  1
  In  In33  1  0.01341206  0.51567090  0.49776840  1
  In  In34  1  0.81306266  0.31009047  0.87103941  1
  In  In35  1  0.33277748  0.65525217  0.32904588  1
  In  In36  1  0.49525000  0.82699168  0.66454943  1
  In  In37  1  0.67574007  0.65803744  -0.00842529  1
  In  In38  1  0.01122921  0.16237238  0.52769154  1
  In  In39  1  0.18415606  0.65047915  0.16612353  1
  In  In40  1  0.67499573  0.50030755  0.15291396  1
  In  In41  1  0.65047175  0.65304623  0.64794025  1
  In  In42  1  0.32776902  0.16659899  0.50223207  1
  In  In43  1  0.85115138  0.49334375  -0.01574239  1
  In  In44  1  0.00436254  0.35375636  0.32691300  1
  In  In45  1  0.47858221  0.67755942  0.82812674  1
  In  In46  1  0.65208781  0.17804650  0.15561084  1
  In  In47  1  0.49217017  0.33869005  0.17024939  1
  In  In48  1  0.50150251  0.32134116  0.52406305  1
  In  In49  1  0.31961037  0.50814323  0.15587726  1
  In  In50  1  0.16105597  0.66742122  0.83046417  1
  In  In51  1  0.15558737  0.32935621  0.15777150  1
  In  In52  1  0.49937109  0.66466588  0.50204952  1
  In  In53  1  0.85767519  0.03275691  0.83080175  1
  In  In54  1  0.51594255  0.82281704  0.33654678  1
  In  In55  1  0.32081564  0.14043840  0.17191210  1
  In  In56  1  0.32586955  -0.01287240  0.33701828  1
  In  In57  1  0.80926770  0.32013925  0.51477097  1
  In  In58  1  0.63009329  0.42588456  0.81715247  1
  In  In59  1  -0.00809406  0.49722968  0.82978036  1
  In  In60  1  0.84712661  0.67630363  0.81599591  1
  In  In61  1  0.16979102  0.17127779  0.69473767  1
  In  In62  1  0.01416663  0.18578608  0.84386397  1
  In  In63  1  0.35192510  0.49062460  0.84827742  1
  In  In64  1  0.86566345  0.83236996  0.59430962  1
  In  In65  1  0.17568746  0.49498096  0.33217668  1
  In  In66  1  0.00307722  0.48270524  0.15012578  1
  In  In67  1  0.17756888  0.49006814  0.66743690  1
  In  In68  1  0.82604837  0.15736445  0.65274046  1
  In  In69  1  0.31101497  0.01462613  -0.02891409  1
  In  In70  1  0.83668771  0.66782129  0.17367475  1
  In  In71  1  0.82038289  0.01769035  0.17116924  1
  Te  Te72  1  0.07786002  0.09999073  0.08086350  1
  Te  Te73  1  0.05052542  0.07208278  0.41827084  1
  Te  Te74  1  0.06756152  0.07445257  0.75395168  1
  Te  Te75  1  0.08870592  0.41053865  0.05493978  1
  Te  Te76  1  0.10184123  0.40943798  0.43277042  1
  Te  Te77  1  0.10477349  0.40866133  0.77518352  1
  Te  Te78  1  0.08529600  0.73634556  0.08082309  1
  Te  Te79  1  0.04775114  0.78919964  0.45380840  1
  Te  Te80  1  0.09953309  0.76257163  0.73387001  1
  Te  Te81  1  0.42429998  0.07153249  0.08333113  1
  Te  Te82  1  0.41909980  0.06539168  0.43049738  1
  Te  Te83  1  0.42093419  0.10767929  0.74133939  1
  Te  Te84  1  0.42139600  0.43032951  0.07357625  1
  Te  Te85  1  0.43185295  0.43808659  0.43762530  1
  Te  Te86  1  0.42000203  0.38993790  0.76020783  1
  Te  Te87  1  0.39970179  0.72761884  0.10021248  1
  Te  Te88  1  0.40693686  0.75287122  0.42055632  1
  Te  Te89  1  0.38317666  0.75118510  0.73694128  1
  Te  Te90  1  0.74465091  0.09695837  0.07455791  1
  Te  Te91  1  0.75764408  0.10150025  0.41795903  1
  Te  Te92  1  0.73679554  0.09742357  0.76070756  1
  Te  Te93  1  0.76073697  0.40645909  0.06829284  1
  Te  Te94  1  0.75734492  0.41043898  0.41137819  1
  Te  Te95  1  0.77306011  0.40727347  0.75713127  1
  Te  Te96  1  0.75434891  0.76063176  0.07805095  1
  Te  Te97  1  0.79147508  0.76166261  0.44001100  1
  Te  Te98  1  0.74638775  0.74832845  0.72734762  1
  Te  Te99  1  0.07596768  0.25012094  0.25197732  1
  Te  Te100  1  0.10344631  0.26440842  0.59276817  1
  Te  Te101  1  0.13930979  0.22788837  0.91174055  1
  Te  Te102  1  0.07508317  0.57702521  0.25098858  1
  Te  Te103  1  0.10040163  0.59658063  0.59096485  1
  Te  Te104  1  0.06789009  0.58981420  0.91521464  1
  Te  Te105  1  0.07849407  0.92609894  0.27141150  1
  Te  Te106  1  0.08810018  0.89014232  0.58806854  1
  Te  Te107  1  0.10231293  0.92731616  0.91582809  1
  Te  Te108  1  0.40715520  0.24135945  0.25330929  1
  Te  Te109  1  0.39860053  0.25182230  0.60154748  1
  Te  Te110  1  0.43048187  0.26947031  0.88657849  1
  Te  Te111  1  0.42497528  0.61529057  0.20969371  1
  Te  Te112  1  0.40181146  0.60103457  0.59824336  1
  Te  Te113  1  0.43661008  0.58226238  0.93060607  1
  Te  Te114  1  0.41550028  0.89985211  0.24894849  1
  Te  Te115  1  0.39920464  0.90437602  0.58516723  1
  Te  Te116  1  0.42276301  0.91031290  0.92170538  1
  Te  Te117  1  0.75041400  0.25816753  0.24106638  1
  Te  Te118  1  0.71143436  0.24982240  0.60984178  1
  Te  Te119  1  0.70975263  0.21709942  0.91187538  1
  Te  Te120  1  0.74552567  0.58589092  0.26037041  1
  Te  Te121  1  0.75998278  0.59817189  0.55690602  1
  Te  Te122  1  0.76112358  0.57747703  0.89420426  1
  Te  Te123  1  0.77505760  0.90051179  0.25971655  1
  Te  Te124  1  0.74181875  0.92091723  0.56143346  1
  Te  Te125  1  0.75430450  0.95216639  0.91578798  1
  Te  Te126  1  0.24890490  0.23414938  0.07843109  1
  Te  Te127  1  0.23390295  0.23539163  0.41067005  1
  Te  Te128  1  0.24314144  0.25027887  0.79797091  1
  Te  Te129  1  0.22608514  0.56176601  0.05340914  1
  Te  Te130  1  0.20321209  0.62744928  0.41073827  1
  Te  Te131  1  0.26192465  0.57839088  0.75837035  1
  Te  Te132  1  0.26870801  0.92286201  0.08847127  1
  Te  Te133  1  0.25151484  0.89844131  0.43566703  1
  Te  Te134  1  0.22524670  0.92088963  0.74650136  1
  Te  Te135  1  0.59260114  0.28748113  0.06521744  1
  Te  Te136  1  0.59560908  0.27158004  0.41501982  1
  Te  Te137  1  0.60700896  0.31185792  0.72353293  1
  Te  Te138  1  0.58158524  0.57055527  0.06238848  1
  Te  Te139  1  0.57991426  0.59193885  0.39563138  1
  Te  Te140  1  0.58447045  0.57798430  0.76199804  1
  Te  Te141  1  0.59526066  0.93368876  0.05544113  1
  Te  Te142  1  0.57975681  0.92226443  0.42464329  1
  Te  Te143  1  0.57387320  0.92053397  0.75988666  1
  Te  Te144  1  0.96239696  0.21979437  0.07789184  1
  Te  Te145  1  0.92719432  0.26007198  0.43380470  1
  Te  Te146  1  0.91319723  0.24697080  0.73996179  1
  Te  Te147  1  0.92356726  0.59164616  0.07510915  1
  Te  Te148  1  0.91229896  0.55223013  0.39654641  1
  Te  Te149  1  0.94155587  0.59850411  0.72564796  1
  Te  Te150  1  0.92165352  0.91279814  0.07880615  1
  Te  Te151  1  0.87201354  0.89391383  0.45864950  1
  Te  Te152  1  0.89333729  0.90786960  0.74809786  1
  Te  Te153  1  0.22530088  0.08008611  0.27091268  1
  Te  Te154  1  0.23789849  0.07835077  0.59217799  1
  Te  Te155  1  0.24858158  0.11210346  0.87936021  1
  Te  Te156  1  0.27120673  0.40375542  0.25656544  1
  Te  Te157  1  0.26807897  0.40930315  0.58316217  1
  Te  Te158  1  0.24576356  0.43351311  0.93809077  1
  Te  Te159  1  0.25148633  0.76056348  0.24595153  1
  Te  Te160  1  0.23602660  0.67107099  0.55458130  1
  Te  Te161  1  0.26517074  0.73505125  0.92954855  1
  Te  Te162  1  0.58688007  0.08784028  0.26458120  1
  Te  Te163  1  0.55702493  0.08387055  0.60261349  1
  Te  Te164  1  0.58844333  0.11602251  0.91668980  1
  Te  Te165  1  0.59044888  0.41792189  0.25499208  1
  Te  Te166  1  0.59723920  0.42469236  0.60183236  1
  Te  Te167  1  0.55926997  0.36535005  0.93074002  1
  Te  Te168  1  0.59362198  0.74115881  0.23337115  1
  Te  Te169  1  0.59425044  0.76627793  0.56360826  1
  Te  Te170  1  0.59072934  0.75854710  0.91037875  1
  Te  Te171  1  0.93107569  0.07686528  0.24671767  1
  Te  Te172  1  0.90043964  0.06157166  0.56450603  1
  Te  Te173  1  0.90729990  0.13031466  0.94257799  1
  Te  Te174  1  0.89842122  0.41610551  0.23716077  1
  Te  Te175  1  0.91050016  0.42341262  0.58358565  1
  Te  Te176  1  0.93550144  0.38342669  0.92128344  1
  Te  Te177  1  0.92160767  0.75421544  0.26544732  1
  Te  Te178  1  0.94060415  0.71281860  0.53754643  1
  Te  Te179  1  0.93983995  0.74372236  0.91626785  1
