# generated using pymatgen
data_In2Te3
_symmetry_space_group_name_H-M   'P 1'
_cell_length_a   18.74581183
_cell_length_b   18.74774747
_cell_length_c   18.74955786
_cell_angle_alpha   90.06582521
_cell_angle_beta   90.00343882
_cell_angle_gamma   90.01229277
_symmetry_Int_Tables_number   1
_chemical_formula_structural   In2Te3
_chemical_formula_sum   'In72 Te108'
_cell_volume   6589.37284384
_cell_formula_units_Z   36
loop_
 _symmetry_equiv_pos_site_id
 _symmetry_equiv_pos_as_xyz
  1  'x, y, z'
loop_
 _atom_site_type_symbol
 _atom_site_label
 _atom_site_symmetry_multiplicity
 _atom_site_fract_x
 _atom_site_fract_y
 _atom_site_fract_z
 _atom_site_occupancy
  In  In0  1  0.52514495  0.33024336  0.14489345  1
  In  In1  1  0.84388093  0.15280596  0.67884432  1
  In  In2  1  0.65653701  0.67941311  0.33230683  1
  In  In3  1  0.14108103  0.51753205  0.33597528  1
  In  In4  1  0.67392931  0.13369767  0.48620087  1
  In  In5  1  0.33111987  0.32471394  0.34866009  1
  In  In6  1  0.35981689  0.32413377  0.01491894  1
  In  In7  1  0.81939901  0.13284409  0.33243393  1
  In  In8  1  0.16170691  0.34368918  0.83556042  1
  In  In9  1  0.32869000  0.48316715  0.50850741  1
  In  In10  1  0.81133936  0.17092801  -0.01633203  1
  In  In11  1  0.64883220  0.54266568  0.13501496  1
  In  In12  1  0.52876762  0.66982254  0.50258108  1
  In  In13  1  0.18436394  0.32925075  0.15760809  1
  In  In14  1  0.50884469  0.67940249  0.82935918  1
  In  In15  1  0.18483348  0.83649073  -0.01526052  1
  In  In16  1  0.80783908  0.36431827  0.13657969  1
  In  In17  1  0.49849228  -0.00838894  0.17030293  1
  In  In18  1  0.33416077  0.68778048  0.69528909  1
  In  In19  1  0.66473614  0.33938564  0.68005473  1
  In  In20  1  0.66803167  0.33773635  0.31515344  1
  In  In21  1  0.16822830  0.15610403  0.66508667  1
  In  In22  1  0.01422344  0.33534573  0.34710536  1
  In  In23  1  -0.01322877  0.13525914  0.15162324  1
  In  In24  1  0.35692234  0.70379867  -0.00207409  1
  In  In25  1  0.83635896  0.32543069  0.48964356  1
  In  In26  1  0.66543236  0.66488088  0.69477406  1
  In  In27  1  0.33798815  0.15211198  0.85548691  1
  In  In28  1  0.66706445  0.83246741  0.83449381  1
  In  In29  1  0.31105538  -0.02593658  0.69377411  1
  In  In30  1  0.16072564  0.53143355  -0.00681583  1
  In  In31  1  0.01506243  0.69849438  0.69188632  1
  In  In32  1  0.00313139  0.16941453  0.80391187  1
  In  In33  1  0.01403346  0.83675231  0.16397887  1
  In  In34  1  0.49119090  0.00676926  0.50652684  1
  In  In35  1  0.65501236  -0.00699709  0.00600341  1
  In  In36  1  -0.01319150  0.69363951  -0.03790074  1
  In  In37  1  0.82392782  0.52990942  -0.03064652  1
  In  In38  1  0.33235470  0.50115676  0.81959958  1
  In  In39  1  0.82703002  0.49943790  0.33864407  1
  In  In40  1  0.33085282  0.84250863  0.50421713  1
  In  In41  1  0.49633694  0.14236197  0.32524324  1
  In  In42  1  0.15608508  0.66980985  0.50152084  1
  In  In43  1  0.49700178  0.83328717  0.31762409  1
  In  In44  1  0.01041163  -0.02333559  -0.00160379  1
  In  In45  1  0.01053162  0.52887797  0.18488153  1
  In  In46  1  0.17136201  -0.01226953  0.49434636  1
  In  In47  1  0.35401102  0.50801095  0.16128606  1
  In  In48  1  0.34735462  -0.01238604  -0.00904476  1
  In  In49  1  -0.00048813  0.13617505  0.53690597  1
  In  In50  1  0.83467973  -0.00180952  0.82411352  1
  In  In51  1  0.81050863  -0.03949273  0.18187543  1
  In  In52  1  0.81531002  0.70498767  0.13222094  1
  In  In53  1  0.17595982  0.17298416  0.35088571  1
  In  In54  1  0.63472883  0.17262194  0.16286786  1
  In  In55  1  0.35588529  0.33893620  0.66422027  1
  In  In56  1  -0.00312102  -0.01002349  0.68427982  1
  In  In57  1  0.17258759  -0.01991520  0.16483553  1
  In  In58  1  0.50046458  -0.01858085  0.83184560  1
  In  In59  1  0.00531598  0.67348160  0.32568119  1
  In  In60  1  0.50180198  0.51802672  0.68642065  1
  In  In61  1  0.67000772  0.83874176  0.52823086  1
  In  In62  1  0.82421541  0.52047367  0.68772953  1
  In  In63  1  0.33281353  0.68848653  0.29456579  1
  In  In64  1  0.66454875  0.18034231  0.82580366  1
  In  In65  1  0.33491933  0.15138074  0.15523695  1
  In  In66  1  0.00331209  0.32478196  0.68835565  1
  In  In67  1  0.01298600  0.49151832  0.50237422  1
  In  In68  1  0.80579360  0.68386073  0.51048670  1
  In  In69  1  -0.01138416  0.34499940  -0.01780634  1
  In  In70  1  0.49480582  0.33345594  0.50640226  1
  In  In71  1  -0.02484620  0.85249875  0.48520907  1
  Te  Te72  1  0.10138720  0.07755004  0.06925184  1
  Te  Te73  1  0.07378118  0.07747362  0.41642126  1
  Te  Te74  1  0.10506114  0.06145481  0.76671228  1
  Te  Te75  1  0.08451601  0.42354458  0.08688590  1
  Te  Te76  1  0.11864259  0.40270494  0.43613766  1
  Te  Te77  1  0.07126836  0.43343419  0.76122747  1
  Te  Te78  1  0.08739329  0.74694479  0.06490341  1
  Te  Te79  1  0.08615755  0.77046314  0.41143713  1
  Te  Te80  1  0.10687267  0.77961665  0.77905094  1
  Te  Te81  1  0.43892696  0.08748937  0.06628447  1
  Te  Te82  1  0.39926405  0.07936995  0.41425424  1
  Te  Te83  1  0.41349666  0.07560182  0.74710468  1
  Te  Te84  1  0.45247302  0.44361339  0.05554968  1
  Te  Te85  1  0.42898606  0.42822577  0.40531364  1
  Te  Te86  1  0.44275299  0.40575012  0.77277070  1
  Te  Te87  1  0.44419270  0.73052567  0.11770971  1
  Te  Te88  1  0.41746457  0.74086600  0.42297451  1
  Te  Te89  1  0.41704096  0.78461583  0.77509820  1
  Te  Te90  1  0.75403136  0.08274251  0.09489572  1
  Te  Te91  1  0.75547616  0.02455522  0.41725530  1
  Te  Te92  1  0.73052229  0.06985067  0.74021788  1
  Te  Te93  1  0.71272269  0.43696945  0.04082984  1
  Te  Te94  1  0.73275470  0.41972330  0.42874278  1
  Te  Te95  1  0.74329845  0.42674677  0.77181056  1
  Te  Te96  1  0.70811355  0.77120525  0.05605862  1
  Te  Te97  1  0.75864280  0.77505018  0.39524367  1
  Te  Te98  1  0.77252968  0.74864392  0.76175084  1
  Te  Te99  1  0.08475267  0.24412607  0.23885054  1
  Te  Te100  1  0.08624861  0.25466627  0.58090768  1
  Te  Te101  1  0.08076911  0.24149160  0.91673597  1
  Te  Te102  1  0.12510682  0.63013999  0.22830859  1
  Te  Te103  1  0.07901264  0.58503211  0.60199611  1
  Te  Te104  1  0.06690237  0.58686082  0.89421062  1
  Te  Te105  1  0.08882314  0.91285938  0.26685034  1
  Te  Te106  1  0.07975862  0.90680668  0.58628190  1
  Te  Te107  1  0.07474446  0.89179270  0.89293130  1
  Te  Te108  1  0.41615214  0.25869009  0.23800495  1
  Te  Te109  1  0.41778102  0.23322710  0.58078155  1
  Te  Te110  1  0.43511763  0.25004203  0.91139295  1
  Te  Te111  1  0.43411389  0.58822927  0.25665032  1
  Te  Te112  1  0.41186017  0.59341264  0.58838323  1
  Te  Te113  1  0.41798605  0.58861267  0.91137987  1
  Te  Te114  1  0.39704847  0.92112191  0.25243831  1
  Te  Te115  1  0.42135848  0.91040310  0.60488280  1
  Te  Te116  1  0.42515320  0.88230789  0.91630566  1
  Te  Te117  1  0.76365246  0.24596760  0.23975120  1
  Te  Te118  1  0.75099739  0.23818767  0.58169669  1
  Te  Te119  1  0.75140028  0.27730111  0.90124818  1
  Te  Te120  1  0.76045814  0.59130829  0.23691466  1
  Te  Te121  1  0.72713930  0.57659561  0.58244282  1
  Te  Te122  1  0.72022704  0.60763111  0.89752745  1
  Te  Te123  1  0.73864256  0.86910080  0.26977901  1
  Te  Te124  1  0.77587380  0.92334999  0.58425391  1
  Te  Te125  1  0.76015384  0.91489440  0.92850847  1
  Te  Te126  1  0.24567928  0.23042863  0.05875287  1
  Te  Te127  1  0.26003816  0.24439995  0.44950952  1
  Te  Te128  1  0.25270718  0.24789688  0.75549475  1
  Te  Te129  1  0.26748573  0.60062345  0.07693625  1
  Te  Te130  1  0.25414767  0.58999974  0.41467640  1
  Te  Te131  1  0.23719239  0.59175158  0.75288342  1
  Te  Te132  1  0.27763505  0.89529362  0.09310791  1
  Te  Te133  1  0.25510948  0.91172779  0.39804181  1
  Te  Te134  1  0.23046264  0.87647173  0.77029637  1
  Te  Te135  1  0.60090252  0.25249751  0.03906033  1
  Te  Te136  1  0.58795959  0.24396285  0.40612795  1
  Te  Te137  1  0.56443958  0.24798297  0.73894180  1
  Te  Te138  1  0.54921646  0.62686977  0.06324013  1
  Te  Te139  1  0.59505964  0.57270533  0.41429615  1
  Te  Te140  1  0.60865561  0.55725706  0.79807060  1
  Te  Te141  1  0.58571782  0.89510756  0.09388543  1
  Te  Te142  1  0.57662180  0.90660081  0.42662197  1
  Te  Te143  1  0.60029805  0.92270211  0.73833401  1
  Te  Te144  1  0.91463091  0.25327746  0.08290701  1
  Te  Te145  1  0.92218720  0.22570039  0.41231172  1
  Te  Te146  1  0.88886701  0.26588825  0.77104008  1
  Te  Te147  1  0.91821189  0.59280976  0.08041677  1
  Te  Te148  1  0.91950224  0.58979162  0.42740249  1
  Te  Te149  1  0.91890110  0.60760043  0.76305427  1
  Te  Te150  1  0.90468919  0.89905832  0.07359506  1
  Te  Te151  1  0.88381332  0.93327672  0.40132156  1
  Te  Te152  1  0.92007669  0.88941350  0.76598188  1
  Te  Te153  1  0.25231966  0.07759898  0.25782288  1
  Te  Te154  1  0.26360238  0.07162751  0.58298407  1
  Te  Te155  1  0.24162243  0.05688443  0.91397747  1
  Te  Te156  1  0.24749686  0.42928002  0.25484502  1
  Te  Te157  1  0.24616538  0.42570069  0.61559992  1
  Te  Te158  1  0.25566970  0.41767095  0.93503936  1
  Te  Te159  1  0.21939310  0.75456707  0.23235516  1
  Te  Te160  1  0.24020415  0.75795514  0.59386506  1
  Te  Te161  1  0.25083867  0.73602728  0.89455778  1
  Te  Te162  1  0.60674371  0.05955896  0.26107490  1
  Te  Te163  1  0.58258329  0.08826411  0.59154050  1
  Te  Te164  1  0.57886080  0.08477125  0.91409179  1
  Te  Te165  1  0.58780501  0.43724917  0.23523886  1
  Te  Te166  1  0.58096481  0.43013735  0.58805248  1
  Te  Te167  1  0.56715005  0.38887548  0.96663374  1
  Te  Te168  1  0.57399883  0.74369502  0.22360104  1
  Te  Te169  1  0.57238385  0.75978402  0.61695242  1
  Te  Te170  1  0.60596398  0.73769426  0.94051452  1
  Te  Te171  1  0.92342367  0.04715393  0.25550411  1
  Te  Te172  1  0.88436743  0.03899605  0.57999216  1
  Te  Te173  1  0.92392237  0.08714110  0.91881943  1
  Te  Te174  1  0.92051394  0.41283534  0.25087107  1
  Te  Te175  1  0.90842142  0.41777490  0.58879160  1
  Te  Te176  1  0.91632472  0.43875325  0.89497225  1
  Te  Te177  1  0.90890020  0.75837588  0.24603572  1
  Te  Te178  1  0.91288032  0.75681192  0.58821872  1
  Te  Te179  1  0.88531209  0.75892751  0.87479957  1
