# generated using pymatgen
data_In2Te3
_symmetry_space_group_name_H-M   'P 1'
_cell_length_a   18.98672812
_cell_length_b   19.00651528
_cell_length_c   19.01284440
_cell_angle_alpha   90.00253966
_cell_angle_beta   89.92093328
_cell_angle_gamma   89.84349914
_symmetry_Int_Tables_number   1
_chemical_formula_structural   In2Te3
_chemical_formula_sum   'In72 Te108'
_cell_volume   6861.16226543
_cell_formula_units_Z   36
loop_
 _symmetry_equiv_pos_site_id
 _symmetry_equiv_pos_as_xyz
  1  'x, y, z'
loop_
 _atom_site_type_symbol
 _atom_site_label
 _atom_site_symmetry_multiplicity
 _atom_site_fract_x
 _atom_site_fract_y
 _atom_site_fract_z
 _atom_site_occupancy
  In  In0  1  0.01053956  0.36344388  0.31592546  1
  In  In1  1  0.31477274  0.48429902  0.84454057  1
  In  In2  1  0.67742947  0.67262905  0.66271041  1
  In  In3  1  0.16016634  0.50396549  0.00995040  1
  In  In4  1  0.68198855  0.68225057  0.00386564  1
  In  In5  1  0.20937936  0.19556259  0.68391788  1
  In  In6  1  0.53528051  0.18755949  0.37003533  1
  In  In7  1  0.47419560  0.49681247  -0.00665318  1
  In  In8  1  0.84303043  0.49527714  0.00193262  1
  In  In9  1  0.00203910  0.66191380  0.65614283  1
  In  In10  1  0.66062985  0.49021869  0.82161458  1
  In  In11  1  0.86067778  0.67495334  0.47310853  1
  In  In12  1  0.65050234  0.35382866  0.00917214  1
  In  In13  1  0.64824408  0.00361545  0.02404563  1
  In  In14  1  0.18368139  0.65566992  0.81872142  1
  In  In15  1  0.82866728  0.17123244  0.33540795  1
  In  In16  1  0.51034398  0.84494537  0.01070920  1
  In  In17  1  0.00025334  0.83625350  0.48352616  1
  In  In18  1  0.17084705  0.64478279  0.51976699  1
  In  In19  1  0.16113081  0.17253557  -0.01329957  1
  In  In20  1  0.19006010  -0.01790093  0.50807994  1
  In  In21  1  -0.01980039  0.00896490  0.34229573  1
  In  In22  1  0.17430160  0.31865504  0.48562289  1
  In  In23  1  0.01840664  0.02494375  0.66338364  1
  In  In24  1  0.86364087  0.49071678  0.65761332  1
  In  In25  1  0.66803418  0.00639093  0.34179882  1
  In  In26  1  0.81794943  0.85798229  0.68554579  1
  In  In27  1  0.82407130  0.49892367  0.33919069  1
  In  In28  1  -0.02285707  -0.00148092  -0.01025208  1
  In  In29  1  -0.00673101  0.17060814  0.48643870  1
  In  In30  1  0.36200097  0.82757070  0.20041462  1
  In  In31  1  -0.00166511  0.81529827  0.84969373  1
  In  In32  1  0.65118156  0.87398852  0.47947473  1
  In  In33  1  0.01299650  0.61910339  0.31282858  1
  In  In34  1  0.65272462  0.83671776  0.82476498  1
  In  In35  1  0.18489973  0.83595086  0.36168778  1
  In  In36  1  -0.00264375  0.31975660  -0.01813592  1
  In  In37  1  0.16708630  0.16582988  0.31226452  1
  In  In38  1  0.69553148  0.17412872  0.17073152  1
  In  In39  1  0.32180406  0.34312501  0.33086796  1
  In  In40  1  0.51259892  0.01475344  0.50037531  1
  In  In41  1  0.34547986  0.82360774  0.82463747  1
  In  In42  1  0.12647668  0.81414908  0.01783897  1
  In  In43  1  0.67511572  0.50394884  0.17550798  1
  In  In44  1  0.47777376  0.17508711  -0.03640546  1
  In  In45  1  0.34000046  0.48747276  0.49589978  1
  In  In46  1  0.47310012  0.19529748  0.65803285  1
  In  In47  1  0.68171841  0.30985497  0.64502642  1
  In  In48  1  0.33556766  0.66044722  0.65807521  1
  In  In49  1  0.48087373  0.33397830  0.13386110  1
  In  In50  1  0.50192926  0.49955870  0.31568372  1
  In  In51  1  -0.01080510  0.65394731  0.03287330  1
  In  In52  1  0.47517151  0.49093505  0.67463234  1
  In  In53  1  0.15196702  0.34679429  0.15204328  1
  In  In54  1  0.32680342  -0.01698243  0.01662577  1
  In  In55  1  0.01147846  0.48746026  0.82161754  1
  In  In56  1  -0.03885071  0.30634763  0.68399827  1
  In  In57  1  0.64298475  0.02181954  0.68766773  1
  In  In58  1  0.35752560  0.00185195  0.67422308  1
  In  In59  1  0.83433678  0.83042024  0.03530348  1
  In  In60  1  0.66303857  0.49030371  0.51526536  1
  In  In61  1  0.51256881  0.66825527  0.17860034  1
  In  In62  1  0.15182199  -0.00465920  0.17645126  1
  In  In63  1  0.81957572  0.17537062  -0.01620529  1
  In  In64  1  0.33292525  0.15599551  0.16355640  1
  In  In65  1  0.18983336  0.00386655  0.81088962  1
  In  In66  1  0.82569002  0.01228817  0.85491475  1
  In  In67  1  0.67120483  0.17338913  0.84147347  1
  In  In68  1  0.35364912  0.66559240  0.33293386  1
  In  In69  1  0.83478389  0.83485422  0.32458319  1
  In  In70  1  0.52229404  0.69153138  0.46204786  1
  In  In71  1  0.31205914  0.64637954  0.00864538  1
  Te  Te72  1  0.07974895  0.07847774  0.07348666  1
  Te  Te73  1  0.09900153  0.07255340  0.41888815  1
  Te  Te74  1  0.09930812  0.11104804  0.75651522  1
  Te  Te75  1  0.04907544  0.42755947  0.07646723  1
  Te  Te76  1  0.11279074  0.42354497  0.40344867  1
  Te  Te77  1  0.07120302  0.39331515  0.72782185  1
  Te  Te78  1  0.04423099  0.75628832  0.12564435  1
  Te  Te79  1  0.08446056  0.72992470  0.41840820  1
  Te  Te80  1  0.08841446  0.74969716  0.74661981  1
  Te  Te81  1  0.42798309  0.08031999  0.07375975  1
  Te  Te82  1  0.42967948  0.09918765  0.41544413  1
  Te  Te83  1  0.41575226  0.10548266  0.76340376  1
  Te  Te84  1  0.37870173  0.41715941  0.07002396  1
  Te  Te85  1  0.43551891  0.40338096  0.41229808  1
  Te  Te86  1  0.40413892  0.39688425  0.76428878  1
  Te  Te87  1  0.40943225  0.74609013  0.07868159  1
  Te  Te88  1  0.40006461  0.76562300  0.42951618  1
  Te  Te89  1  0.42741003  0.73667951  0.74214053  1
  Te  Te90  1  0.76751753  0.07186827  0.08384532  1
  Te  Te91  1  0.74256012  0.09721197  0.43381837  1
  Te  Te92  1  0.76876816  0.10324090  0.74159357  1
  Te  Te93  1  0.76061337  0.40651152  0.09563395  1
  Te  Te94  1  0.73134987  0.40663649  0.41327973  1
  Te  Te95  1  0.75300699  0.41354578  0.73023373  1
  Te  Te96  1  0.73683605  0.75667696  0.11519899  1
  Te  Te97  1  0.74904117  0.76393244  0.42859150  1
  Te  Te98  1  0.75976601  0.74502076  0.76721439  1
  Te  Te99  1  0.07139783  0.24583551  0.23168898  1
  Te  Te100  1  0.09693778  0.23028710  0.58019780  1
  Te  Te101  1  0.10800223  0.27444080  0.89273541  1
  Te  Te102  1  0.11793295  0.55817954  0.23060149  1
  Te  Te103  1  0.08271801  0.55652897  0.59663643  1
  Te  Te104  1  0.07989180  0.59949156  0.91547591  1
  Te  Te105  1  0.08081208  0.91217735  0.27952282  1
  Te  Te106  1  0.08289624  0.90952524  0.58688777  1
  Te  Te107  1  0.09327451  0.92340114  0.91017608  1
  Te  Te108  1  0.41520595  0.25280108  0.24538026  1
  Te  Te109  1  0.36538469  0.27409811  0.59809205  1
  Te  Te110  1  0.39296544  0.28080561  0.90967613  1
  Te  Te111  1  0.40548327  0.57071399  0.22386967  1
  Te  Te112  1  0.43763064  0.58550477  0.55893259  1
  Te  Te113  1  0.40384221  0.59445565  0.90032425  1
  Te  Te114  1  0.45740052  0.92933950  0.23767548  1
  Te  Te115  1  0.44582063  0.92003863  0.58849348  1
  Te  Te116  1  0.42032215  0.92054905  0.91440592  1
  Te  Te117  1  0.75683117  0.27369836  0.25614709  1
  Te  Te118  1  0.74744006  0.22641485  0.54055586  1
  Te  Te119  1  0.74443571  0.28445717  0.91101717  1
  Te  Te120  1  0.73888291  0.59604243  0.26780077  1
  Te  Te121  1  0.77066212  0.59041700  0.57376784  1
  Te  Te122  1  0.74387537  0.57329698  0.91682366  1
  Te  Te123  1  0.75661388  0.93356360  0.25067932  1
  Te  Te124  1  0.73145156  0.93893068  0.59436300  1
  Te  Te125  1  0.73694348  0.91238497  0.92862920  1
  Te  Te126  1  0.24905065  0.25092837  0.08238480  1
  Te  Te127  1  0.26616641  0.22540869  0.40877869  1
  Te  Te128  1  0.31254044  0.23048144  0.78788023  1
  Te  Te129  1  0.20861106  0.60594802  0.10851396  1
  Te  Te130  1  0.25680957  0.57951132  0.41141771  1
  Te  Te131  1  0.24712625  0.55709594  0.72661812  1
  Te  Te132  1  0.23525988  0.89330718  0.09721331  1
  Te  Te133  1  0.29008824  0.91918641  0.42021837  1
  Te  Te134  1  0.25630091  0.89886226  0.72745533  1
  Te  Te135  1  0.58347119  0.23114905  0.06742017  1
  Te  Te136  1  0.64960217  0.26297785  0.42800280  1
  Te  Te137  1  0.58520376  0.25398535  0.74912321  1
  Te  Te138  1  0.57859695  0.57578843  0.07271220  1
  Te  Te139  1  0.59887150  0.57458402  0.40413141  1
  Te  Te140  1  0.57936867  0.58637112  0.73868880  1
  Te  Te141  1  0.57718361  0.91677652  0.12135673  1
  Te  Te142  1  0.55540416  0.88974162  0.35840646  1
  Te  Te143  1  0.55976691  0.91606822  0.74454796  1
  Te  Te144  1  0.91376310  0.24196577  0.07262259  1
  Te  Te145  1  0.92393914  0.27412066  0.40368856  1
  Te  Te146  1  0.88449495  0.20770201  0.75617201  1
  Te  Te147  1  0.88905563  0.58147346  0.11180637  1
  Te  Te148  1  0.93874538  0.55634417  0.42958792  1
  Te  Te149  1  0.91730115  0.58983995  0.75916632  1
  Te  Te150  1  0.93867769  0.91025328  0.09975201  1
  Te  Te151  1  0.89230039  0.92706521  0.43351038  1
  Te  Te152  1  0.92553214  0.92808022  0.76728460  1
  Te  Te153  1  0.26387521  0.05880748  0.25527821  1
  Te  Te154  1  0.26165292  0.08612363  0.59235210  1
  Te  Te155  1  0.26165641  0.07959135  0.91926971  1
  Te  Te156  1  0.22171640  0.42784397  0.25683839  1
  Te  Te157  1  0.26464504  0.39182371  0.58290746  1
  Te  Te158  1  0.20838216  0.40492083  0.91087642  1
  Te  Te159  1  0.24767838  0.74755760  0.25509879  1
  Te  Te160  1  0.24513958  0.75023583  0.58640639  1
  Te  Te161  1  0.23989090  0.75749144  0.92362482  1
  Te  Te162  1  0.58942955  0.10597987  0.25508604  1
  Te  Te163  1  0.58201708  0.11581613  0.58650791  1
  Te  Te164  1  0.58102979  0.07260058  0.90803483  1
  Te  Te165  1  0.57824986  0.39971216  0.23082108  1
  Te  Te166  1  0.56827958  0.40296547  0.59245740  1
  Te  Te167  1  0.56045408  0.41037956  0.90257779  1
  Te  Te168  1  0.55401607  0.74445858  0.29668873  1
  Te  Te169  1  0.59684493  0.76401199  0.57413333  1
  Te  Te170  1  0.57474641  0.74411814  0.91713483  1
  Te  Te171  1  0.91732647  0.09593074  0.24534999  1
  Te  Te172  1  0.91889945  0.08069606  0.57447882  1
  Te  Te173  1  0.93347694  0.11342154  0.89760253  1
  Te  Te174  1  0.92164193  0.45174627  0.23703554  1
  Te  Te175  1  0.90695112  0.38237710  0.57081416  1
  Te  Te176  1  0.90711749  0.40768117  0.89567107  1
  Te  Te177  1  0.93602397  0.73644685  0.26544724  1
  Te  Te178  1  0.90593820  0.76971867  0.59385021  1
  Te  Te179  1  0.90277603  0.73901283  0.93491372  1
