# generated using pymatgen
data_In2Te3
_symmetry_space_group_name_H-M   'P 1'
_cell_length_a   18.95523905
_cell_length_b   18.97062880
_cell_length_c   18.95292016
_cell_angle_alpha   90.02148753
_cell_angle_beta   89.85049269
_cell_angle_gamma   90.12051827
_symmetry_Int_Tables_number   1
_chemical_formula_structural   In2Te3
_chemical_formula_sum   'In72 Te108'
_cell_volume   6815.29495660
_cell_formula_units_Z   36
loop_
 _symmetry_equiv_pos_site_id
 _symmetry_equiv_pos_as_xyz
  1  'x, y, z'
loop_
 _atom_site_type_symbol
 _atom_site_label
 _atom_site_symmetry_multiplicity
 _atom_site_fract_x
 _atom_site_fract_y
 _atom_site_fract_z
 _atom_site_occupancy
  In  In0  1  0.00055324  0.82138437  0.82924576  1
  In  In1  1  0.49663109  0.84849397  0.34143047  1
  In  In2  1  0.81359174  0.01360568  0.49425491  1
  In  In3  1  0.00063663  0.31969388  -0.01527133  1
  In  In4  1  0.14748624  0.67867097  0.19429978  1
  In  In5  1  0.33219682  0.32680983  0.33973998  1
  In  In6  1  -0.01003386  0.85612448  0.47619107  1
  In  In7  1  0.49540862  0.84624125  -0.03483288  1
  In  In8  1  0.15748764  0.30889503  0.20605809  1
  In  In9  1  0.66157254  0.68154180  0.04119839  1
  In  In10  1  0.35263847  0.31076958  0.02144531  1
  In  In11  1  -0.00988623  0.84404362  0.18330726  1
  In  In12  1  0.32841828  0.17765769  0.18651333  1
  In  In13  1  0.84682432  0.32056700  0.82822258  1
  In  In14  1  0.17728829  0.01775476  0.17865938  1
  In  In15  1  0.66668434  0.33988489  0.33971546  1
  In  In16  1  0.31398082  0.81675642  0.49187058  1
  In  In17  1  0.69490865  0.50568065  0.83128413  1
  In  In18  1  0.16578441  0.66496215  0.81761337  1
  In  In19  1  0.81797952  0.66847553  0.48041507  1
  In  In20  1  0.46696246  0.64517173  0.21147879  1
  In  In21  1  0.01543256  0.01597897  0.67540693  1
  In  In22  1  0.67024183  -0.01366093  0.01990470  1
  In  In23  1  0.02819405  0.29807271  0.62472032  1
  In  In24  1  0.84160544  0.17707485  0.66338863  1
  In  In25  1  0.48200920  -0.00173618  0.82664665  1
  In  In26  1  0.82401513  0.35138959  0.52292385  1
  In  In27  1  0.82644432  0.82526985  0.64983886  1
  In  In28  1  0.00750260  0.51441838  0.18076272  1
  In  In29  1  0.00886043  0.31879123  0.36066023  1
  In  In30  1  0.14704340  0.51761484  0.66117022  1
  In  In31  1  0.34812423  0.47575549  0.84817157  1
  In  In32  1  0.33711909  0.49877940  0.51197455  1
  In  In33  1  0.69163741  0.64336567  0.28883430  1
  In  In34  1  -0.03374114  0.49939898  0.78728649  1
  In  In35  1  0.33745222  0.83691128  0.82954860  1
  In  In36  1  0.63766923  0.29711983  0.69040771  1
  In  In37  1  0.17725940  0.31675417  0.84341774  1
  In  In38  1  0.33339043  0.64978178  -0.01475616  1
  In  In39  1  0.15095976  0.52214374  0.01758133  1
  In  In40  1  0.49865502  0.01214348  0.17853290  1
  In  In41  1  0.66719804  0.02103224  0.64231247  1
  In  In42  1  0.65667824  0.15617440  0.17492890  1
  In  In43  1  0.17503895  0.01651790  0.83938906  1
  In  In44  1  0.51142540  0.35059221  0.17195648  1
  In  In45  1  0.16020831  0.85325787  0.31158985  1
  In  In46  1  0.82350034  0.00533726  0.84132270  1
  In  In47  1  -0.00786860  0.65901355  0.34274584  1
  In  In48  1  0.50730336  0.81106764  0.64113191  1
  In  In49  1  0.33120807  0.16439972  0.49612195  1
  In  In50  1  0.00187156  -0.00400657  0.02054052  1
  In  In51  1  0.84699619  0.35378696  0.14934738  1
  In  In52  1  0.34711259  0.66639145  0.65098995  1
  In  In53  1  0.51753878  0.31380889  0.49596838  1
  In  In54  1  0.85112441  0.17624813  -0.00068604  1
  In  In55  1  0.30459843  0.35086859  0.67058377  1
  In  In56  1  0.69622511  0.84700738  0.21881998  1
  In  In57  1  0.51126385  0.50728255  0.65677702  1
  In  In58  1  0.51323322  0.48577723  0.00514462  1
  In  In59  1  0.33150938  0.00161475  0.69785070  1
  In  In60  1  0.84280393  0.51700514  0.04269158  1
  In  In61  1  0.14590997  0.02037007  0.48813389  1
  In  In62  1  0.69457085  0.34338687  0.00738010  1
  In  In63  1  0.48981115  0.15325862  -0.01633823  1
  In  In64  1  0.48549589  0.00059685  0.48959700  1
  In  In65  1  0.84087767  0.15322464  0.32329200  1
  In  In66  1  0.67588314  0.68133757  0.65331980  1
  In  In67  1  0.16808194  0.64040560  0.49356987  1
  In  In68  1  0.67125899  0.52862200  0.48710685  1
  In  In69  1  0.33187037  0.83925106  0.15014349  1
  In  In70  1  0.67077231  0.84020647  0.82345080  1
  In  In71  1  0.01496767  0.69001104  0.00038071  1
  Te  Te72  1  0.10064678  0.09007152  0.07505423  1
  Te  Te73  1  0.05368703  0.10880463  0.41402429  1
  Te  Te74  1  0.11492673  0.10540010  0.73607639  1
  Te  Te75  1  0.07469407  0.41215379  0.08931734  1
  Te  Te76  1  0.11810722  0.37988153  0.43831132  1
  Te  Te77  1  0.09030255  0.41917248  0.76457023  1
  Te  Te78  1  0.09968606  0.77705851  0.09003629  1
  Te  Te79  1  0.09485480  0.75693292  0.41228447  1
  Te  Te80  1  0.06177161  0.72570940  0.73621198  1
  Te  Te81  1  0.40306739  0.08570393  0.08784797  1
  Te  Te82  1  0.40246247  0.08141993  0.39691873  1
  Te  Te83  1  0.44272266  0.10284563  0.72435920  1
  Te  Te84  1  0.40495924  0.42997579  0.09688371  1
  Te  Te85  1  0.42592933  0.41217160  0.42445324  1
  Te  Te86  1  0.43052118  0.40926010  0.73969650  1
  Te  Te87  1  0.41896703  0.75155179  0.06015659  1
  Te  Te88  1  0.42111083  0.74901587  0.42043386  1
  Te  Te89  1  0.42899047  0.74179095  0.75427079  1
  Te  Te90  1  0.76046313  0.08758154  0.08575218  1
  Te  Te91  1  0.73682861  0.11700757  0.42235954  1
  Te  Te92  1  0.74430393  0.09647553  0.75018445  1
  Te  Te93  1  0.72353465  0.44569456  0.11783847  1
  Te  Te94  1  0.76308411  0.43415908  0.40995675  1
  Te  Te95  1  0.74538948  0.39276242  0.74262163  1
  Te  Te96  1  0.75514093  0.77461729  0.10585412  1
  Te  Te97  1  0.75882347  0.74941695  0.36954714  1
  Te  Te98  1  0.76743883  0.74125546  0.76246970  1
  Te  Te99  1  0.07949930  0.20980889  0.28360153  1
  Te  Te100  1  0.09565588  0.21409657  0.52111367  1
  Te  Te101  1  0.09509546  0.22574695  0.92538527  1
  Te  Te102  1  0.10393142  0.56458600  0.28452842  1
  Te  Te103  1  0.05562082  0.57626382  0.56343265  1
  Te  Te104  1  0.06928130  0.57716513  0.90347752  1
  Te  Te105  1  0.05994887  0.95268604  0.26286955  1
  Te  Te106  1  0.08089529  0.91558506  0.58229507  1
  Te  Te107  1  0.08034449  0.91875078  0.91027103  1
  Te  Te108  1  0.44064842  0.24892273  0.25876500  1
  Te  Te109  1  0.40140499  0.26853029  0.58180270  1
  Te  Te110  1  0.41769292  0.25417511  0.90356897  1
  Te  Te111  1  0.37169994  0.56126178  0.28237087  1
  Te  Te112  1  0.44472427  0.59926929  0.55710042  1
  Te  Te113  1  0.44242003  0.57888123  0.90705703  1
  Te  Te114  1  0.39950124  0.92629566  0.25422933  1
  Te  Te115  1  0.40037865  0.90646213  0.59319950  1
  Te  Te116  1  0.37841108  0.94711569  0.93368456  1
  Te  Te117  1  0.75405462  0.25927723  0.23269130  1
  Te  Te118  1  0.73159164  0.24401838  0.58417257  1
  Te  Te119  1  0.74624359  0.23897548  0.90992656  1
  Te  Te120  1  0.78270871  0.56706595  0.20168980  1
  Te  Te121  1  0.77001745  0.57172831  0.60101571  1
  Te  Te122  1  0.74566915  0.58749676  0.94901412  1
  Te  Te123  1  0.79586088  0.95385474  0.25941387  1
  Te  Te124  1  0.73112658  0.90526072  0.56508704  1
  Te  Te125  1  0.75922989  0.90131453  0.93043911  1
  Te  Te126  1  0.23517092  0.24448544  0.08719997  1
  Te  Te127  1  0.23014210  0.25795052  0.42967624  1
  Te  Te128  1  0.23942689  0.23636161  0.73586832  1
  Te  Te129  1  0.24644609  0.60210786  0.10048822  1
  Te  Te130  1  0.27630744  0.58604936  0.40444279  1
  Te  Te131  1  0.27128150  0.56735828  0.74641832  1
  Te  Te132  1  0.22360857  0.91245733  0.08434860  1
  Te  Te133  1  0.24240060  0.92576046  0.41607554  1
  Te  Te134  1  0.23025593  0.90076135  0.74728912  1
  Te  Te135  1  0.58324419  0.25157692  0.07456440  1
  Te  Te136  1  0.59146354  0.22899088  0.40146506  1
  Te  Te137  1  0.54462853  0.21402835  0.76387701  1
  Te  Te138  1  0.56267555  0.58580042  0.10831745  1
  Te  Te139  1  0.58893390  0.57615982  0.37369109  1
  Te  Te140  1  0.59800057  0.58995684  0.74887233  1
  Te  Te141  1  0.56317179  0.90613091  0.08853310  1
  Te  Te142  1  0.59278003  0.94162777  0.40481874  1
  Te  Te143  1  0.58076872  0.91801894  0.73003743  1
  Te  Te144  1  0.93910968  0.24271830  0.10292540  1
  Te  Te145  1  0.89271495  0.25142032  0.43163992  1
  Te  Te146  1  0.94909890  0.24396883  0.74650991  1
  Te  Te147  1  0.92997058  0.62344115  0.10980480  1
  Te  Te148  1  0.90628203  0.56773259  0.41911526  1
  Te  Te149  1  0.86036767  0.57930857  0.73353137  1
  Te  Te150  1  0.90936286  0.89281143  0.07005438  1
  Te  Te151  1  0.88997384  0.93066345  0.39562910  1
  Te  Te152  1  0.90262950  0.92390543  0.73794377  1
  Te  Te153  1  0.26170201  0.08613704  0.28027773  1
  Te  Te154  1  0.25333938  0.06979757  0.58596137  1
  Te  Te155  1  0.29998588  0.07280255  0.89038853  1
  Te  Te156  1  0.25490434  0.41038278  0.24505417  1
  Te  Te157  1  0.21639401  0.41618454  0.56261983  1
  Te  Te158  1  0.24281022  0.42261468  0.94230296  1
  Te  Te159  1  0.26229270  0.75524823  0.25751660  1
  Te  Te160  1  0.22951229  0.73933287  0.59291833  1
  Te  Te161  1  0.24336321  0.74958495  0.91562053  1
  Te  Te162  1  0.60595141  0.05499365  0.27080400  1
  Te  Te163  1  0.55499115  0.09379194  0.58243590  1
  Te  Te164  1  0.59043119  0.06226923  0.91505205  1
  Te  Te165  1  0.57722630  0.43779542  0.27229070  1
  Te  Te166  1  0.60192990  0.41705828  0.57439537  1
  Te  Te167  1  0.59950554  0.40791206  0.90844048  1
  Te  Te168  1  0.56954265  0.75523028  0.24348914  1
  Te  Te169  1  0.59887230  0.74618159  0.54768458  1
  Te  Te170  1  0.59486437  0.74507520  0.91468398  1
  Te  Te171  1  0.89948077  0.05940123  0.22757473  1
  Te  Te172  1  0.92164905  0.08299864  0.57707631  1
  Te  Te173  1  0.93078171  0.08449219  0.90937592  1
  Te  Te174  1  0.93188378  0.41006854  0.26010894  1
  Te  Te175  1  0.93531133  0.40781986  0.60175918  1
  Te  Te176  1  0.90155031  0.42509481  0.92525160  1
  Te  Te177  1  0.90914383  0.76326671  0.28013269  1
  Te  Te178  1  0.92063108  0.74893165  0.56083125  1
  Te  Te179  1  0.91020277  0.74242710  0.91429629  1
