# generated using pymatgen
data_In2Te3
_symmetry_space_group_name_H-M   'P 1'
_cell_length_a   18.87279332
_cell_length_b   18.87840260
_cell_length_c   18.87902046
_cell_angle_alpha   90.08024050
_cell_angle_beta   90.03337250
_cell_angle_gamma   90.08137239
_symmetry_Int_Tables_number   1
_chemical_formula_structural   In2Te3
_chemical_formula_sum   'In72 Te108'
_cell_volume   6726.35751101
_cell_formula_units_Z   36
loop_
 _symmetry_equiv_pos_site_id
 _symmetry_equiv_pos_as_xyz
  1  'x, y, z'
loop_
 _atom_site_type_symbol
 _atom_site_label
 _atom_site_symmetry_multiplicity
 _atom_site_fract_x
 _atom_site_fract_y
 _atom_site_fract_z
 _atom_site_occupancy
  In  In0  1  0.81473168  0.67854454  0.50420878  1
  In  In1  1  -0.00691427  0.33143172  0.34709266  1
  In  In2  1  0.00192684  0.48551040  0.16875247  1
  In  In3  1  0.67097597  0.83500770  0.18982055  1
  In  In4  1  0.83355902  0.01363329  0.52791758  1
  In  In5  1  0.02359120  0.31688098  -0.00685925  1
  In  In6  1  -0.00684009  -0.01628053  0.01520092  1
  In  In7  1  0.35400625  0.15641038  0.50299251  1
  In  In8  1  0.17100539  0.67121100  0.16776029  1
  In  In9  1  0.34881521  0.33564214  0.31604171  1
  In  In10  1  0.47981012  0.50891230  0.01002742  1
  In  In11  1  -0.03419320  0.83172642  0.84191045  1
  In  In12  1  -0.01127188  0.83551403  0.49757631  1
  In  In13  1  0.34132459  0.66090655  0.65379995  1
  In  In14  1  0.18296791  0.84370404  0.66012926  1
  In  In15  1  0.49637070  0.33953945  0.84593905  1
  In  In16  1  -0.00792586  0.67112765  0.33704287  1
  In  In17  1  0.16570355  0.83124583  0.31669277  1
  In  In18  1  0.65379724  0.68498589  0.00834373  1
  In  In19  1  0.65595477  0.83975369  0.81471384  1
  In  In20  1  0.32761434  0.64401582  -0.00532192  1
  In  In21  1  0.53125631  0.31284654  0.46449639  1
  In  In22  1  0.33269717  -0.02105844  -0.00056386  1
  In  In23  1  0.80219992  0.01821586  0.80777285  1
  In  In24  1  0.80967278  0.34956139  0.47247980  1
  In  In25  1  0.33246587  0.53222780  0.47599245  1
  In  In26  1  0.85328220  0.51327840  0.66236218  1
  In  In27  1  0.36763539  0.14830797  0.80346502  1
  In  In28  1  0.34706686  0.83033959  0.19651287  1
  In  In29  1  0.14302903  0.81754090  0.01400192  1
  In  In30  1  0.16141470  0.33968395  0.51747129  1
  In  In31  1  0.33545731  0.84973435  0.82339428  1
  In  In32  1  0.35378642  0.81891934  0.46956863  1
  In  In33  1  0.66176398  0.68414228  0.65814502  1
  In  In34  1  0.15359108  0.65451240  0.84233620  1
  In  In35  1  0.03582828  0.49937768  0.84341504  1
  In  In36  1  -0.00833030  0.17316552  0.82041946  1
  In  In37  1  0.83125759  0.81336076  0.01913550  1
  In  In38  1  0.17296277  0.01647789  0.49618676  1
  In  In39  1  0.82691834  0.16198231  0.34224442  1
  In  In40  1  0.80250985  0.85477253  0.66272761  1
  In  In41  1  0.80481521  0.15698174  -0.00728488  1
  In  In42  1  0.82283829  0.84306185  0.34805128  1
  In  In43  1  -0.00889353  0.15327913  0.16098217  1
  In  In44  1  0.83917790  0.33994334  0.18433829  1
  In  In45  1  0.52915640  0.52508553  0.34114229  1
  In  In46  1  0.15047348  0.00801195  0.18353944  1
  In  In47  1  0.00265013  0.49771607  0.49236943  1
  In  In48  1  0.66283291  0.15331094  0.17404556  1
  In  In49  1  0.68111562  0.33680419  0.65570852  1
  In  In50  1  0.01398662  0.64961691  0.67043413  1
  In  In51  1  0.30351646  0.34920163  -0.02676462  1
  In  In52  1  0.50556543  -0.01643024  0.17237665  1
  In  In53  1  0.88135534  0.32232032  0.81250219  1
  In  In54  1  0.34253787  0.31668942  0.67113641  1
  In  In55  1  0.49157163  0.48266273  0.64833294  1
  In  In56  1  0.50471720  0.00311910  0.49589308  1
  In  In57  1  0.14757357  0.48804964  0.67149740  1
  In  In58  1  0.69093643  0.32412015  0.02877588  1
  In  In59  1  0.66829975  0.15972744  0.80999862  1
  In  In60  1  0.65724213  0.50774059  0.83460137  1
  In  In61  1  0.51481252  0.34116820  0.16384219  1
  In  In62  1  0.49331042  0.86036603  0.65064070  1
  In  In63  1  0.83752911  0.51668522  0.01420006  1
  In  In64  1  0.34549534  0.17782308  0.16745063  1
  In  In65  1  0.18650005  0.35568596  0.17638883  1
  In  In66  1  0.67244960  0.01597273  -0.00261350  1
  In  In67  1  0.49758577  0.65026310  0.18354655  1
  In  In68  1  0.16849456  0.16733329  0.33119410  1
  In  In69  1  0.16085747  0.02714285  0.82325396  1
  In  In70  1  0.48664349  0.83054117  -0.02235475  1
  In  In71  1  0.00737900  0.30893245  0.68672998  1
  Te  Te72  1  0.09257996  0.08771386  0.06746342  1
  Te  Te73  1  0.07610777  0.08397560  0.40709190  1
  Te  Te74  1  0.05738344  0.07561018  0.72749458  1
  Te  Te75  1  0.09993645  0.42349995  0.06923330  1
  Te  Te76  1  0.10205865  0.42336545  0.40444180  1
  Te  Te77  1  0.11716232  0.38200168  0.78062611  1
  Te  Te78  1  0.06284541  0.76205432  0.12301536  1
  Te  Te79  1  0.08942320  0.75100333  0.42334183  1
  Te  Te80  1  0.08576446  0.76382350  0.74961651  1
  Te  Te81  1  0.42011430  0.07297250  0.08353212  1
  Te  Te82  1  0.43229451  0.09003987  0.39928692  1
  Te  Te83  1  0.46349704  0.07616269  0.71089987  1
  Te  Te84  1  0.40184818  0.40279365  0.08313674  1
  Te  Te85  1  0.41910212  0.41437259  0.42746106  1
  Te  Te86  1  0.40460250  0.42457151  0.75992537  1
  Te  Te87  1  0.41570693  0.74700174  0.08242022  1
  Te  Te88  1  0.45840941  0.74460638  0.39256286  1
  Te  Te89  1  0.42226765  0.75657729  0.74045408  1
  Te  Te90  1  0.76769814  0.06420898  0.10642637  1
  Te  Te91  1  0.73709346  0.07994624  0.43165552  1
  Te  Te92  1  0.71058943  0.06615115  0.69960112  1
  Te  Te93  1  0.74647501  0.43705381  0.11185210  1
  Te  Te94  1  0.71889194  0.42424240  0.38249606  1
  Te  Te95  1  0.76083139  0.42523039  0.75547808  1
  Te  Te96  1  0.75083383  0.72680007  0.11831848  1
  Te  Te97  1  0.72473804  0.74104257  0.40459116  1
  Te  Te98  1  0.76151370  0.74411627  0.75821565  1
  Te  Te99  1  0.07260380  0.26224225  0.23503951  1
  Te  Te100  1  0.08335528  0.23578573  0.58387591  1
  Te  Te101  1  0.09857704  0.22344079  0.90941235  1
  Te  Te102  1  0.08463104  0.57986130  0.25745872  1
  Te  Te103  1  0.10240906  0.58825048  0.56428766  1
  Te  Te104  1  0.06311255  0.60377014  0.94537971  1
  Te  Te105  1  0.06250328  0.90935884  0.24634173  1
  Te  Te106  1  0.08129040  0.92338739  0.58101205  1
  Te  Te107  1  0.08863386  0.91476614  0.90711965  1
  Te  Te108  1  0.45070582  0.23731362  0.26042446  1
  Te  Te109  1  0.44397541  0.25331103  0.57824577  1
  Te  Te110  1  0.40482322  0.24682073  0.92094791  1
  Te  Te111  1  0.41249741  0.54882589  0.24791709  1
  Te  Te112  1  0.44299002  0.59830185  0.55989881  1
  Te  Te113  1  0.42000474  0.58272054  0.89923528  1
  Te  Te114  1  0.42224026  0.92543940  0.28226367  1
  Te  Te115  1  0.38688492  0.92911496  0.56942808  1
  Te  Te116  1  0.43544263  0.94302743  0.89145527  1
  Te  Te117  1  0.73840978  0.25449015  0.25961682  1
  Te  Te118  1  0.73675457  0.24079288  0.55374792  1
  Te  Te119  1  0.75665516  0.26523931  0.89651373  1
  Te  Te120  1  0.67623267  0.56547176  0.30449725  1
  Te  Te121  1  0.73963006  0.56936770  0.58232883  1
  Te  Te122  1  0.74480769  0.59724249  0.92124763  1
  Te  Te123  1  0.72318984  0.93647005  0.28495413  1
  Te  Te124  1  0.73138100  0.90248314  0.54463654  1
  Te  Te125  1  0.75495076  0.90934086  0.91516594  1
  Te  Te126  1  0.24440226  0.25100917  0.08291272  1
  Te  Te127  1  0.25510765  0.25984481  0.41574467  1
  Te  Te128  1  0.25493443  0.21468048  0.73232498  1
  Te  Te129  1  0.24296229  0.57078236  0.08703418  1
  Te  Te130  1  0.25325328  0.62263948  0.39699056  1
  Te  Te131  1  0.24536775  0.58393506  0.74443505  1
  Te  Te132  1  0.24675875  0.90350925  0.10033762  1
  Te  Te133  1  0.25008426  0.91719474  0.40847929  1
  Te  Te134  1  0.26121876  0.94924656  0.73671729  1
  Te  Te135  1  0.57901817  0.23270189  0.07509017  1
  Te  Te136  1  0.63032847  0.20509006  0.44371776  1
  Te  Te137  1  0.57843230  0.26398409  0.74254053  1
  Te  Te138  1  0.59092921  0.57268314  0.09166822  1
  Te  Te139  1  0.61291120  0.62164027  0.42707607  1
  Te  Te140  1  0.57408958  0.58260354  0.73297700  1
  Te  Te141  1  0.59052159  0.89865260  0.06729900  1
  Te  Te142  1  0.53008851  0.87707008  0.41055179  1
  Te  Te143  1  0.57691090  0.94501869  0.74392969  1
  Te  Te144  1  0.90215501  0.25298203  0.07361710  1
  Te  Te145  1  0.91609748  0.24295449  0.44178034  1
  Te  Te146  1  0.87976718  0.21084368  0.70548255  1
  Te  Te147  1  0.90897763  0.58890881  0.11988697  1
  Te  Te148  1  0.89843679  0.58042690  0.42140682  1
  Te  Te149  1  0.92343542  0.58528476  0.77422892  1
  Te  Te150  1  0.90123635  0.91257700  0.10311236  1
  Te  Te151  1  0.91666505  0.94048789  0.41925418  1
  Te  Te152  1  0.90928906  0.92925431  0.74140444  1
  Te  Te153  1  0.26517317  0.07960863  0.25371654  1
  Te  Te154  1  0.24476341  0.10843754  0.59025254  1
  Te  Te155  1  0.26845216  0.08582986  0.91350326  1
  Te  Te156  1  0.27006504  0.44753006  0.25792644  1
  Te  Te157  1  0.26580412  0.42779749  0.58701662  1
  Te  Te158  1  0.22099414  0.43239441  0.88771049  1
  Te  Te159  1  0.27729354  0.72026521  0.27748447  1
  Te  Te160  1  0.25400467  0.74829938  0.56676312  1
  Te  Te161  1  0.25267322  0.76027331  0.91477162  1
  Te  Te162  1  0.60261293  0.05184451  0.26445380  1
  Te  Te163  1  0.57135705  0.08490309  0.60319669  1
  Te  Te164  1  0.58505148  0.09985535  0.91573576  1
  Te  Te165  1  0.59861292  0.40067232  0.27522988  1
  Te  Te166  1  0.59532146  0.41709139  0.55886851  1
  Te  Te167  1  0.59518211  0.41307191  0.93923992  1
  Te  Te168  1  0.55942928  0.76278637  0.26197661  1
  Te  Te169  1  0.59886355  0.78770328  0.57325188  1
  Te  Te170  1  0.57070716  0.73838986  0.89163059  1
  Te  Te171  1  0.91608644  0.07747347  0.26023975  1
  Te  Te172  1  0.92405670  0.08950876  0.61721907  1
  Te  Te173  1  0.90781219  0.07524665  0.91536925  1
  Te  Te174  1  0.90561765  0.43631325  0.28044426  1
  Te  Te175  1  0.92697550  0.40342679  0.58738001  1
  Te  Te176  1  0.92021640  0.41840574  0.92717193  1
  Te  Te177  1  0.89390590  0.74835925  0.26035821  1
  Te  Te178  1  0.91682717  0.74590041  0.60159980  1
  Te  Te179  1  0.92963191  0.73195861  0.94176366  1
