# generated using pymatgen
data_In2Te3
_symmetry_space_group_name_H-M   'P 1'
_cell_length_a   18.94299381
_cell_length_b   18.94417238
_cell_length_c   18.98025907
_cell_angle_alpha   89.87681991
_cell_angle_beta   89.98231468
_cell_angle_gamma   89.97340682
_symmetry_Int_Tables_number   1
_chemical_formula_structural   In2Te3
_chemical_formula_sum   'In72 Te108'
_cell_volume   6811.22644889
_cell_formula_units_Z   36
loop_
 _symmetry_equiv_pos_site_id
 _symmetry_equiv_pos_as_xyz
  1  'x, y, z'
loop_
 _atom_site_type_symbol
 _atom_site_label
 _atom_site_symmetry_multiplicity
 _atom_site_fract_x
 _atom_site_fract_y
 _atom_site_fract_z
 _atom_site_occupancy
  In  In0  1  0.30923600  0.81694995  0.49220473  1
  In  In1  1  0.00582174  0.82550999  0.49465600  1
  In  In2  1  0.33667911  0.32536656  0.33095543  1
  In  In3  1  0.68205668  0.51154544  0.17831415  1
  In  In4  1  0.64708904  0.31220748  0.68089470  1
  In  In5  1  0.20303898  0.17887754  -0.01575635  1
  In  In6  1  0.68098777  0.19745755  0.17438603  1
  In  In7  1  0.65420002  0.84325555  0.81904801  1
  In  In8  1  0.48756343  0.01391981  0.16687342  1
  In  In9  1  0.15364189  0.83859899  0.30939347  1
  In  In10  1  0.34988492  0.51501377  0.14205162  1
  In  In11  1  0.48317099  0.83873585  0.69311545  1
  In  In12  1  0.33507970  0.65798510  0.67966206  1
  In  In13  1  0.18881621  0.22393716  0.67635152  1
  In  In14  1  0.05476006  0.85175702  0.89224894  1
  In  In15  1  0.82014395  -0.01715099  0.49473416  1
  In  In16  1  0.15789426  0.50563859  0.31567996  1
  In  In17  1  0.81985644  0.48104788  0.00672592  1
  In  In18  1  0.29756371  0.84110308  0.84751674  1
  In  In19  1  0.81235812  0.00110967  0.83042899  1
  In  In20  1  0.86847174  0.01159589  0.16132065  1
  In  In21  1  0.01594457  0.32639815  0.66047649  1
  In  In22  1  0.82673500  0.15616532  0.64685854  1
  In  In23  1  0.01075182  0.17913516  0.17791814  1
  In  In24  1  0.44557266  0.18240454  0.69444339  1
  In  In25  1  0.82174764  0.30251546  0.41088090  1
  In  In26  1  0.68030045  0.64161525  0.67184728  1
  In  In27  1  0.17899416  0.14923594  0.31540994  1
  In  In28  1  0.02011178  0.13289112  0.83118171  1
  In  In29  1  0.50072678  0.34126087  0.14649020  1
  In  In30  1  0.19136364  0.45989395  0.70219330  1
  In  In31  1  0.51122411  0.50759551  0.34733031  1
  In  In32  1  0.59265681  0.49269920  0.85725867  1
  In  In33  1  0.32547088  0.85676429  0.15633551  1
  In  In34  1  0.85771567  0.18425932  -0.01885140  1
  In  In35  1  0.46325911  0.48609545  0.70196001  1
  In  In36  1  0.32241501  0.68093349  0.32993377  1
  In  In37  1  0.85145153  0.49760045  0.68010339  1
  In  In38  1  0.01284263  0.67758044  0.00770572  1
  In  In39  1  0.85579140  0.65426219  0.85270754  1
  In  In40  1  0.64653134  0.84130041  0.50019407  1
  In  In41  1  0.45656723  0.17265688  -0.00019951  1
  In  In42  1  0.47330608  0.65736805  0.53759812  1
  In  In43  1  0.16098035  0.63796286  0.50360837  1
  In  In44  1  0.50916613  0.32152433  0.51111461  1
  In  In45  1  0.66853751  0.66526734  -0.00915534  1
  In  In46  1  0.82752428  0.82693511  0.63396579  1
  In  In47  1  0.50473574  0.01485145  0.50636345  1
  In  In48  1  0.52266404  0.68862951  0.15703444  1
  In  In49  1  0.36102485  0.18767496  0.49580100  1
  In  In50  1  0.68403475  0.46847055  0.49859701  1
  In  In51  1  0.68342763  0.65680994  0.34005255  1
  In  In52  1  0.32814347  -0.01496756  0.68123789  1
  In  In53  1  0.14694403  0.67368301  0.84776989  1
  In  In54  1  0.67124988  0.83364867  0.16122152  1
  In  In55  1  0.02053496  0.32865835  0.01148114  1
  In  In56  1  0.65917454  0.01933841  -0.00047955  1
  In  In57  1  0.83950610  0.33622734  0.81838421  1
  In  In58  1  0.16274716  0.01857887  0.15906728  1
  In  In59  1  0.46702342  0.83983235  -0.01805202  1
  In  In60  1  0.87212728  0.81671991  0.28991633  1
  In  In61  1  0.34043346  0.62726561  -0.03401653  1
  In  In62  1  0.85173514  0.84140064  0.04025132  1
  In  In63  1  0.65914953  0.15184346  0.49898730  1
  In  In64  1  0.86678917  0.66912871  0.47038055  1
  In  In65  1  0.18638440  0.00711187  0.48087405  1
  In  In66  1  0.01321754  -0.00212337  0.66823880  1
  In  In67  1  0.50995984  0.16575449  0.31513413  1
  In  In68  1  0.64080891  0.18427736  0.84676230  1
  In  In69  1  0.02467510  0.49442901  0.13734461  1
  In  In70  1  0.00685358  0.35132548  0.31707671  1
  In  In71  1  0.00163853  0.49156971  0.50932086  1
  Te  Te72  1  0.08485001  0.11082225  0.06679904  1
  Te  Te73  1  0.08278853  0.06652452  0.39323600  1
  Te  Te74  1  0.11878221  0.09050178  0.72618694  1
  Te  Te75  1  0.13132133  0.39814542  0.08471219  1
  Te  Te76  1  0.09961533  0.41399628  0.42132662  1
  Te  Te77  1  0.06917922  0.40936555  0.76727330  1
  Te  Te78  1  0.05618913  0.78208921  0.10223248  1
  Te  Te79  1  0.09428783  0.73680640  0.41038401  1
  Te  Te80  1  0.07706586  0.77783522  0.76832826  1
  Te  Te81  1  0.37954927  0.08431394  0.09270012  1
  Te  Te82  1  0.41673936  0.08288346  0.40158451  1
  Te  Te83  1  0.37090694  0.08695034  0.78120922  1
  Te  Te84  1  0.39638761  0.40114134  0.05702126  1
  Te  Te85  1  0.42186343  0.41197268  0.42333476  1
  Te  Te86  1  0.36521589  0.42745650  0.79659268  1
  Te  Te87  1  0.40531802  0.73472167  0.07290969  1
  Te  Te88  1  0.42532653  0.74584097  0.42330246  1
  Te  Te89  1  0.40408476  0.74664599  0.78035419  1
  Te  Te90  1  0.76526128  0.09597393  0.07381441  1
  Te  Te91  1  0.75138893  0.08115790  0.41117052  1
  Te  Te92  1  0.72972866  0.10195682  0.75345410  1
  Te  Te93  1  0.72576612  0.40456904  0.08701829  1
  Te  Te94  1  0.76565195  0.43542244  0.38335269  1
  Te  Te95  1  0.73489265  0.41938018  0.74480427  1
  Te  Te96  1  0.75982501  0.73149488  0.09264668  1
  Te  Te97  1  0.75731038  0.76379489  0.42378127  1
  Te  Te98  1  0.75900571  0.74485018  0.75209568  1
  Te  Te99  1  0.12148976  0.27003694  0.23644251  1
  Te  Te100  1  0.07601815  0.22018815  0.57982990  1
  Te  Te101  1  0.08693840  0.24658624  0.90258216  1
  Te  Te102  1  0.07684444  0.59739584  0.23231946  1
  Te  Te103  1  0.09990447  0.55006344  0.60800777  1
  Te  Te104  1  0.09237293  0.57337925  0.94233342  1
  Te  Te105  1  0.07504607  0.95520521  0.26350344  1
  Te  Te106  1  0.09799522  0.91784622  0.57041007  1
  Te  Te107  1  0.13797005  0.96566503  0.93360378  1
  Te  Te108  1  0.41431827  0.24587182  0.22887999  1
  Te  Te109  1  0.39273691  0.29396922  0.60499388  1
  Te  Te110  1  0.34607440  0.24867686  0.93082487  1
  Te  Te111  1  0.43270925  0.59759472  0.25214220  1
  Te  Te112  1  0.38239879  0.54643366  0.58710153  1
  Te  Te113  1  0.46105817  0.55023260  0.92019825  1
  Te  Te114  1  0.43336032  0.90026922  0.24302078  1
  Te  Te115  1  0.41415132  0.90189017  0.57196837  1
  Te  Te116  1  0.37997161  0.94094813  0.92136071  1
  Te  Te117  1  0.75761880  0.26627045  0.27587912  1
  Te  Te118  1  0.74241458  0.26062531  0.57526952  1
  Te  Te119  1  0.74539876  0.26755972  0.91795807  1
  Te  Te120  1  0.77850003  0.59946160  0.24660660  1
  Te  Te121  1  0.77310726  0.58094651  0.56819251  1
  Te  Te122  1  0.73752112  0.56813471  0.89621362  1
  Te  Te123  1  0.77046479  0.91741776  0.23800790  1
  Te  Te124  1  0.72173209  0.93070578  0.59876739  1
  Te  Te125  1  0.74296815  0.90749221  0.93570016  1
  Te  Te126  1  0.21012092  0.26428694  0.10764681  1
  Te  Te127  1  0.24399725  0.24391319  0.41792215  1
  Te  Te128  1  0.27015275  0.28455761  0.79473193  1
  Te  Te129  1  0.24119435  0.57569063  0.06262088  1
  Te  Te130  1  0.26166811  0.57100718  0.41309359  1
  Te  Te131  1  0.24765882  0.58274704  0.77686192  1
  Te  Te132  1  0.22116552  0.91408366  0.06810279  1
  Te  Te133  1  0.26241738  0.91418341  0.38684243  1
  Te  Te134  1  0.22498858  0.89286220  0.73016687  1
  Te  Te135  1  0.57882259  0.23652204  0.06928814  1
  Te  Te136  1  0.59257843  0.25473490  0.40618287  1
  Te  Te137  1  0.53772746  0.27320383  0.77832650  1
  Te  Te138  1  0.58365877  0.57559834  0.07936431  1
  Te  Te139  1  0.58658641  0.59256636  0.44891811  1
  Te  Te140  1  0.55903697  0.59653428  0.75016051  1
  Te  Te141  1  0.57309529  0.91142149  0.07405080  1
  Te  Te142  1  0.59014210  0.94281450  0.41169230  1
  Te  Te143  1  0.56289498  0.94090146  0.76057152  1
  Te  Te144  1  0.90943739  0.26754533  0.09561416  1
  Te  Te145  1  0.95654157  0.24808086  0.40958547  1
  Te  Te146  1  0.91509119  0.22120027  0.75310838  1
  Te  Te147  1  0.91178747  0.58099077  0.07072165  1
  Te  Te148  1  0.94546835  0.57043259  0.39870827  1
  Te  Te149  1  0.94098442  0.57451648  0.76565805  1
  Te  Te150  1  0.96579969  0.91936903  0.09393635  1
  Te  Te151  1  0.91796175  0.90668427  0.40312145  1
  Te  Te152  1  0.89728523  0.92186054  0.73225204  1
  Te  Te153  1  0.27888173  0.08351352  0.22737652  1
  Te  Te154  1  0.27971641  0.08292579  0.57315839  1
  Te  Te155  1  0.25032615  0.06503788  0.89494269  1
  Te  Te156  1  0.27186436  0.43251706  0.24575327  1
  Te  Te157  1  0.22140980  0.35339348  0.60324180  1
  Te  Te158  1  0.25834276  0.38806586  0.90166699  1
  Te  Te159  1  0.23920711  0.74530535  0.22374603  1
  Te  Te160  1  0.23506277  0.73554003  0.59481604  1
  Te  Te161  1  0.23974245  0.74294339  0.94689352  1
  Te  Te162  1  0.60589724  0.07870917  0.23622120  1
  Te  Te163  1  0.55421198  0.11597510  0.60663394  1
  Te  Te164  1  0.55158246  0.08212825  0.91520817  1
  Te  Te165  1  0.58143766  0.41667957  0.25093605  1
  Te  Te166  1  0.57697620  0.43155919  0.60040443  1
  Te  Te167  1  0.51907528  0.40506591  0.94839455  1
  Te  Te168  1  0.59433114  0.75948703  0.26954936  1
  Te  Te169  1  0.58344295  0.74934231  0.60576676  1
  Te  Te170  1  0.57397129  0.75337250  0.91174737  1
  Te  Te171  1  0.90895121  0.11097900  0.25974986  1
  Te  Te172  1  0.92241513  0.07012806  0.56838585  1
  Te  Te173  1  0.91999657  0.05889314  0.92019104  1
  Te  Te174  1  0.92669688  0.41086868  0.20964381  1
  Te  Te175  1  0.90620179  0.39690680  0.58190914  1
  Te  Te176  1  0.92209671  0.40956240  0.92103063  1
  Te  Te177  1  0.97522515  0.73514614  0.22480138  1
  Te  Te178  1  0.93763602  0.73063025  0.59206660  1
  Te  Te179  1  0.91666464  0.77927938  0.91390643  1
