# generated using pymatgen
data_In2Te3
_symmetry_space_group_name_H-M   'P 1'
_cell_length_a   18.77852078
_cell_length_b   18.77819495
_cell_length_c   18.77096912
_cell_angle_alpha   90.04429197
_cell_angle_beta   90.02411665
_cell_angle_gamma   90.04906900
_symmetry_Int_Tables_number   1
_chemical_formula_structural   In2Te3
_chemical_formula_sum   'In72 Te108'
_cell_volume   6619.14035590
_cell_formula_units_Z   36
loop_
 _symmetry_equiv_pos_site_id
 _symmetry_equiv_pos_as_xyz
  1  'x, y, z'
loop_
 _atom_site_type_symbol
 _atom_site_label
 _atom_site_symmetry_multiplicity
 _atom_site_fract_x
 _atom_site_fract_y
 _atom_site_fract_z
 _atom_site_occupancy
  In  In0  1  0.66906024  0.01982335  0.35431722  1
  In  In1  1  0.00676597  0.00472252  0.66774060  1
  In  In2  1  0.49603768  0.33537839  0.51134320  1
  In  In3  1  0.15411971  0.16756064  -0.02383073  1
  In  In4  1  0.47409759  0.00092739  0.51892403  1
  In  In5  1  0.85946859  -0.01378152  0.16151351  1
  In  In6  1  0.82553370  0.48463011  0.34513189  1
  In  In7  1  0.46984715  0.52031669  0.32793706  1
  In  In8  1  0.16138952  0.01852654  0.14803260  1
  In  In9  1  0.68654404  0.82832001  0.13599723  1
  In  In10  1  0.48112672  -0.02425491  0.17589848  1
  In  In11  1  -0.00306608  0.68044073  -0.00806576  1
  In  In12  1  0.86470319  0.69869066  0.52317754  1
  In  In13  1  0.00747587  0.81984673  0.15455199  1
  In  In14  1  0.68464504  0.15538128  0.82493284  1
  In  In15  1  0.32556645  0.36039072  -0.02313745  1
  In  In16  1  0.66030014  0.50660316  0.15819901  1
  In  In17  1  0.84739751  0.84871805  0.34760295  1
  In  In18  1  0.47467186  0.67460611  0.50451729  1
  In  In19  1  0.31910418  0.66338532  -0.01047988  1
  In  In20  1  0.16869731  0.49980215  -0.01331910  1
  In  In21  1  0.31817095  0.50632987  0.52228275  1
  In  In22  1  0.32891110  0.82825895  0.18826272  1
  In  In23  1  0.30570072  -0.02709474  0.67560486  1
  In  In24  1  0.66746378  0.85369570  0.51805430  1
  In  In25  1  0.30922060  0.67358529  0.65947830  1
  In  In26  1  0.49088692  0.64028815  0.18137510  1
  In  In27  1  0.49324083  0.21316490  -0.01660947  1
  In  In28  1  0.16780176  0.66957963  0.83114560  1
  In  In29  1  0.46678799  0.35164562  0.82920699  1
  In  In30  1  0.49340489  0.83664811  0.66121395  1
  In  In31  1  0.32354368  0.16877024  0.17055529  1
  In  In32  1  0.49018577  0.15092631  0.34418409  1
  In  In33  1  0.51239784  0.00633357  0.81763502  1
  In  In34  1  0.83893736  0.32699604  0.16735117  1
  In  In35  1  0.01829153  0.66507194  0.33763605  1
  In  In36  1  0.67097148  0.34739757  0.32747495  1
  In  In37  1  0.68966418  -0.02530956  -0.03502787  1
  In  In38  1  0.66632153  0.66267943  0.32335552  1
  In  In39  1  0.69236646  0.66403694  -0.02929428  1
  In  In40  1  0.83936699  0.32700847  0.81715846  1
  In  In41  1  0.70442449  0.15437259  0.15820167  1
  In  In42  1  -0.00478860  0.16957800  0.50536357  1
  In  In43  1  0.13647561  0.83763764  -0.01901608  1
  In  In44  1  0.67817425  0.50806713  0.52651497  1
  In  In45  1  0.01815088  0.83263504  0.83185838  1
  In  In46  1  0.00962877  0.31657185  0.32909010  1
  In  In47  1  0.84699251  0.51937330  -0.02088714  1
  In  In48  1  0.46985411  0.32115807  0.13564412  1
  In  In49  1  0.49192629  0.18027997  0.65733051  1
  In  In50  1  0.16126589  0.34769298  0.17513986  1
  In  In51  1  0.83707536  0.81573822  -0.03096536  1
  In  In52  1  0.01033710  0.31808283  -0.01222879  1
  In  In53  1  0.50376777  0.66569612  0.84235303  1
  In  In54  1  0.17267116  0.50901327  0.33537264  1
  In  In55  1  0.47513930  0.80201559  0.35111794  1
  In  In56  1  0.48360758  0.83534573  -0.02672839  1
  In  In57  1  0.66055572  0.34012190  -0.03441606  1
  In  In58  1  0.67886743  0.32788173  0.66792988  1
  In  In59  1  0.17701776  0.34437696  0.50592812  1
  In  In60  1  0.69830777  0.67487885  0.70424387  1
  In  In61  1  0.70623932  0.00778484  0.67292150  1
  In  In62  1  0.16742864  0.82658106  0.35146333  1
  In  In63  1  0.48409056  0.47030559  -0.01065826  1
  In  In64  1  0.01302593  0.52286345  0.54148459  1
  In  In65  1  0.01586713  0.36376471  0.69360549  1
  In  In66  1  0.16726697  0.19115064  0.33638464  1
  In  In67  1  0.69794947  0.16634064  0.50831460  1
  In  In68  1  -0.02071746  -0.01087538  0.34020768  1
  In  In69  1  0.17642712  0.17838702  0.70334615  1
  In  In70  1  0.15354339  -0.01507301  0.52222470  1
  In  In71  1  0.32687163  0.01779234  -0.01015659  1
  Te  Te72  1  0.05637510  0.07809387  0.05495160  1
  Te  Te73  1  0.08770882  0.08337992  0.41365816  1
  Te  Te74  1  0.08975665  0.07708080  0.77161928  1
  Te  Te75  1  0.07133399  0.42490568  0.08068579  1
  Te  Te76  1  0.07119708  0.42371275  0.42787427  1
  Te  Te77  1  0.11926301  0.44478162  0.76283137  1
  Te  Te78  1  0.11041899  0.73060813  0.08509928  1
  Te  Te79  1  0.06997105  0.75814651  0.44118467  1
  Te  Te80  1  0.06614749  0.72602656  0.73065910  1
  Te  Te81  1  0.42509905  0.09415334  0.08069497  1
  Te  Te82  1  0.39258780  0.09133487  0.43625691  1
  Te  Te83  1  0.40830642  0.07847739  0.73483426  1
  Te  Te84  1  0.38604097  0.44120064  0.10127816  1
  Te  Te85  1  0.40372179  0.42252144  0.42478476  1
  Te  Te86  1  0.37468888  0.39100659  0.72048504  1
  Te  Te87  1  0.41976352  0.75063805  0.08294260  1
  Te  Te88  1  0.36682532  0.72315949  0.41541003  1
  Te  Te89  1  0.40996856  0.74840231  0.75161476  1
  Te  Te90  1  0.77440303  0.06460827  0.05640578  1
  Te  Te91  1  0.78262825  0.07327048  0.42917252  1
  Te  Te92  1  0.79761180  0.08875974  0.75920966  1
  Te  Te93  1  0.74997663  0.41639344  0.07337263  1
  Te  Te94  1  0.75216285  0.39845218  0.44850924  1
  Te  Te95  1  0.76106546  0.42936463  0.74104086  1
  Te  Te96  1  0.78179566  0.72431725  0.08090048  1
  Te  Te97  1  0.74569955  0.74875918  0.42077134  1
  Te  Te98  1  0.78359680  0.77907000  0.76310907  1
  Te  Te99  1  0.07557106  0.22968789  0.22043868  1
  Te  Te100  1  0.09136499  0.24954430  0.59462596  1
  Te  Te101  1  0.07628422  0.24678065  0.87270250  1
  Te  Te102  1  0.07864580  0.57306612  0.24041541  1
  Te  Te103  1  0.11137427  0.60825041  0.61249461  1
  Te  Te104  1  0.06849237  0.57889568  0.90309425  1
  Te  Te105  1  0.08421702  0.91965166  0.24190792  1
  Te  Te106  1  0.08466586  0.88831832  0.61222499  1
  Te  Te107  1  0.08368046  0.95049018  0.89965132  1
  Te  Te108  1  0.41141089  0.25626823  0.26039895  1
  Te  Te109  1  0.39131907  0.25180097  0.57606590  1
  Te  Te110  1  0.37541154  0.23510049  0.89214902  1
  Te  Te111  1  0.36986055  0.60657017  0.25983184  1
  Te  Te112  1  0.42472052  0.57695280  0.60715537  1
  Te  Te113  1  0.40020942  0.56714715  0.90249587  1
  Te  Te114  1  0.39718529  0.92238112  0.28950865  1
  Te  Te115  1  0.38551517  0.88705706  0.56685631  1
  Te  Te116  1  0.40049057  0.92418107  0.88444073  1
  Te  Te117  1  0.76571923  0.23972886  0.27029942  1
  Te  Te118  1  0.77858555  0.23596662  0.61032955  1
  Te  Te119  1  0.76576716  0.24092408  0.92461757  1
  Te  Te120  1  0.76500200  0.58151662  0.24028834  1
  Te  Te121  1  0.77959478  0.59558292  0.60037433  1
  Te  Te122  1  0.74525976  0.56045495  0.87195035  1
  Te  Te123  1  0.74094543  0.91925305  0.24854629  1
  Te  Te124  1  0.78234195  0.91389191  0.58590809  1
  Te  Te125  1  0.77872953  0.90877659  0.86316705  1
  Te  Te126  1  0.24760637  0.25622915  0.07065224  1
  Te  Te127  1  0.26503842  0.25591432  0.42537016  1
  Te  Te128  1  0.28016753  0.27189966  0.75557530  1
  Te  Te129  1  0.24807449  0.57704093  0.08571595  1
  Te  Te130  1  0.23187407  0.59940001  0.44145958  1
  Te  Te131  1  0.25109214  0.57191629  0.75407928  1
  Te  Te132  1  0.25382093  0.91579358  0.07889822  1
  Te  Te133  1  0.25081344  0.92026977  0.43041549  1
  Te  Te134  1  0.25171720  0.88120437  0.77587681  1
  Te  Te135  1  0.60279859  0.25744732  0.09232506  1
  Te  Te136  1  0.58922472  0.24640481  0.42053089  1
  Te  Te137  1  0.57620378  0.24851871  0.76695749  1
  Te  Te138  1  0.57999425  0.58995521  0.05776911  1
  Te  Te139  1  0.58405513  0.57414223  0.41792606  1
  Te  Te140  1  0.58182387  0.59102905  0.74067773  1
  Te  Te141  1  0.58208062  0.92094949  0.06938381  1
  Te  Te142  1  0.57113905  0.91426644  0.41397762  1
  Te  Te143  1  0.60018868  0.91166806  0.73953217  1
  Te  Te144  1  0.91448017  0.23416677  0.07198685  1
  Te  Te145  1  0.91120170  0.25879129  0.42156647  1
  Te  Te146  1  0.95072800  0.24414874  0.75956173  1
  Te  Te147  1  0.92717927  0.58652853  0.08332811  1
  Te  Te148  1  0.91110542  0.58249814  0.42592975  1
  Te  Te149  1  0.88101831  0.57585143  0.79856631  1
  Te  Te150  1  0.93014715  0.90378195  0.05281387  1
  Te  Te151  1  0.93212680  0.90627851  0.45361964  1
  Te  Te152  1  0.91866183  0.91823838  0.75848818  1
  Te  Te153  1  0.24722790  0.07472655  0.26064941  1
  Te  Te154  1  0.24104461  0.08692525  0.59750374  1
  Te  Te155  1  0.23133490  0.07098592  0.88966853  1
  Te  Te156  1  0.25701892  0.40534819  0.27018427  1
  Te  Te157  1  0.23442307  0.42532090  0.61928288  1
  Te  Te158  1  0.21454230  0.39989716  0.88070761  1
  Te  Te159  1  0.23111640  0.73715098  0.24989593  1
  Te  Te160  1  0.20596444  0.72030959  0.56147938  1
  Te  Te161  1  0.25633023  0.77636810  0.90069421  1
  Te  Te162  1  0.58439566  0.08634943  0.23596764  1
  Te  Te163  1  0.59059211  0.07602682  0.58574884  1
  Te  Te164  1  0.58169158  0.08828659  0.92772243  1
  Te  Te165  1  0.56591572  0.42170157  0.24378704  1
  Te  Te166  1  0.57651139  0.42453117  0.60558419  1
  Te  Te167  1  0.58490091  0.43751828  0.87873810  1
  Te  Te168  1  0.58104861  0.76074212  0.23871812  1
  Te  Te169  1  0.59176194  0.73801281  0.58408748  1
  Te  Te170  1  0.60205105  0.76872589  0.90345611  1
  Te  Te171  1  0.92008740  0.08825055  0.24843354  1
  Te  Te172  1  0.90734217  0.08129440  0.58593612  1
  Te  Te173  1  0.93897899  0.12425479  0.96540585  1
  Te  Te174  1  0.92637913  0.42045028  0.24861280  1
  Te  Te175  1  0.91806912  0.42754572  0.60259951  1
  Te  Te176  1  0.93082297  0.41927257  0.90152957  1
  Te  Te177  1  0.91531148  0.74993271  0.25423188  1
  Te  Te178  1  0.95833991  0.75716674  0.62026502  1
  Te  Te179  1  0.89738964  0.71012061  0.86515066  1
