# generated using pymatgen
data_In2Te3
_symmetry_space_group_name_H-M   'P 1'
_cell_length_a   18.76389277
_cell_length_b   18.76837286
_cell_length_c   18.76879876
_cell_angle_alpha   89.89983052
_cell_angle_beta   89.99402295
_cell_angle_gamma   89.99950533
_symmetry_Int_Tables_number   1
_chemical_formula_structural   In2Te3
_chemical_formula_sum   'In72 Te108'
_cell_volume   6609.75522652
_cell_formula_units_Z   36
loop_
 _symmetry_equiv_pos_site_id
 _symmetry_equiv_pos_as_xyz
  1  'x, y, z'
loop_
 _atom_site_type_symbol
 _atom_site_label
 _atom_site_symmetry_multiplicity
 _atom_site_fract_x
 _atom_site_fract_y
 _atom_site_fract_z
 _atom_site_occupancy
  In  In0  1  0.82013539  0.49990700  0.30620364  1
  In  In1  1  0.86071793  0.12807155  -0.03940409  1
  In  In2  1  0.48353686  0.32974954  0.17444044  1
  In  In3  1  0.16663584  0.34841677  0.16071108  1
  In  In4  1  0.49179294  0.65126788  0.83350522  1
  In  In5  1  0.68012683  0.34110315  0.33934168  1
  In  In6  1  0.18306383  0.45499280  0.65608459  1
  In  In7  1  0.00353951  0.83613339  0.14980720  1
  In  In8  1  0.33959424  0.67832721  0.32289049  1
  In  In9  1  0.64557065  0.33770184  -0.01010925  1
  In  In10  1  0.00600988  0.32678662  -0.00947759  1
  In  In11  1  0.67939413  0.69219863  0.69005717  1
  In  In12  1  0.65624428  0.30154456  0.70004915  1
  In  In13  1  0.65833718  0.16015886  0.81777066  1
  In  In14  1  0.49201811  0.00266011  0.82467103  1
  In  In15  1  0.67792062  0.49503390  0.87733804  1
  In  In16  1  0.83686359  0.69285348  0.50360587  1
  In  In17  1  -0.00356803  0.47753522  0.49332980  1
  In  In18  1  0.16776275  0.66753003  0.84780134  1
  In  In19  1  0.35671588  0.84913364  0.19181711  1
  In  In20  1  0.17010195  0.50152893  -0.00022604  1
  In  In21  1  0.16128761  0.83259213  0.65655450  1
  In  In22  1  0.84640218  0.52943435  0.02825321  1
  In  In23  1  0.65458066  0.79534992  0.17028602  1
  In  In24  1  0.15147278  0.01302902  0.51398161  1
  In  In25  1  0.66848818  0.66971901  0.01072457  1
  In  In26  1  -0.00099169  0.67310517  0.67256921  1
  In  In27  1  0.66446564  -0.01828416  0.01070035  1
  In  In28  1  0.86008231  0.30999047  0.48763343  1
  In  In29  1  0.70364278  0.84291603  0.84000350  1
  In  In30  1  0.66228885  0.52499280  0.15664870  1
  In  In31  1  0.00726821  0.16060015  0.16402640  1
  In  In32  1  0.47919776  0.32511460  0.52810726  1
  In  In33  1  0.16337971  0.01560202  0.81541037  1
  In  In34  1  0.14648861  0.82213279  -0.01243466  1
  In  In35  1  0.15191906  0.14513851  -0.01280895  1
  In  In36  1  0.65746960  0.14975159  0.50879953  1
  In  In37  1  0.17925197  0.67030941  0.51691110  1
  In  In38  1  0.83833582  0.32216410  0.81752258  1
  In  In39  1  0.49817024  0.68000255  0.45851389  1
  In  In40  1  0.84342117  0.33663096  0.18365176  1
  In  In41  1  0.02550475  0.86195595  0.49643135  1
  In  In42  1  0.31081988  0.30527615  0.66072458  1
  In  In43  1  0.48686119  0.49146702  0.67405229  1
  In  In44  1  0.85064020  0.49490821  0.64550230  1
  In  In45  1  0.66617103  0.01944123  0.34191408  1
  In  In46  1  0.34392719  0.15295704  0.16287790  1
  In  In47  1  0.49192307  0.83992579  0.65799265  1
  In  In48  1  0.31343716  0.50643873  0.16068180  1
  In  In49  1  0.67011269  0.86493053  0.50593808  1
  In  In50  1  0.32754698  0.48098804  0.52654656  1
  In  In51  1  0.85415197  0.84320881  0.33340992  1
  In  In52  1  0.84126521  -0.01193601  0.15612188  1
  In  In53  1  0.15736031  0.01936503  0.15622567  1
  In  In54  1  0.31845473  0.68614404  0.65799138  1
  In  In55  1  0.02488424  0.02012113  0.35949497  1
  In  In56  1  0.48992185  0.51676939  0.35339185  1
  In  In57  1  0.50061055  0.83870118  0.00686527  1
  In  In58  1  0.67103971  0.02047158  0.64973526  1
  In  In59  1  0.34559910  0.30839303  -0.02389659  1
  In  In60  1  0.01191954  0.49190908  0.82351972  1
  In  In61  1  0.31994375  0.00431349  0.00263290  1
  In  In62  1  0.17543985  0.16802743  0.34498792  1
  In  In63  1  0.14748109  0.49067977  0.33991881  1
  In  In64  1  0.32488943  0.49809656  0.85330652  1
  In  In65  1  0.19559767  0.83976013  0.33727549  1
  In  In66  1  0.66996337  0.19369403  0.17050675  1
  In  In67  1  0.31305989  0.01067345  0.66210376  1
  In  In68  1  0.48163635  0.14491804  0.35704100  1
  In  In69  1  0.00516272  0.65737048  0.30803370  1
  In  In70  1  0.85179778  0.14329886  0.66024559  1
  In  In71  1  0.63547093  0.51969063  0.48565711  1
  Te  Te72  1  0.04749634  0.05689447  0.05899107  1
  Te  Te73  1  0.05858682  0.13370752  0.45898235  1
  Te  Te74  1  0.09728050  0.11044242  0.71364633  1
  Te  Te75  1  0.06258670  0.43092599  0.08613876  1
  Te  Te76  1  0.08095842  0.38266368  0.41827189  1
  Te  Te77  1  0.08391041  0.38915627  0.74644985  1
  Te  Te78  1  0.05595342  0.72374841  0.06220319  1
  Te  Te79  1  0.08445424  0.74508412  0.41533437  1
  Te  Te80  1  0.07508070  0.76484651  0.76943940  1
  Te  Te81  1  0.42921119  0.06555832  0.08107371  1
  Te  Te82  1  0.39224932  0.03650313  0.40572247  1
  Te  Te83  1  0.39707646  0.09458770  0.75690424  1
  Te  Te84  1  0.40163322  0.41087575  0.07462746  1
  Te  Te85  1  0.40900470  0.40619799  0.41827761  1
  Te  Te86  1  0.39138971  0.40398605  0.75033160  1
  Te  Te87  1  0.42312888  0.75458254  0.10047078  1
  Te  Te88  1  0.41337896  0.78627736  0.39767379  1
  Te  Te89  1  0.40938943  0.75695412  0.75766137  1
  Te  Te90  1  0.75105216  0.09503689  0.08464128  1
  Te  Te91  1  0.76403653  0.08720037  0.42958607  1
  Te  Te92  1  0.76374774  0.06641054  0.76208687  1
  Te  Te93  1  0.75075766  0.41217076  0.08529866  1
  Te  Te94  1  0.76104116  0.42802403  0.43591449  1
  Te  Te95  1  0.74834845  0.42469415  0.74689584  1
  Te  Te96  1  0.75985515  0.76988386  0.06936946  1
  Te  Te97  1  0.74404807  0.76822662  0.40989938  1
  Te  Te98  1  0.79742845  0.76076419  0.75362729  1
  Te  Te99  1  0.08595666  0.25456185  0.25250350  1
  Te  Te100  1  0.11666496  0.23257133  0.63064597  1
  Te  Te101  1  0.07353077  0.23453445  0.89856675  1
  Te  Te102  1  0.09979682  0.57628725  0.22962939  1
  Te  Te103  1  0.08292748  0.57272399  0.58748606  1
  Te  Te104  1  0.06125901  0.59053711  0.92615005  1
  Te  Te105  1  0.07962281  0.91493599  0.25870835  1
  Te  Te106  1  0.05766640  0.94893401  0.62473449  1
  Te  Te107  1  0.08019595  0.93581174  0.91317370  1
  Te  Te108  1  0.40068363  0.24531109  0.27072523  1
  Te  Te109  1  0.40046807  0.21205653  0.58088013  1
  Te  Te110  1  0.43088617  0.22724617  0.88854956  1
  Te  Te111  1  0.42404038  0.58632898  0.23430941  1
  Te  Te112  1  0.42098609  0.59712277  0.57552820  1
  Te  Te113  1  0.40210757  0.59290133  0.93568413  1
  Te  Te114  1  0.42623299  0.92597802  0.29914742  1
  Te  Te115  1  0.42650557  0.94844539  0.58202514  1
  Te  Te116  1  0.40477801  0.91196948  0.91282390  1
  Te  Te117  1  0.77202979  0.23677908  0.27695210  1
  Te  Te118  1  0.75233373  0.25024940  0.58962702  1
  Te  Te119  1  0.74774156  0.24582378  0.91668672  1
  Te  Te120  1  0.76077695  0.60944179  0.22781763  1
  Te  Te121  1  0.74769757  0.59223290  0.58064024  1
  Te  Te122  1  0.77365076  0.60626411  0.91649869  1
  Te  Te123  1  0.74411457  0.91523866  0.24993934  1
  Te  Te124  1  0.76635073  0.91701812  0.60321799  1
  Te  Te125  1  0.78200182  0.92350178  0.93866281  1
  Te  Te126  1  0.23917023  0.23752480  0.08323526  1
  Te  Te127  1  0.26313891  0.23934839  0.43956811  1
  Te  Te128  1  0.21140228  0.23316852  0.74738878  1
  Te  Te129  1  0.25043960  0.60422961  0.06887245  1
  Te  Te130  1  0.25793440  0.58016853  0.42082097  1
  Te  Te131  1  0.24352842  0.58004927  0.73958344  1
  Te  Te132  1  0.23878629  0.90675026  0.09299469  1
  Te  Te133  1  0.25376734  0.94567641  0.42477269  1
  Te  Te134  1  0.25133005  0.90369575  0.75650136  1
  Te  Te135  1  0.56017977  0.24251322  0.07468557  1
  Te  Te136  1  0.57984945  0.25800892  0.41907931  1
  Te  Te137  1  0.53810546  0.24362486  0.77302233  1
  Te  Te138  1  0.56465379  0.57713616  0.06017149  1
  Te  Te139  1  0.61000531  0.61729217  0.36426327  1
  Te  Te140  1  0.59619397  0.57537432  0.74841755  1
  Te  Te141  1  0.57518669  0.91747590  0.11518957  1
  Te  Te142  1  0.57318027  0.92682102  0.41356092  1
  Te  Te143  1  0.59608799  0.91090559  0.74926457  1
  Te  Te144  1  0.90810389  0.24251442  0.07801832  1
  Te  Te145  1  0.94243038  0.22275046  0.40633860  1
  Te  Te146  1  0.93091339  0.22540933  0.75753540  1
  Te  Te147  1  0.94305138  0.61651471  0.09493674  1
  Te  Te148  1  0.91823577  0.59037965  0.42172271  1
  Te  Te149  1  0.90796072  0.58261452  0.75635350  1
  Te  Te150  1  0.90718156  0.90056448  0.05420580  1
  Te  Te151  1  0.91035248  0.94320181  0.43281524  1
  Te  Te152  1  0.93854240  0.92317605  0.79621571  1
  Te  Te153  1  0.25595384  0.06981202  0.25849910  1
  Te  Te154  1  0.24798764  0.11538059  0.57064387  1
  Te  Te155  1  0.26656241  0.09972054  0.89630787  1
  Te  Te156  1  0.25822271  0.41000533  0.26585439  1
  Te  Te157  1  0.22627598  0.36232541  0.53225058  1
  Te  Te158  1  0.23180544  0.39231118  0.91257518  1
  Te  Te159  1  0.23713877  0.74335356  0.23069850  1
  Te  Te160  1  0.26899249  0.78763944  0.55487660  1
  Te  Te161  1  0.26117500  0.75373915  0.92202838  1
  Te  Te162  1  0.57589036  0.09760002  0.24538955  1
  Te  Te163  1  0.55216489  0.08839602  0.59304212  1
  Te  Te164  1  0.58285235  0.07689693  0.92435592  1
  Te  Te165  1  0.58408924  0.42035281  0.25051466  1
  Te  Te166  1  0.59222752  0.41021995  0.58748433  1
  Te  Te167  1  0.55660725  0.41710736  0.90282091  1
  Te  Te168  1  0.56221630  0.72848065  0.26188953  1
  Te  Te169  1  0.58254262  0.74045915  0.57950498  1
  Te  Te170  1  0.58879081  0.75594577  0.90273629  1
  Te  Te171  1  0.92165517  0.07261819  0.25462586  1
  Te  Te172  1  0.93625836  0.04511108  0.58826403  1
  Te  Te173  1  0.95163662  0.06374062  0.86366883  1
  Te  Te174  1  0.93556492  0.42096293  0.26164387  1
  Te  Te175  1  0.93983096  0.38064549  0.59945857  1
  Te  Te176  1  0.90271446  0.42101240  0.92004232  1
  Te  Te177  1  0.90600804  0.74460765  0.23024255  1
  Te  Te178  1  0.92866763  0.77901182  0.58798455  1
  Te  Te179  1  0.93063441  0.79055848  0.85640306  1
