# generated using pymatgen
data_In2Te3
_symmetry_space_group_name_H-M   'P 1'
_cell_length_a   18.94083792
_cell_length_b   18.94018943
_cell_length_c   18.97058082
_cell_angle_alpha   89.95113335
_cell_angle_beta   90.13825423
_cell_angle_gamma   89.93198943
_symmetry_Int_Tables_number   1
_chemical_formula_structural   In2Te3
_chemical_formula_sum   'In72 Te108'
_cell_volume   6805.53708174
_cell_formula_units_Z   36
loop_
 _symmetry_equiv_pos_site_id
 _symmetry_equiv_pos_as_xyz
  1  'x, y, z'
loop_
 _atom_site_type_symbol
 _atom_site_label
 _atom_site_symmetry_multiplicity
 _atom_site_fract_x
 _atom_site_fract_y
 _atom_site_fract_z
 _atom_site_occupancy
  In  In0  1  0.68959654  0.84819022  0.14288902  1
  In  In1  1  0.48447184  -0.01551269  0.49239923  1
  In  In2  1  0.50178829  0.15683330  0.32929077  1
  In  In3  1  0.82567297  -0.01142085  0.48184475  1
  In  In4  1  0.84354384  0.84020191  -0.00538289  1
  In  In5  1  0.86023710  0.84598250  0.68634069  1
  In  In6  1  0.66067255  0.33241704  -0.01025142  1
  In  In7  1  0.49126969  0.83555720  0.32012847  1
  In  In8  1  0.50498521  0.81104160  -0.03371935  1
  In  In9  1  0.50451062  0.00958796  0.17441319  1
  In  In10  1  0.03306497  0.65749637  0.30908264  1
  In  In11  1  0.47656594  0.16463932  0.66987043  1
  In  In12  1  0.65787374  0.50350831  0.17944880  1
  In  In13  1  0.16908690  0.34268013  0.84142209  1
  In  In14  1  0.16479314  -0.01212866  0.82658305  1
  In  In15  1  0.34472978  -0.02369907  -0.00780109  1
  In  In16  1  0.14644362  0.81725261  0.67627456  1
  In  In17  1  0.17111343  0.82926290  -0.00999817  1
  In  In18  1  0.49935355  0.64487379  0.52201085  1
  In  In19  1  0.16534422  0.65403191  0.48476842  1
  In  In20  1  0.33865717  0.16304465  0.50310099  1
  In  In21  1  0.48524032  0.34631329  0.14780626  1
  In  In22  1  0.86625258  0.13263121  -0.02895371  1
  In  In23  1  0.30917956  0.82783930  0.15842177  1
  In  In24  1  0.52905183  0.65194928  0.80925650  1
  In  In25  1  0.51033853  0.49481462  0.67069708  1
  In  In26  1  0.17414592  0.35228051  0.49458095  1
  In  In27  1  0.84925628  0.82131691  0.31065056  1
  In  In28  1  0.30923384  0.83579091  0.49885531  1
  In  In29  1  0.81939310  0.21219587  0.69687521  1
  In  In30  1  0.50020081  0.81665870  0.65424126  1
  In  In31  1  0.00308933  0.16728073  0.17929901  1
  In  In32  1  0.48559832  0.66574216  0.16863030  1
  In  In33  1  0.67556844  0.52305739  0.50156732  1
  In  In34  1  -0.00328865  0.35260414  -0.01409077  1
  In  In35  1  0.48942432  0.17429580  -0.00456701  1
  In  In36  1  0.68656640  0.19834478  0.83012303  1
  In  In37  1  0.86523582  0.51853106  -0.01208778  1
  In  In38  1  0.32001344  0.34035738  0.33307084  1
  In  In39  1  0.32369622  0.51516928  0.82779560  1
  In  In40  1  0.14917005  0.34495210  0.15473258  1
  In  In41  1  -0.05618407  0.50912450  0.52167105  1
  In  In42  1  0.01923673  0.00781898  0.68300099  1
  In  In43  1  0.81568525  0.33161079  0.51586729  1
  In  In44  1  -0.00797630  0.33483532  0.66118224  1
  In  In45  1  0.28695087  0.64490381  0.00974788  1
  In  In46  1  0.17134254  0.01082913  0.49314904  1
  In  In47  1  0.84146473  0.34476683  0.18721720  1
  In  In48  1  0.67425423  0.66201747  0.33914827  1
  In  In49  1  0.66546836  0.01240226  0.67645635  1
  In  In50  1  0.48950650  0.36506723  0.49944579  1
  In  In51  1  0.84098335  0.00008094  0.15547076  1
  In  In52  1  0.15844254  0.15531389  0.01276363  1
  In  In53  1  0.17810681  0.50463196  0.67125312  1
  In  In54  1  0.49267384  0.49510104  0.00509602  1
  In  In55  1  0.65305663  0.32059077  0.33731812  1
  In  In56  1  0.64420450  0.83224580  0.49466903  1
  In  In57  1  0.34386968  0.66112345  0.33138756  1
  In  In58  1  -0.00977667  0.66784701  0.69359377  1
  In  In59  1  0.49089629  -0.00958726  0.84162968  1
  In  In60  1  0.83798356  0.17297154  0.36228779  1
  In  In61  1  0.07206744  -0.01144381  0.28989073  1
  In  In62  1  0.85428363  0.50351049  0.32113366  1
  In  In63  1  0.29051913  0.15227887  0.19000290  1
  In  In64  1  0.83797314  0.67186952  0.84375726  1
  In  In65  1  -0.01580539  0.80322956  0.50498950  1
  In  In66  1  -0.00739719  0.16425671  0.52004910  1
  In  In67  1  0.01550533  0.36782507  0.32436175  1
  In  In68  1  0.50519826  0.33176091  0.83962758  1
  In  In69  1  0.68183233  -0.00863279  -0.00925317  1
  In  In70  1  0.33800251  0.19386731  0.83832594  1
  In  In71  1  0.03655899  0.65319059  -0.00840556  1
  Te  Te72  1  0.05802979  0.07399886  0.08087794  1
  Te  Te73  1  0.06410338  0.08406642  0.41393717  1
  Te  Te74  1  0.10892046  0.10160552  0.75040875  1
  Te  Te75  1  0.09766975  0.44430991  0.05192645  1
  Te  Te76  1  0.06692005  0.44603365  0.44059617  1
  Te  Te77  1  0.07766374  0.42455029  0.75021115  1
  Te  Te78  1  0.09681700  0.75462372  0.10044402  1
  Te  Te79  1  0.09179570  0.76137727  0.40719509  1
  Te  Te80  1  0.05749990  0.76478510  0.78255625  1
  Te  Te81  1  0.40363752  0.09022530  0.08824388  1
  Te  Te82  1  0.40011359  0.06969406  0.39947983  1
  Te  Te83  1  0.39550958  0.07457328  0.75909269  1
  Te  Te84  1  0.38883973  0.44857485  0.10112630  1
  Te  Te85  1  0.39720626  0.43907081  0.41153230  1
  Te  Te86  1  0.41121312  0.41428590  0.75464173  1
  Te  Te87  1  0.40365858  0.74874631  0.06947452  1
  Te  Te88  1  0.42986254  0.75632374  0.43320446  1
  Te  Te89  1  0.42395556  0.72335783  0.73596965  1
  Te  Te90  1  0.75719851  0.09531435  0.07087330  1
  Te  Te91  1  0.73486706  0.09634701  0.43573511  1
  Te  Te92  1  0.76172204  0.08196265  0.76696756  1
  Te  Te93  1  0.74376537  0.41394524  0.09230394  1
  Te  Te94  1  0.75289292  0.42061132  0.39987479  1
  Te  Te95  1  0.74597486  0.32092167  0.76686734  1
  Te  Te96  1  0.76123282  0.74457325  0.07279916  1
  Te  Te97  1  0.75470264  0.76049194  0.41832876  1
  Te  Te98  1  0.76074132  0.76992749  0.76205257  1
  Te  Te99  1  0.09406019  0.25336650  0.26443586  1
  Te  Te100  1  0.09575198  0.25400916  0.58385297  1
  Te  Te101  1  0.07913760  0.24388535  0.91842810  1
  Te  Te102  1  0.12866706  0.56118233  0.24829987  1
  Te  Te103  1  0.06569474  0.58875915  0.58663607  1
  Te  Te104  1  0.11895421  0.54329219  0.93304707  1
  Te  Te105  1  0.06361551  0.87163108  0.19969886  1
  Te  Te106  1  0.07207126  0.90652955  0.57507395  1
  Te  Te107  1  0.07751496  0.93411682  0.93452495  1
  Te  Te108  1  0.40808300  0.24418816  0.24312218  1
  Te  Te109  1  0.40607199  0.26973898  0.58714922  1
  Te  Te110  1  0.40297256  0.28626174  0.94185928  1
  Te  Te111  1  0.39827323  0.56607463  0.23042539  1
  Te  Te112  1  0.40318557  0.57133358  0.60263428  1
  Te  Te113  1  0.41229239  0.59544772  0.92383514  1
  Te  Te114  1  0.39878071  0.92366446  0.24104970  1
  Te  Te115  1  0.39878649  0.91469298  0.59425879  1
  Te  Te116  1  0.39499235  0.88018197  0.88675141  1
  Te  Te117  1  0.75269462  0.24231191  0.25445458  1
  Te  Te118  1  0.74776519  0.21134121  0.56532263  1
  Te  Te119  1  0.78285008  0.25668557  0.93578919  1
  Te  Te120  1  0.76409078  0.59495134  0.23764418  1
  Te  Te121  1  0.80348343  0.56896049  0.55787309  1
  Te  Te122  1  0.75132963  0.59548117  0.93671289  1
  Te  Te123  1  0.75169946  0.92647825  0.25497552  1
  Te  Te124  1  0.73990039  0.91017736  0.58766084  1
  Te  Te125  1  0.74771218  0.90130012  0.89813743  1
  Te  Te126  1  0.24927065  0.25394981  0.08582055  1
  Te  Te127  1  0.24117633  0.24030569  0.41442940  1
  Te  Te128  1  0.25424612  0.27019544  0.74673994  1
  Te  Te129  1  0.20605383  0.63688281  0.13660451  1
  Te  Te130  1  0.27206139  0.57149795  0.42519274  1
  Te  Te131  1  0.22670282  0.60833160  0.76510585  1
  Te  Te132  1  0.23421717  0.93673315  0.08489336  1
  Te  Te133  1  0.24500418  0.92298155  0.39977526  1
  Te  Te134  1  0.24688616  0.90155818  0.74224313  1
  Te  Te135  1  0.58487112  0.24613007  0.08919159  1
  Te  Te136  1  0.56465754  0.24657408  0.43364626  1
  Te  Te137  1  0.57958073  0.25615648  0.73159146  1
  Te  Te138  1  0.58423133  0.59160584  0.08053896  1
  Te  Te139  1  0.56965057  0.57622059  0.40434956  1
  Te  Te140  1  0.62161491  0.56681317  0.73336440  1
  Te  Te141  1  0.56318359  0.91688633  0.06691558  1
  Te  Te142  1  0.58603757  0.92932749  0.39360601  1
  Te  Te143  1  0.57913288  0.91088425  0.74865389  1
  Te  Te144  1  0.92434039  0.26204949  0.09051469  1
  Te  Te145  1  0.93140348  0.27914863  0.42328522  1
  Te  Te146  1  0.95532614  0.22444320  0.75133335  1
  Te  Te147  1  0.94411370  0.59041189  0.08841355  1
  Te  Te148  1  0.92368839  0.60670364  0.40473731  1
  Te  Te149  1  0.91987314  0.56721835  0.77612553  1
  Te  Te150  1  0.93548910  0.90607784  0.09428986  1
  Te  Te151  1  0.92981971  0.90796414  0.40681514  1
  Te  Te152  1  0.93267562  0.93423459  0.78260286  1
  Te  Te153  1  0.20613423  0.05845883  0.26159261  1
  Te  Te154  1  0.24913351  0.08646527  0.58988568  1
  Te  Te155  1  0.26389158  0.08645441  0.92266186  1
  Te  Te156  1  0.22425278  0.42714646  0.25561307  1
  Te  Te157  1  0.26546489  0.43323677  0.57724557  1
  Te  Te158  1  0.24142890  0.44102863  0.93089025  1
  Te  Te159  1  0.24310401  0.74724118  0.26351796  1
  Te  Te160  1  0.24212009  0.73479766  0.58813235  1
  Te  Te161  1  0.23102756  0.72711779  0.90036134  1
  Te  Te162  1  0.60177042  0.09263823  0.24316392  1
  Te  Te163  1  0.56486987  0.07785315  0.58250697  1
  Te  Te164  1  0.58285877  0.09033587  0.91091078  1
  Te  Te165  1  0.56381596  0.41561068  0.25869569  1
  Te  Te166  1  0.60913278  0.41377168  0.58007905  1
  Te  Te167  1  0.59319288  0.43680543  0.90395403  1
  Te  Te168  1  0.59440886  0.75648553  0.24069107  1
  Te  Te169  1  0.60761242  0.72371313  0.59338909  1
  Te  Te170  1  0.60917725  0.73066151  0.90565919  1
  Te  Te171  1  0.91152659  0.08104484  0.26586117  1
  Te  Te172  1  0.90879249  0.06003770  0.58802227  1
  Te  Te173  1  0.94860662  0.03295600  0.90420759  1
  Te  Te174  1  0.94935730  0.44894421  0.21487327  1
  Te  Te175  1  0.86927279  0.42178079  0.62520536  1
  Te  Te176  1  0.91720839  0.42685888  0.88475829  1
  Te  Te177  1  0.93430600  0.73433093  0.22802488  1
  Te  Te178  1  0.88706148  0.72974337  0.59222739  1
  Te  Te179  1  0.94814853  0.75147952  0.91692703  1
