# generated using pymatgen
data_In2Te3
_symmetry_space_group_name_H-M   'P 1'
_cell_length_a   18.74898971
_cell_length_b   18.74873125
_cell_length_c   18.76261870
_cell_angle_alpha   89.98601749
_cell_angle_beta   90.09416449
_cell_angle_gamma   90.02876142
_symmetry_Int_Tables_number   1
_chemical_formula_structural   In2Te3
_chemical_formula_sum   'In72 Te108'
_cell_volume   6595.42146372
_cell_formula_units_Z   36
loop_
 _symmetry_equiv_pos_site_id
 _symmetry_equiv_pos_as_xyz
  1  'x, y, z'
loop_
 _atom_site_type_symbol
 _atom_site_label
 _atom_site_symmetry_multiplicity
 _atom_site_fract_x
 _atom_site_fract_y
 _atom_site_fract_z
 _atom_site_occupancy
  In  In0  1  0.33301635  0.50189020  0.84216343  1
  In  In1  1  0.84261932  0.82791829  0.00304477  1
  In  In2  1  0.50396628  0.17579454  -0.00845659  1
  In  In3  1  -0.00474603  0.63255426  0.34786210  1
  In  In4  1  0.81806248  0.84243169  0.35736325  1
  In  In5  1  0.33761420  0.35227270  0.68274528  1
  In  In6  1  0.48396394  0.68209781  0.75826334  1
  In  In7  1  0.69417883  0.83552454  0.17253253  1
  In  In8  1  0.52071261  0.33090327  0.50187419  1
  In  In9  1  0.83174250  -0.04090891  0.16748018  1
  In  In10  1  0.17302521  0.15329648  0.33432904  1
  In  In11  1  0.50076712  0.50019504  0.33221354  1
  In  In12  1  0.82190481  0.15426048  0.34062715  1
  In  In13  1  0.00991041  0.68733597  0.66730502  1
  In  In14  1  0.33991987  0.00609429  0.33268397  1
  In  In15  1  0.80969617  0.67128141  0.84097471  1
  In  In16  1  0.01260148  0.32881380  -0.02229707  1
  In  In17  1  0.49772597  0.83711620  -0.03662576  1
  In  In18  1  0.69556540  0.16602619  0.80633467  1
  In  In19  1  0.83119541  0.50124806  0.66532889  1
  In  In20  1  0.49949837  0.03172471  0.16001405  1
  In  In21  1  0.51049792  0.16160175  0.67040273  1
  In  In22  1  0.84701574  -0.00283776  0.79939151  1
  In  In23  1  0.65979592  0.34399680  0.66805590  1
  In  In24  1  0.32753264  0.14263351  0.50109557  1
  In  In25  1  0.62199253  0.35871368  -0.02892737  1
  In  In26  1  0.00190111  0.52410016  0.14291403  1
  In  In27  1  0.82176876  0.34425197  0.50840373  1
  In  In28  1  0.68143876  0.50394729  0.51653277  1
  In  In29  1  -0.02280245  0.69047016  -0.01193588  1
  In  In30  1  0.14802772  0.31238307  0.52417109  1
  In  In31  1  -0.00931349  0.85006655  0.52299687  1
  In  In32  1  0.16692710  0.82736655  0.32956398  1
  In  In33  1  0.19167585  0.47622601  0.34165879  1
  In  In34  1  0.17303070  -0.00146138  0.79609904  1
  In  In35  1  0.50038901  0.69127179  0.53615795  1
  In  In36  1  0.65321056  0.49139131  0.16986634  1
  In  In37  1  0.15444358  -0.00995408  0.53038330  1
  In  In38  1  0.83676155  0.48669483  0.35626820  1
  In  In39  1  0.33984140  0.16532409  0.85318655  1
  In  In40  1  0.37189120  0.29829019  0.31471318  1
  In  In41  1  0.03075127  0.14999400  0.15564651  1
  In  In42  1  0.62935663  0.16917355  0.16630473  1
  In  In43  1  -0.02650175  0.13319059  0.54712751  1
  In  In44  1  -0.00675882  -0.02220240  0.33962566  1
  In  In45  1  0.66669597  0.17681238  0.50780195  1
  In  In46  1  0.35471564  0.83409256  0.52388364  1
  In  In47  1  0.17102575  0.66874276  0.81589702  1
  In  In48  1  0.21363525  0.30617319  0.12690516  1
  In  In49  1  0.80645576  0.31988237  0.15099040  1
  In  In50  1  0.15741698  0.83657983  -0.02609233  1
  In  In51  1  0.32320060  0.65131259  -0.01362930  1
  In  In52  1  0.66747567  0.67934160  0.34068042  1
  In  In53  1  0.32497186  0.83671894  0.16767481  1
  In  In54  1  0.18087226  0.02853125  0.15319504  1
  In  In55  1  0.67216606  0.00236293  0.01067628  1
  In  In56  1  0.65768127  0.82922107  0.81248147  1
  In  In57  1  0.16898349  0.33469323  0.82648960  1
  In  In58  1  0.52155615  0.84437714  0.37606306  1
  In  In59  1  0.84163551  0.30560028  0.80772986  1
  In  In60  1  0.35109620  0.51993031  0.52405012  1
  In  In61  1  0.18133968  0.68977607  0.52518126  1
  In  In62  1  0.01025811  0.48743445  0.83856536  1
  In  In63  1  -0.04188811  0.84980080  0.15027508  1
  In  In64  1  0.18983227  0.66481975  0.14121464  1
  In  In65  1  0.83474382  0.67655887  0.15606975  1
  In  In66  1  0.84252269  0.15274317  -0.02066610  1
  In  In67  1  0.49409014  -0.00840363  0.81944853  1
  In  In68  1  -0.01979941  0.51349026  0.51721862  1
  In  In69  1  -0.01418388  0.32827299  0.32703546  1
  In  In70  1  0.49587405  0.64289489  0.16083364  1
  In  In71  1  0.19426932  0.49085787  -0.01755712  1
  Te  Te72  1  0.09635512  0.08259245  0.04152235  1
  Te  Te73  1  0.07253157  0.08442129  0.42685419  1
  Te  Te74  1  0.06233736  0.09776631  0.74965410  1
  Te  Te75  1  0.09334037  0.41484665  0.08339764  1
  Te  Te76  1  0.06960878  0.42028907  0.42249258  1
  Te  Te77  1  0.08848892  0.41841391  0.73505961  1
  Te  Te78  1  0.07537638  0.75531829  0.09459078  1
  Te  Te79  1  0.07351074  0.75204195  0.42557307  1
  Te  Te80  1  0.08103577  0.77583553  0.76552329  1
  Te  Te81  1  0.40098684  0.08599712  0.05944560  1
  Te  Te82  1  0.43321953  0.08193349  0.41879425  1
  Te  Te83  1  0.39997222  0.08126373  0.73818573  1
  Te  Te84  1  0.38955023  0.43374843  0.03703949  1
  Te  Te85  1  0.40610319  0.41242299  0.42429154  1
  Te  Te86  1  0.43790330  0.43362941  0.75757440  1
  Te  Te87  1  0.41267890  0.75081663  0.07275792  1
  Te  Te88  1  0.41494901  0.74210507  0.41748794  1
  Te  Te89  1  0.40719298  0.81460888  0.73434388  1
  Te  Te90  1  0.75613195  0.09234836  0.09994211  1
  Te  Te91  1  0.76195271  0.07598267  0.44927637  1
  Te  Te92  1  0.73230493  0.05298313  0.71756127  1
  Te  Te93  1  0.73591428  0.41743289  0.06123848  1
  Te  Te94  1  0.72115822  0.40246280  0.40773600  1
  Te  Te95  1  0.74843179  0.42190588  0.76641201  1
  Te  Te96  1  0.72962016  0.73810213  0.05842012  1
  Te  Te97  1  0.73395991  0.75681637  0.45018990  1
  Te  Te98  1  0.75156894  0.74901088  0.72835724  1
  Te  Te99  1  0.09674544  0.26058416  0.24579500  1
  Te  Te100  1  0.07965008  0.21627378  0.61702715  1
  Te  Te101  1  0.11120878  0.23550909  0.92220215  1
  Te  Te102  1  0.10389019  0.57471596  0.25222717  1
  Te  Te103  1  0.09364172  0.58237656  0.59328758  1
  Te  Te104  1  0.08900294  0.59354896  0.93167077  1
  Te  Te105  1  0.09277945  0.92390017  0.23592667  1
  Te  Te106  1  0.07064649  0.91814700  0.63159565  1
  Te  Te107  1  0.07515610  0.91134449  0.87627513  1
  Te  Te108  1  0.46340774  0.23649830  0.21748604  1
  Te  Te109  1  0.41400848  0.25387090  0.58331222  1
  Te  Te110  1  0.43638499  0.27081136  0.89850118  1
  Te  Te111  1  0.40213553  0.57972868  0.25477819  1
  Te  Te112  1  0.40664136  0.61526366  0.62893289  1
  Te  Te113  1  0.43657709  0.55239320  0.95203635  1
  Te  Te114  1  0.42884821  0.91190416  0.25169628  1
  Te  Te115  1  0.43342205  0.91676060  0.61972861  1
  Te  Te116  1  0.40281626  0.94244834  0.92598936  1
  Te  Te117  1  0.73259174  0.24937058  0.26085474  1
  Te  Te118  1  0.76295839  0.24674629  0.60984983  1
  Te  Te119  1  0.73546447  0.25105762  0.93000954  1
  Te  Te120  1  0.75264176  0.58484224  0.25395892  1
  Te  Te121  1  0.73058385  0.60026081  0.61694905  1
  Te  Te122  1  0.75328663  0.59562257  0.95124858  1
  Te  Te123  1  0.72670598  0.93938153  0.28032419  1
  Te  Te124  1  0.71302455  0.87633049  0.55548215  1
  Te  Te125  1  0.74848803  0.91716195  0.90982561  1
  Te  Te126  1  0.28827678  0.19720551  0.06221364  1
  Te  Te127  1  0.24794665  0.25815399  0.41920912  1
  Te  Te128  1  0.25524131  0.24045622  0.74302218  1
  Te  Te129  1  0.27980254  0.54863709  0.10134814  1
  Te  Te130  1  0.24982565  0.58878770  0.42963329  1
  Te  Te131  1  0.26102292  0.58187786  0.73806909  1
  Te  Te132  1  0.24993751  0.92051141  0.06609478  1
  Te  Te133  1  0.25011153  0.91752218  0.42195936  1
  Te  Te134  1  0.27341873  0.89772627  0.73761399  1
  Te  Te135  1  0.55234490  0.28549725  0.09201267  1
  Te  Te136  1  0.57365270  0.23401934  0.40543748  1
  Te  Te137  1  0.57839864  0.25816240  0.76642589  1
  Te  Te138  1  0.58907860  0.57802610  0.06652008  1
  Te  Te139  1  0.57672720  0.59168793  0.42994788  1
  Te  Te140  1  0.58857993  0.57742368  0.77039948  1
  Te  Te141  1  0.57901010  0.90888145  0.08616535  1
  Te  Te142  1  0.59473702  0.93237037  0.46916094  1
  Te  Te143  1  0.57723801  0.91652212  0.71695744  1
  Te  Te144  1  0.92454458  0.24704702  0.08525386  1
  Te  Te145  1  0.91937009  0.24332122  0.43549584  1
  Te  Te146  1  0.94937418  0.21003307  0.76681231  1
  Te  Te147  1  0.89134830  0.57525906  0.04760136  1
  Te  Te148  1  0.87908986  0.60340780  0.44472185  1
  Te  Te149  1  0.92422027  0.58720587  0.76038946  1
  Te  Te150  1  0.92635513  0.95305283  0.04428317  1
  Te  Te151  1  0.89227314  0.94309398  0.44785154  1
  Te  Te152  1  0.91640417  0.90986737  0.69754790  1
  Te  Te153  1  0.28180655  0.10997960  0.23636633  1
  Te  Te154  1  0.24689002  0.07737610  0.60540826  1
  Te  Te155  1  0.23030696  0.08004899  0.90994409  1
  Te  Te156  1  0.27312554  0.39153608  0.24210082  1
  Te  Te157  1  0.24526709  0.41881448  0.58018571  1
  Te  Te158  1  0.28630788  0.37662692  0.93298985  1
  Te  Te159  1  0.26260775  0.73130128  0.26032853  1
  Te  Te160  1  0.24462882  0.78719014  0.61969558  1
  Te  Te161  1  0.26740791  0.76037367  0.89725210  1
  Te  Te162  1  0.58913336  0.07136478  0.27081934  1
  Te  Te163  1  0.57543381  0.07304339  0.57017036  1
  Te  Te164  1  0.59387434  0.08199396  0.90552946  1
  Te  Te165  1  0.56686770  0.39875812  0.24745434  1
  Te  Te166  1  0.56549458  0.44208421  0.59669071  1
  Te  Te167  1  0.56837166  0.45875908  0.87074548  1
  Te  Te168  1  0.57700421  0.75532846  0.24490968  1
  Te  Te169  1  0.59663872  0.78344693  0.60303265  1
  Te  Te170  1  0.56798689  0.72748830  0.88623458  1
  Te  Te171  1  0.92396123  0.07992982  0.24749696  1
  Te  Te172  1  0.88433216  0.04958454  0.63815759  1
  Te  Te173  1  0.93858477  0.09578899  0.87689314  1
  Te  Te174  1  0.91072206  0.42675403  0.23445265  1
  Te  Te175  1  0.92915383  0.39858712  0.60487606  1
  Te  Te176  1  0.90164756  0.40687135  0.90964190  1
  Te  Te177  1  0.91728661  0.75298254  0.26847291  1
  Te  Te178  1  0.90044396  0.75328105  0.59194807  1
  Te  Te179  1  0.91836726  0.77787807  0.88081551  1
