# generated using pymatgen
data_In2Te3
_symmetry_space_group_name_H-M   'P 1'
_cell_length_a   18.82137178
_cell_length_b   18.81333939
_cell_length_c   18.82691079
_cell_angle_alpha   90.03147641
_cell_angle_beta   89.93586215
_cell_angle_gamma   89.95429723
_symmetry_Int_Tables_number   1
_chemical_formula_structural   In2Te3
_chemical_formula_sum   'In72 Te108'
_cell_volume   6666.46728641
_cell_formula_units_Z   36
loop_
 _symmetry_equiv_pos_site_id
 _symmetry_equiv_pos_as_xyz
  1  'x, y, z'
loop_
 _atom_site_type_symbol
 _atom_site_label
 _atom_site_symmetry_multiplicity
 _atom_site_fract_x
 _atom_site_fract_y
 _atom_site_fract_z
 _atom_site_occupancy
  In  In0  1  0.50670949  0.67437941  0.16108070  1
  In  In1  1  0.68013198  0.82102514  0.16255443  1
  In  In2  1  0.17523358  0.14116042  0.66569528  1
  In  In3  1  0.50530544  0.33184865  0.49337673  1
  In  In4  1  0.87458957  0.51349334  0.35826253  1
  In  In5  1  0.34723447  0.00651344  0.00911677  1
  In  In6  1  0.65173052  0.67305173  0.68613071  1
  In  In7  1  0.82984926  0.33501666  0.48920617  1
  In  In8  1  0.81147880  0.67738939  0.82709535  1
  In  In9  1  -0.02160344  0.16220799  0.82869039  1
  In  In10  1  0.83896216  0.68856085  0.15693874  1
  In  In11  1  0.81620146  0.84751842  -0.00072470  1
  In  In12  1  0.84606166  -0.02799729  0.83541074  1
  In  In13  1  0.51391474  -0.01559150  0.83640431  1
  In  In14  1  0.50640779  0.80709944  -0.00201873  1
  In  In15  1  0.30399718  0.17619312  0.49905936  1
  In  In16  1  0.33018289  0.17065916  0.17135842  1
  In  In17  1  0.82293357  0.51394330  -0.01357336  1
  In  In18  1  0.65749789  0.82554816  0.50832001  1
  In  In19  1  0.47843534  0.83629650  0.38286744  1
  In  In20  1  0.01851576  -0.01241949  0.66216074  1
  In  In21  1  0.00716454  0.82479877  0.83085033  1
  In  In22  1  0.16423713  0.67355713  0.48937864  1
  In  In23  1  -0.00019903  0.17834624  0.19052275  1
  In  In24  1  0.66031350  0.65366411  0.32386188  1
  In  In25  1  0.50877620  0.33700392  0.14444368  1
  In  In26  1  0.35765621  0.68010058  0.69582766  1
  In  In27  1  0.64711066  -0.00053409  0.67230880  1
  In  In28  1  0.18651872  0.14953230  0.00731067  1
  In  In29  1  0.81189042  0.32957575  0.81073787  1
  In  In30  1  0.34636321  0.52571677  0.51512877  1
  In  In31  1  0.82611811  0.17542424  0.66137034  1
  In  In32  1  0.00828302  0.01093559  0.32332868  1
  In  In33  1  0.18797229  0.84565256  0.69089738  1
  In  In34  1  0.02307956  0.69866883  0.03749093  1
  In  In35  1  0.16223540  -0.01898507  0.49208057  1
  In  In36  1  0.36753047  0.51138563  0.86753799  1
  In  In37  1  0.01719570  0.52456217  0.19941866  1
  In  In38  1  0.00786582  0.33951721  0.32763777  1
  In  In39  1  0.17475629  0.51868522  0.65964255  1
  In  In40  1  0.65538111  0.17244818  0.84023500  1
  In  In41  1  0.66451237  0.32747434  -0.02246058  1
  In  In42  1  0.31963607  0.68802723  0.33547771  1
  In  In43  1  0.29999443  0.47737837  0.19020756  1
  In  In44  1  0.86354558  0.82860879  0.33796271  1
  In  In45  1  0.16481070  0.31680363  0.82695393  1
  In  In46  1  0.00641082  -0.03727647  0.00090956  1
  In  In47  1  0.15018837  0.33039411  0.47721084  1
  In  In48  1  0.83696152  0.49004402  0.64980588  1
  In  In49  1  -0.00223864  0.16386277  0.49266629  1
  In  In50  1  0.81257447  -0.01569267  0.47657149  1
  In  In51  1  0.50553720  0.00285963  0.15205477  1
  In  In52  1  0.65774326  0.00313161  0.33061099  1
  In  In53  1  0.67423818  0.51176255  0.49601997  1
  In  In54  1  0.01850809  0.50318836  0.82757582  1
  In  In55  1  0.20065612  0.70039171  0.85575094  1
  In  In56  1  -0.01143306  0.34030422  0.02331355  1
  In  In57  1  0.49326846  0.14576619  0.68375385  1
  In  In58  1  0.31690920  0.83550747  0.17917177  1
  In  In59  1  0.65784011  0.50903486  0.15696299  1
  In  In60  1  0.48488992  0.33936978  0.84605420  1
  In  In61  1  0.50755708  0.49891233  0.33289837  1
  In  In62  1  0.80278756  0.30119482  0.19246908  1
  In  In63  1  -0.01350631  0.68376192  0.63391270  1
  In  In64  1  0.33509782  -0.01520895  0.37341314  1
  In  In65  1  0.50161576  0.16821632  0.32539031  1
  In  In66  1  0.16786829  -0.00064198  0.18544525  1
  In  In67  1  0.36229869  0.32463185  0.00396113  1
  In  In68  1  0.32385568  0.33597964  0.68861257  1
  In  In69  1  0.68628362  0.34671068  0.65348362  1
  In  In70  1  0.16771746  0.49772859  0.00692381  1
  In  In71  1  0.81080462  0.02191262  0.13227447  1
  Te  Te72  1  0.07232322  0.08329591  0.08755732  1
  Te  Te73  1  0.10396948  0.09522899  0.40843541  1
  Te  Te74  1  0.08579181  0.07042415  0.76966861  1
  Te  Te75  1  0.08630535  0.41828143  0.10809635  1
  Te  Te76  1  0.07033863  0.43930859  0.41702271  1
  Te  Te77  1  0.08998284  0.40936124  0.73139900  1
  Te  Te78  1  0.12561190  0.77328691  0.10758494  1
  Te  Te79  1  0.05412111  0.71419849  0.39389795  1
  Te  Te80  1  0.08755798  0.72561526  0.74574420  1
  Te  Te81  1  0.43355835  0.11323471  0.07480468  1
  Te  Te82  1  0.41942462  0.09798225  0.43347790  1
  Te  Te83  1  0.40322855  0.04193941  0.74527209  1
  Te  Te84  1  0.41444773  0.44119141  0.08521822  1
  Te  Te85  1  0.40794387  0.42150740  0.41754339  1
  Te  Te86  1  0.42331334  0.43538111  0.74492337  1
  Te  Te87  1  0.39235063  0.74199862  0.08347564  1
  Te  Te88  1  0.40157602  0.72952005  0.45611738  1
  Te  Te89  1  0.44331770  0.78424686  0.75883259  1
  Te  Te90  1  0.70968432  0.08398751  0.04814505  1
  Te  Te91  1  0.75130765  0.09718888  0.40306852  1
  Te  Te92  1  0.75572128  0.08084442  0.75742176  1
  Te  Te93  1  0.75517581  0.41217340  0.08070525  1
  Te  Te94  1  0.75141917  0.42788334  0.39696926  1
  Te  Te95  1  0.73364102  0.44745512  0.75836103  1
  Te  Te96  1  0.73308274  0.72714749  0.05562109  1
  Te  Te97  1  0.74375902  0.75387084  0.40235083  1
  Te  Te98  1  0.74318618  0.77729260  0.74384342  1
  Te  Te99  1  0.10958695  0.25890343  0.25107522  1
  Te  Te100  1  0.08966845  0.24045684  0.58753341  1
  Te  Te101  1  0.07243878  0.24612742  0.92663736  1
  Te  Te102  1  0.10011406  0.61082680  0.28456149  1
  Te  Te103  1  0.07066331  0.57485590  0.56588626  1
  Te  Te104  1  0.08639896  0.59914238  0.92471058  1
  Te  Te105  1  0.08193937  0.90211708  0.25489048  1
  Te  Te106  1  0.08703121  0.88023015  0.57949122  1
  Te  Te107  1  0.10421464  0.90202781  0.90984296  1
  Te  Te108  1  0.41713786  0.26986543  0.24767067  1
  Te  Te109  1  0.40951652  0.25111323  0.59199359  1
  Te  Te110  1  0.41743054  0.22575784  0.90919483  1
  Te  Te111  1  0.41555640  0.59144703  0.25409167  1
  Te  Te112  1  0.43792921  0.58356091  0.61399070  1
  Te  Te113  1  0.44883070  0.63247398  0.90000030  1
  Te  Te114  1  0.42074800  0.92588444  0.25247531  1
  Te  Te115  1  0.37638474  0.88409954  0.49251541  1
  Te  Te116  1  0.40822645  0.89776457  0.91908893  1
  Te  Te117  1  0.72520514  0.22262249  0.28786958  1
  Te  Te118  1  0.73364156  0.23757532  0.55879307  1
  Te  Te119  1  0.77300662  0.23339097  0.91905931  1
  Te  Te120  1  0.76791496  0.58150507  0.24308529  1
  Te  Te121  1  0.75448888  0.60105943  0.58733368  1
  Te  Te122  1  0.72533673  0.58558893  0.90481652  1
  Te  Te123  1  0.75884643  0.91512496  0.25242528  1
  Te  Te124  1  0.74993798  0.91336819  0.59395404  1
  Te  Te125  1  0.73033193  0.89829991  0.89070606  1
  Te  Te126  1  0.24646084  0.26553346  0.08424099  1
  Te  Te127  1  0.26033537  0.27264216  0.39301363  1
  Te  Te128  1  0.26380600  0.21843993  0.76468126  1
  Te  Te129  1  0.25518385  0.57897832  0.09243835  1
  Te  Te130  1  0.24803838  0.57228086  0.40852167  1
  Te  Te131  1  0.25686656  0.57524793  0.77396889  1
  Te  Te132  1  0.23971486  0.91998248  0.07688448  1
  Te  Te133  1  0.23378377  0.87870726  0.40709025  1
  Te  Te134  1  0.28111351  0.94195207  0.74778339  1
  Te  Te135  1  0.59805525  0.23976070  0.07674559  1
  Te  Te136  1  0.59626205  0.25973364  0.39939976  1
  Te  Te137  1  0.58686302  0.26368753  0.73858667  1
  Te  Te138  1  0.57871543  0.59003288  0.06374724  1
  Te  Te139  1  0.56688594  0.60001071  0.43042113  1
  Te  Te140  1  0.55271771  0.61113137  0.78248618  1
  Te  Te141  1  0.59421342  0.90840338  0.07130991  1
  Te  Te142  1  0.57698738  0.93966985  0.44222029  1
  Te  Te143  1  0.54362483  0.89678515  0.71303366  1
  Te  Te144  1  0.89908974  0.23678146  0.09080695  1
  Te  Te145  1  0.91133920  0.24296464  0.39738654  1
  Te  Te146  1  0.92610979  0.26733896  0.73007932  1
  Te  Te147  1  0.92863354  0.57665626  0.07781730  1
  Te  Te148  1  0.91758383  0.63274107  0.43613580  1
  Te  Te149  1  0.91868153  0.58700288  0.74747312  1
  Te  Te150  1  0.91055655  0.90493339  0.10335851  1
  Te  Te151  1  0.94259622  0.92138534  0.43060701  1
  Te  Te152  1  0.91823559  0.89183715  0.72734642  1
  Te  Te153  1  0.26019941  0.08210088  0.27186692  1
  Te  Te154  1  0.26435286  0.05150109  0.58141286  1
  Te  Te155  1  0.25376539  0.06515799  0.90870853  1
  Te  Te156  1  0.22031371  0.38718724  0.27417423  1
  Te  Te157  1  0.25086740  0.41156330  0.57701184  1
  Te  Te158  1  0.25285807  0.40901237  0.91211508  1
  Te  Te159  1  0.21655843  0.73163443  0.23141091  1
  Te  Te160  1  0.24937578  0.73594154  0.60336710  1
  Te  Te161  1  0.30115868  0.77245976  0.93061181  1
  Te  Te162  1  0.59893113  0.09835167  0.22675094  1
  Te  Te163  1  0.58592757  0.09719867  0.58024051  1
  Te  Te164  1  0.59740786  0.06863112  0.93189767  1
  Te  Te165  1  0.59619632  0.40674489  0.25077830  1
  Te  Te166  1  0.57948245  0.43076081  0.58450774  1
  Te  Te167  1  0.57268561  0.42844558  0.92268990  1
  Te  Te168  1  0.57209306  0.77346216  0.26314542  1
  Te  Te169  1  0.56419345  0.74204030  0.58640542  1
  Te  Te170  1  0.56203754  0.74212372  0.87201022  1
  Te  Te171  1  0.89751222  0.08129702  0.24772534  1
  Te  Te172  1  0.91408231  0.07383884  0.58596978  1
  Te  Te173  1  0.91574506  0.06761365  0.93102273  1
  Te  Te174  1  0.90626333  0.41420426  0.23694743  1
  Te  Te175  1  0.92907796  0.41337714  0.56486663  1
  Te  Te176  1  0.91895577  0.41307906  0.90508844  1
  Te  Te177  1  0.94281075  0.73806193  0.24934750  1
  Te  Te178  1  0.89522443  0.74772568  0.53918395  1
  Te  Te179  1  0.91718296  0.74606977  0.92779232  1
