# generated using pymatgen
data_In2Te3
_symmetry_space_group_name_H-M   'P 1'
_cell_length_a   18.96530512
_cell_length_b   18.96115433
_cell_length_c   18.96286548
_cell_angle_alpha   89.72909561
_cell_angle_beta   89.93364274
_cell_angle_gamma   89.95688966
_symmetry_Int_Tables_number   1
_chemical_formula_structural   In2Te3
_chemical_formula_sum   'In72 Te108'
_cell_volume   6819.04104646
_cell_formula_units_Z   36
loop_
 _symmetry_equiv_pos_site_id
 _symmetry_equiv_pos_as_xyz
  1  'x, y, z'
loop_
 _atom_site_type_symbol
 _atom_site_label
 _atom_site_symmetry_multiplicity
 _atom_site_fract_x
 _atom_site_fract_y
 _atom_site_fract_z
 _atom_site_occupancy
  In  In0  1  0.66901226  0.49994011  0.82491199  1
  In  In1  1  0.17363314  0.49381430  0.69478067  1
  In  In2  1  0.80431952  -0.02029041  0.47583601  1
  In  In3  1  0.33623089  0.64551694  0.34221878  1
  In  In4  1  0.49157085  0.67013951  0.14999573  1
  In  In5  1  0.82536020  0.35005351  0.51710934  1
  In  In6  1  0.34955108  -0.02343668  0.67407823  1
  In  In7  1  0.36735028  0.65798017  0.65426218  1
  In  In8  1  0.80567470  0.74902568  0.66299655  1
  In  In9  1  0.28790740  0.50659401  0.17365720  1
  In  In10  1  0.68223860  0.64560914  0.31340195  1
  In  In11  1  0.52650119  0.82624774  0.63766767  1
  In  In12  1  0.51704375  0.49205259  0.62777299  1
  In  In13  1  0.82303668  0.47441358  0.31780717  1
  In  In14  1  0.84097273  0.01867896  0.85390982  1
  In  In15  1  0.17885444  0.18038156  0.34601115  1
  In  In16  1  0.14823444  -0.01557583  0.18404719  1
  In  In17  1  -0.02608885  0.83318868  0.84124073  1
  In  In18  1  0.65907857  0.80416591  0.47908143  1
  In  In19  1  0.51961868  0.02009059  0.49181155  1
  In  In20  1  0.82589472  0.19792235  0.28497420  1
  In  In21  1  0.68045187  0.82817706  0.15295837  1
  In  In22  1  0.34086737  0.00343113  0.02256372  1
  In  In23  1  -0.02029334  0.35799517  0.63323959  1
  In  In24  1  0.49443270  0.03692709  0.85526545  1
  In  In25  1  0.51314613  0.34230495  0.16016903  1
  In  In26  1  -0.01746307  -0.00800591  0.00604785  1
  In  In27  1  -0.01311566  0.16051008  0.47031527  1
  In  In28  1  0.17722041  0.51585308  -0.01370494  1
  In  In29  1  0.32042625  0.80819217  0.48981142  1
  In  In30  1  0.52751463  0.17655741  0.69287367  1
  In  In31  1  0.48719678  0.84504989  0.33242850  1
  In  In32  1  0.17315646  -0.02916478  0.49761021  1
  In  In33  1  0.50753156  0.66789309  0.84895950  1
  In  In34  1  0.67243228  0.66190601  -0.00241979  1
  In  In35  1  0.51004593  0.48277372  0.34382234  1
  In  In36  1  0.35145327  0.31529064  -0.01064844  1
  In  In37  1  0.34159725  0.31294299  0.66603047  1
  In  In38  1  0.53137240  0.03228655  0.18573092  1
  In  In39  1  0.68442861  0.00707886  0.02362250  1
  In  In40  1  0.16252298  0.17181190  0.01443816  1
  In  In41  1  0.81731426  0.17652938  0.65755319  1
  In  In42  1  -0.00660557  0.35970917  0.31120605  1
  In  In43  1  -0.00751487  0.64907235  0.67818489  1
  In  In44  1  0.02456258  0.79273059  0.14698307  1
  In  In45  1  0.82624142  0.65663031  0.85178801  1
  In  In46  1  0.16488730  0.16723619  0.67563451  1
  In  In47  1  0.16141648  0.67725608  0.82688112  1
  In  In48  1  0.85164190  0.83016413  0.31170580  1
  In  In49  1  0.64551083  0.86740830  0.86002731  1
  In  In50  1  0.34646074  0.17375802  0.14531924  1
  In  In51  1  0.69272408  -0.00578873  0.67612607  1
  In  In52  1  0.33935836  0.36206755  0.30826374  1
  In  In53  1  0.00012465  -0.01032196  0.64958465  1
  In  In54  1  0.36976045  0.15913508  0.53362130  1
  In  In55  1  0.31693336  0.82965042  0.83737847  1
  In  In56  1  -0.01202265  0.17992035  0.86033986  1
  In  In57  1  0.83663867  0.00568599  0.17084534  1
  In  In58  1  0.68345484  0.19879028  0.47335177  1
  In  In59  1  0.35330880  0.47979038  0.85079080  1
  In  In60  1  0.66727418  0.34957538  0.01096623  1
  In  In61  1  0.17192689  0.01789587  0.85601005  1
  In  In62  1  0.10204690  0.34767298  0.14424165  1
  In  In63  1  0.31750442  0.00093466  0.35204549  1
  In  In64  1  0.81046245  0.34265644  0.81778195  1
  In  In65  1  -0.01949381  0.45794932  0.84324780  1
  In  In66  1  0.18136689  0.65591141  0.50235891  1
  In  In67  1  0.49794338  0.50442860  0.00375704  1
  In  In68  1  0.15746913  0.34090601  0.48364250  1
  In  In69  1  0.31654122  0.82076519  0.18003933  1
  In  In70  1  -0.00259330  0.79763783  0.47869649  1
  In  In71  1  0.00823169  0.60215298  0.17224429  1
  Te  Te72  1  0.07183641  0.07866612  0.09292064  1
  Te  Te73  1  0.09431224  0.07017513  0.41192872  1
  Te  Te74  1  0.06219971  0.07799440  0.75946440  1
  Te  Te75  1  0.06849636  0.48313738  0.08680952  1
  Te  Te76  1  0.06701890  0.43947764  0.41577709  1
  Te  Te77  1  0.07657633  0.38969523  0.74651286  1
  Te  Te78  1  0.12178210  0.71260404  0.06906677  1
  Te  Te79  1  0.08100198  0.70228292  0.39966344  1
  Te  Te80  1  0.06691557  0.76278645  0.74412586  1
  Te  Te81  1  0.45079999  0.09770193  0.06883889  1
  Te  Te82  1  0.42208863  0.09668481  0.40448779  1
  Te  Te83  1  0.40583778  0.09453226  0.74634261  1
  Te  Te84  1  0.39545416  0.42669921  0.08721430  1
  Te  Te85  1  0.41580502  0.40403089  0.42452862  1
  Te  Te86  1  0.42400158  0.42220869  0.73244072  1
  Te  Te87  1  0.40557183  0.76452067  0.07909240  1
  Te  Te88  1  0.43374171  0.73551006  0.42257067  1
  Te  Te89  1  0.42838592  0.76528798  0.75029372  1
  Te  Te90  1  0.73560424  0.10313452  0.12250657  1
  Te  Te91  1  0.76577394  0.09904903  0.39383611  1
  Te  Te92  1  0.74456007  0.10238973  0.76895198  1
  Te  Te93  1  0.76235717  0.38195675  0.12244548  1
  Te  Te94  1  0.72859219  0.41824660  0.42219926  1
  Te  Te95  1  0.73982832  0.42549712  0.72002993  1
  Te  Te96  1  0.76979843  0.73027617  0.08704649  1
  Te  Te97  1  0.76838507  0.73648018  0.40114426  1
  Te  Te98  1  0.72494887  0.75366863  0.79109002  1
  Te  Te99  1  0.07164537  0.23830828  0.25665857  1
  Te  Te100  1  0.07343960  0.23794510  0.56951120  1
  Te  Te101  1  0.08197267  0.26376428  0.93270835  1
  Te  Te102  1  0.11781171  0.61641190  0.27261557  1
  Te  Te103  1  0.09120161  0.57097850  0.59441271  1
  Te  Te104  1  0.07388925  0.57220386  0.89040539  1
  Te  Te105  1  0.06815546  0.88532405  0.25375656  1
  Te  Te106  1  0.07965097  0.88271384  0.57731424  1
  Te  Te107  1  0.07821173  0.91503588  0.91872687  1
  Te  Te108  1  0.42261012  0.25170046  0.24906190  1
  Te  Te109  1  0.46608130  0.26253512  0.58343302  1
  Te  Te110  1  0.44934656  0.26405208  0.89528352  1
  Te  Te111  1  0.42059796  0.56669539  0.23760656  1
  Te  Te112  1  0.40969104  0.56296390  0.55243935  1
  Te  Te113  1  0.40197882  0.59883352  0.93303388  1
  Te  Te114  1  0.41000814  0.93970421  0.24215197  1
  Te  Te115  1  0.41770309  0.91600446  0.55236186  1
  Te  Te116  1  0.41133083  0.92414906  0.91379809  1
  Te  Te117  1  0.71941228  0.29281243  0.24057436  1
  Te  Te118  1  0.71821066  0.27487296  0.60058028  1
  Te  Te119  1  0.75638904  0.26247490  0.92979880  1
  Te  Te120  1  0.76181087  0.56725942  0.22026681  1
  Te  Te121  1  0.74070881  0.63486937  0.60347146  1
  Te  Te122  1  0.75669266  0.55073924  0.93725445  1
  Te  Te123  1  0.74145598  0.91847703  0.25608878  1
  Te  Te124  1  0.75016125  0.88608786  0.58406628  1
  Te  Te125  1  0.76786341  0.91195491  0.93512409  1
  Te  Te126  1  0.24030680  0.27342446  0.10153206  1
  Te  Te127  1  0.26966221  0.24275924  0.44784977  1
  Te  Te128  1  0.25225202  0.24423787  0.76130488  1
  Te  Te129  1  0.24339249  0.61402151  0.07954970  1
  Te  Te130  1  0.26725114  0.55563272  0.43631347  1
  Te  Te131  1  0.27473220  0.58673177  0.76149764  1
  Te  Te132  1  0.23696426  0.91255533  0.08463040  1
  Te  Te133  1  0.23211607  0.88124831  0.39013370  1
  Te  Te134  1  0.23127175  0.92246116  0.75125450  1
  Te  Te135  1  0.56459023  0.25288731  0.05696565  1
  Te  Te136  1  0.57608635  0.22913180  0.38076651  1
  Te  Te137  1  0.56961566  0.26721267  0.79793670  1
  Te  Te138  1  0.59536376  0.57258821  0.09570234  1
  Te  Te139  1  0.58909670  0.58788088  0.41474885  1
  Te  Te140  1  0.56939518  0.58259083  0.74414501  1
  Te  Te141  1  0.57751935  0.92151658  0.09171521  1
  Te  Te142  1  0.59588437  0.92408574  0.40381299  1
  Te  Te143  1  0.56832795  0.93346898  0.73970661  1
  Te  Te144  1  0.96926462  0.28290054  0.12584198  1
  Te  Te145  1  0.90558303  0.27420884  0.41021914  1
  Te  Te146  1  0.92309677  0.24993594  0.73523327  1
  Te  Te147  1  0.91158777  0.63512670  0.06292242  1
  Te  Te148  1  0.93351548  0.52213873  0.40248895  1
  Te  Te149  1  0.90200319  0.56124166  0.76150378  1
  Te  Te150  1  0.91549732  0.89686419  0.09946830  1
  Te  Te151  1  0.92682624  0.91767194  0.41423317  1
  Te  Te152  1  0.89958506  0.92663160  0.74655625  1
  Te  Te153  1  0.25292651  0.09204520  0.23937384  1
  Te  Te154  1  0.24861868  0.06944540  0.58443984  1
  Te  Te155  1  0.27058165  0.10389513  0.93077474  1
  Te  Te156  1  0.20903700  0.41081416  0.25768705  1
  Te  Te157  1  0.24257264  0.40498442  0.59336433  1
  Te  Te158  1  0.24344364  0.39919657  0.91521920  1
  Te  Te159  1  0.23645260  0.71889505  0.25681736  1
  Te  Te160  1  0.25168839  0.74587913  0.60759447  1
  Te  Te161  1  0.22591137  0.75972813  0.93053906  1
  Te  Te162  1  0.60274433  0.12830377  0.26871685  1
  Te  Te163  1  0.61388018  0.08995708  0.58481668  1
  Te  Te164  1  0.61810678  0.08344578  0.91484657  1
  Te  Te165  1  0.60594712  0.41126122  0.25394265  1
  Te  Te166  1  0.62018038  0.46468850  0.52471822  1
  Te  Te167  1  0.56974285  0.41670151  0.90514019  1
  Te  Te168  1  0.57794803  0.75350287  0.25052283  1
  Te  Te169  1  0.60554420  0.70979551  0.58489930  1
  Te  Te170  1  0.57163878  0.76475489  0.94547878  1
  Te  Te171  1  0.92001097  0.08845649  0.25910426  1
  Te  Te172  1  0.89670869  0.07876859  0.57195517  1
  Te  Te173  1  0.89787729  0.11066212  0.96089077  1
  Te  Te174  1  0.90229980  0.40119474  0.19486029  1
  Te  Te175  1  0.90759044  0.46599482  0.56159522  1
  Te  Te176  1  0.89742562  0.37758282  0.93476930  1
  Te  Te177  1  0.93088644  0.72057369  0.24728689  1
  Te  Te178  1  0.91260614  0.70216964  0.55957247  1
  Te  Te179  1  0.92667335  0.72834665  0.93856978  1
