# generated using pymatgen
data_In2Te3
_symmetry_space_group_name_H-M   'P 1'
_cell_length_a   19.03653938
_cell_length_b   19.02308894
_cell_length_c   19.01848985
_cell_angle_alpha   89.96635049
_cell_angle_beta   90.01832385
_cell_angle_gamma   89.91411779
_symmetry_Int_Tables_number   1
_chemical_formula_structural   In2Te3
_chemical_formula_sum   'In72 Te108'
_cell_volume   6887.22837271
_cell_formula_units_Z   36
loop_
 _symmetry_equiv_pos_site_id
 _symmetry_equiv_pos_as_xyz
  1  'x, y, z'
loop_
 _atom_site_type_symbol
 _atom_site_label
 _atom_site_symmetry_multiplicity
 _atom_site_fract_x
 _atom_site_fract_y
 _atom_site_fract_z
 _atom_site_occupancy
  In  In0  1  0.82872329  0.51251238  0.01257063  1
  In  In1  1  0.50557980  0.83801376  0.02936082  1
  In  In2  1  -0.00345628  0.33996191  0.31731095  1
  In  In3  1  0.50106998  0.86505703  0.64744236  1
  In  In4  1  0.02326413  0.14045011  0.49568161  1
  In  In5  1  0.15473457  0.82096356  0.32430191  1
  In  In6  1  0.83413241  0.68127485  0.49145431  1
  In  In7  1  0.15060416  0.17557528  -0.01026628  1
  In  In8  1  0.01920139  0.49795505  0.17208875  1
  In  In9  1  0.17734255  0.51273936  0.64832696  1
  In  In10  1  -0.01034495  0.76244016  0.70547264  1
  In  In11  1  0.34738542  -0.00095956  0.33884649  1
  In  In12  1  0.16398409  0.32404390  0.83203900  1
  In  In13  1  0.12129901  0.69343923  0.13685428  1
  In  In14  1  0.32840009  0.32623832  0.33731545  1
  In  In15  1  0.68958830  -0.00265959  0.35647273  1
  In  In16  1  0.34040824  0.84567073  0.17138281  1
  In  In17  1  0.82870629  0.67578045  0.16340049  1
  In  In18  1  0.52106877  0.66057033  0.50844271  1
  In  In19  1  -0.01562904  0.52662248  0.82004684  1
  In  In20  1  0.65505675  0.64667002  -0.00255721  1
  In  In21  1  0.34176472  0.17617393  0.83167479  1
  In  In22  1  0.83211993  0.17011802  0.32895179  1
  In  In23  1  0.33067605  0.52328712  0.16366690  1
  In  In24  1  0.66855683  0.50150889  0.15989545  1
  In  In25  1  0.15382363  0.48356589  -0.02931302  1
  In  In26  1  0.51543483  0.32331246  0.15946771  1
  In  In27  1  0.33881602  -0.00547700  0.01430836  1
  In  In28  1  0.68350630  0.16334961  0.15612979  1
  In  In29  1  0.83575640  0.34818835  0.49859129  1
  In  In30  1  0.14810232  -0.00917537  0.83617328  1
  In  In31  1  -0.00894672  -0.03789182  0.36725405  1
  In  In32  1  0.17904129  0.32502917  0.49505806  1
  In  In33  1  0.83635407  0.34895198  0.83572539  1
  In  In34  1  0.00060279  0.34491337  0.64238199  1
  In  In35  1  -0.02021964  -0.00086674  -0.00865868  1
  In  In36  1  0.48795954  0.31825203  0.52057637  1
  In  In37  1  0.65768929  0.15722296  0.82087723  1
  In  In38  1  0.69165878  0.83092073  0.50070450  1
  In  In39  1  0.83043865  0.15466916  -0.00880111  1
  In  In40  1  0.48883500  0.67214831  0.83354882  1
  In  In41  1  0.65227733  0.16252282  0.50540338  1
  In  In42  1  -0.00371721  0.16137788  0.17511040  1
  In  In43  1  0.34166013  0.48861804  0.51145916  1
  In  In44  1  0.50219604  0.01791922  0.17949952  1
  In  In45  1  0.49838113  0.12667970  0.66012294  1
  In  In46  1  0.70327444  0.81179743  0.80137978  1
  In  In47  1  0.85119845  0.15878266  0.66966466  1
  In  In48  1  0.66364705  0.33636470  0.68715429  1
  In  In49  1  -0.02168594  0.66967831  0.32148174  1
  In  In50  1  0.51184700  0.67938166  0.18582668  1
  In  In51  1  0.66012971  0.50698474  0.83704895  1
  In  In52  1  0.01596302  -0.03189629  0.66896131  1
  In  In53  1  0.28022344  0.68990060  -0.02241757  1
  In  In54  1  0.18732704  0.00495331  0.52242531  1
  In  In55  1  0.00285400  0.50515696  0.49839738  1
  In  In56  1  0.16905456  0.66985974  0.49699103  1
  In  In57  1  0.33623281  0.67084600  0.35965401  1
  In  In58  1  0.85120623  0.81637240  -0.01951956  1
  In  In59  1  0.81646253  0.34235651  0.14162980  1
  In  In60  1  0.51678988  -0.00485776  0.84479315  1
  In  In61  1  0.66975612  0.84543177  0.19180318  1
  In  In62  1  0.48933739  0.17292328  0.35564144  1
  In  In63  1  0.47694119  0.48453258  0.68901960  1
  In  In64  1  0.83082028  -0.00859270  0.82128337  1
  In  In65  1  0.17800044  0.33000251  0.17310381  1
  In  In66  1  0.34622005  0.82766929  0.51382001  1
  In  In67  1  0.47162984  0.47958207  -0.03175743  1
  In  In68  1  0.69041611  0.52056500  0.49257850  1
  In  In69  1  0.31862424  0.68716070  0.69167010  1
  In  In70  1  0.30719675  0.32152457  -0.01614563  1
  In  In71  1  0.17207621  -0.01862741  0.18604785  1
  Te  Te72  1  0.08360381  0.07129192  0.08733778  1
  Te  Te73  1  0.10361896  0.05733284  0.40102389  1
  Te  Te74  1  0.08255137  0.07827827  0.73971781  1
  Te  Te75  1  0.08394655  0.39956974  0.07742991  1
  Te  Te76  1  0.08842641  0.41608102  0.41142860  1
  Te  Te77  1  0.07954223  0.43033686  0.74062058  1
  Te  Te78  1  0.05721934  0.77786315  0.03406331  1
  Te  Te79  1  0.06484247  0.74782705  0.42013085  1
  Te  Te80  1  0.12134556  0.77471425  0.77571488  1
  Te  Te81  1  0.42669044  0.09035735  0.07882502  1
  Te  Te82  1  0.43757127  0.06229627  0.43542956  1
  Te  Te83  1  0.40777895  0.05870778  0.76084979  1
  Te  Te84  1  0.38989051  0.41035645  0.08280329  1
  Te  Te85  1  0.42569871  0.41011460  0.41494189  1
  Te  Te86  1  0.39896648  0.41877940  0.79122348  1
  Te  Te87  1  0.40558122  0.73669581  0.08219240  1
  Te  Te88  1  0.44170142  0.75822445  0.42064759  1
  Te  Te89  1  0.42330487  0.77821807  0.74880308  1
  Te  Te90  1  0.78228446  0.06906396  0.10026315  1
  Te  Te91  1  0.77234398  0.09215581  0.44281676  1
  Te  Te92  1  0.74282245  0.07204781  0.72819474  1
  Te  Te93  1  0.72054494  0.41316543  0.04855004  1
  Te  Te94  1  0.75267127  0.42039450  0.40547598  1
  Te  Te95  1  0.75960991  0.43964741  0.74306941  1
  Te  Te96  1  0.73209266  0.75264244  0.07364185  1
  Te  Te97  1  0.73060207  0.73143083  0.39781966  1
  Te  Te98  1  0.77210005  0.71011946  0.72401558  1
  Te  Te99  1  0.09409691  0.23878824  0.26142527  1
  Te  Te100  1  0.09282229  0.23944952  0.58650872  1
  Te  Te101  1  0.06140040  0.25814567  0.91080466  1
  Te  Te102  1  0.09409299  0.59908686  0.25431642  1
  Te  Te103  1  0.06928870  0.60399285  0.59094742  1
  Te  Te104  1  0.07390093  0.59596693  0.91636764  1
  Te  Te105  1  0.05841661  0.89777898  0.23842093  1
  Te  Te106  1  0.08713281  0.90599361  0.55557645  1
  Te  Te107  1  0.06882653  0.90063723  0.92566558  1
  Te  Te108  1  0.41510868  0.24425257  0.24526799  1
  Te  Te109  1  0.40397229  0.21806363  0.58800920  1
  Te  Te110  1  0.42052738  0.24609632  0.93114154  1
  Te  Te111  1  0.42198434  0.58615300  0.26632799  1
  Te  Te112  1  0.40314145  0.60035841  0.59114567  1
  Te  Te113  1  0.39050277  0.59872300  0.91902102  1
  Te  Te114  1  0.44520031  0.90308269  0.25922893  1
  Te  Te115  1  0.39375364  0.94390410  0.58768732  1
  Te  Te116  1  0.42114149  0.90526459  0.92412895  1
  Te  Te117  1  0.74629064  0.26505826  0.25135792  1
  Te  Te118  1  0.75152438  0.25464282  0.59247903  1
  Te  Te119  1  0.74832234  0.24861849  0.90458892  1
  Te  Te120  1  0.74203311  0.59156833  0.24591831  1
  Te  Te121  1  0.74915816  0.61180381  0.59333319  1
  Te  Te122  1  0.76356384  0.59752196  0.90565428  1
  Te  Te123  1  0.77151355  0.91738660  0.26633541  1
  Te  Te124  1  0.79876500  0.89189490  0.58496578  1
  Te  Te125  1  0.74654287  0.90642215  0.91236791  1
  Te  Te126  1  0.25025642  0.22821160  0.09012394  1
  Te  Te127  1  0.25905040  0.22218374  0.42021202  1
  Te  Te128  1  0.23624417  0.23075512  0.74783063  1
  Te  Te129  1  0.22004034  0.58082711  0.07612119  1
  Te  Te130  1  0.24629192  0.56561896  0.42118281  1
  Te  Te131  1  0.23474710  0.58874766  0.75887421  1
  Te  Te132  1  0.23682464  0.89918090  0.07632676  1
  Te  Te133  1  0.25542149  0.89683457  0.40669486  1
  Te  Te134  1  0.22298093  0.89045154  0.75438426  1
  Te  Te135  1  0.59301280  0.23939849  0.07056616  1
  Te  Te136  1  0.58981465  0.26783202  0.41890559  1
  Te  Te137  1  0.56052159  0.24214923  0.74187690  1
  Te  Te138  1  0.54837818  0.57492518  0.07362745  1
  Te  Te139  1  0.56980004  0.55761859  0.41916705  1
  Te  Te140  1  0.57408828  0.58808827  0.74164777  1
  Te  Te141  1  0.59873319  0.93668650  0.09305014  1
  Te  Te142  1  0.59491927  0.92781131  0.44495372  1
  Te  Te143  1  0.60390728  0.91339207  0.74937251  1
  Te  Te144  1  0.91650126  0.24724482  0.08011552  1
  Te  Te145  1  0.93003335  0.25198531  0.42509723  1
  Te  Te146  1  0.92601007  0.26397244  0.74622973  1
  Te  Te147  1  0.93185111  0.59057716  0.08965463  1
  Te  Te148  1  0.90345696  0.57205168  0.40801531  1
  Te  Te149  1  0.91498284  0.63640572  0.74219071  1
  Te  Te150  1  0.88356915  0.92484143  0.07499165  1
  Te  Te151  1  0.88394350  0.89968972  0.44955503  1
  Te  Te152  1  0.92793859  0.88895780  0.76426375  1
  Te  Te153  1  0.27170823  0.07298456  0.23795410  1
  Te  Te154  1  0.27144754  0.12325742  0.54015863  1
  Te  Te155  1  0.24688642  0.07841549  0.92329934  1
  Te  Te156  1  0.25157333  0.43095185  0.25653661  1
  Te  Te157  1  0.26235075  0.39654009  0.60006958  1
  Te  Te158  1  0.26997519  0.43095926  0.88007570  1
  Te  Te159  1  0.25912354  0.74092452  0.24746350  1
  Te  Te160  1  0.23310605  0.76565455  0.59314049  1
  Te  Te161  1  0.24591520  0.78874390  0.87279464  1
  Te  Te162  1  0.59728264  0.09562411  0.27058138  1
  Te  Te163  1  0.59654360  0.05021235  0.58038157  1
  Te  Te164  1  0.60250845  0.07715053  0.92914207  1
  Te  Te165  1  0.57709599  0.42427829  0.24316221  1
  Te  Te166  1  0.57730916  0.42131027  0.59474573  1
  Te  Te167  1  0.57103710  0.40558803  0.89225745  1
  Te  Te168  1  0.60552190  0.74419732  0.27948221  1
  Te  Te169  1  0.59464473  0.75764416  0.59661977  1
  Te  Te170  1  0.58248427  0.75538883  0.91870219  1
  Te  Te171  1  0.92783746  0.06919938  0.27224926  1
  Te  Te172  1  0.92586508  0.06471500  0.58110397  1
  Te  Te173  1  0.92156925  0.09209882  0.88720618  1
  Te  Te174  1  0.90330217  0.42559491  0.23712525  1
  Te  Te175  1  0.90035871  0.44722707  0.59367384  1
  Te  Te176  1  0.92374731  0.43218942  0.92546909  1
  Te  Te177  1  0.91100174  0.77041781  0.23942903  1
  Te  Te178  1  0.91078713  0.79035739  0.56772314  1
  Te  Te179  1  0.95255811  0.71803608  0.93873254  1
