# generated using pymatgen
data_In2Te3
_symmetry_space_group_name_H-M   'P 1'
_cell_length_a   18.80243458
_cell_length_b   18.80350324
_cell_length_c   18.80098397
_cell_angle_alpha   89.97740228
_cell_angle_beta   90.03757034
_cell_angle_gamma   89.99482053
_symmetry_Int_Tables_number   1
_chemical_formula_structural   In2Te3
_chemical_formula_sum   'In72 Te108'
_cell_volume   6647.11673276
_cell_formula_units_Z   36
loop_
 _symmetry_equiv_pos_site_id
 _symmetry_equiv_pos_as_xyz
  1  'x, y, z'
loop_
 _atom_site_type_symbol
 _atom_site_label
 _atom_site_symmetry_multiplicity
 _atom_site_fract_x
 _atom_site_fract_y
 _atom_site_fract_z
 _atom_site_occupancy
  In  In0  1  0.82958660  0.17599478  0.32591792  1
  In  In1  1  0.21076822  0.36736905  0.85672689  1
  In  In2  1  0.82198418  0.66123281  0.16802606  1
  In  In3  1  0.14604112  0.00437217  0.17684272  1
  In  In4  1  0.18646173  0.65525184  0.51088707  1
  In  In5  1  0.35578732  -0.00135502  0.34436359  1
  In  In6  1  0.66891184  0.51197757  0.48621786  1
  In  In7  1  0.50403664  0.34098223  0.16269599  1
  In  In8  1  0.82954765  0.31474125  0.85061412  1
  In  In9  1  0.34690235  0.15809375  0.49441675  1
  In  In10  1  0.81365428  0.15078089  0.65945151  1
  In  In11  1  0.65874162  0.16302562  0.51489758  1
  In  In12  1  0.80007298  0.83052120  0.34086874  1
  In  In13  1  0.64395014  0.50017535  0.82724850  1
  In  In14  1  0.66857874  0.49732140  0.16624139  1
  In  In15  1  0.34520861  0.64685680  -0.00245401  1
  In  In16  1  0.32828758  0.84411068  0.18425636  1
  In  In17  1  0.83777368  0.81857071  0.67921251  1
  In  In18  1  0.01573738  0.32802793  0.34515904  1
  In  In19  1  -0.00489916  0.18167588  0.20035742  1
  In  In20  1  0.01510161  -0.00470404  0.31484273  1
  In  In21  1  0.65137044  0.80818066  0.18221094  1
  In  In22  1  0.16475059  0.65816830  0.81295706  1
  In  In23  1  0.01013458  0.50198432  0.16125918  1
  In  In24  1  0.65991697  0.32145989  0.67744424  1
  In  In25  1  -0.00397261  0.85710619  0.16760049  1
  In  In26  1  0.82716697  0.66465253  0.83126670  1
  In  In27  1  0.17671079  -0.00868314  0.47509312  1
  In  In28  1  0.19822770  0.67995861  0.16707540  1
  In  In29  1  0.34372283  0.04177987  0.00920607  1
  In  In30  1  0.17194536  0.35430549  0.51457064  1
  In  In31  1  0.83138414  0.51107444  0.64901942  1
  In  In32  1  0.15084117  0.83755780  -0.00076121  1
  In  In33  1  0.34099901  -0.02357451  0.65283590  1
  In  In34  1  0.16042397  0.16724349  0.33110617  1
  In  In35  1  0.18506825  0.17396964  0.01109885  1
  In  In36  1  0.82057252  0.50687518  0.33096690  1
  In  In37  1  0.51869009  0.32757039  0.49060181  1
  In  In38  1  0.50744804  0.17129850  0.66635325  1
  In  In39  1  0.34846161  0.35192677  0.32259818  1
  In  In40  1  0.18579369  0.49988351  0.34119804  1
  In  In41  1  0.00617270  0.49419519  0.82764572  1
  In  In42  1  0.00265136  0.81551155  0.51778321  1
  In  In43  1  0.67059982  0.00322460  0.00212136  1
  In  In44  1  0.49738544  0.82236597  0.63362292  1
  In  In45  1  0.66212164  0.81816610  0.49229642  1
  In  In46  1  0.00987664  0.33583377  -0.00771467  1
  In  In47  1  0.81041946  -0.01654721  0.81658344  1
  In  In48  1  0.52081421  0.82455393  -0.01909497  1
  In  In49  1  0.16624669  0.00554963  0.86833176  1
  In  In50  1  -0.00575229  0.66564018  0.35988021  1
  In  In51  1  0.85039873  0.00334961  0.50181733  1
  In  In52  1  0.80801141  0.32724737  0.17224642  1
  In  In53  1  0.50084109  0.00111058  0.81962957  1
  In  In54  1  0.18117149  0.19626788  0.68757950  1
  In  In55  1  -0.00457991  -0.01734401  -0.00957321  1
  In  In56  1  0.66410308  0.00324223  0.67564508  1
  In  In57  1  0.49022305  0.49202617  -0.02127075  1
  In  In58  1  -0.00196423  0.16166652  0.82415835  1
  In  In59  1  -0.00318864  0.36534218  0.64482030  1
  In  In60  1  0.49016642  0.51949085  0.33760620  1
  In  In61  1  0.35005492  0.82185315  0.82137922  1
  In  In62  1  -0.01392391  0.66138676  -0.02496349  1
  In  In63  1  0.80375265  0.16838091  0.00419349  1
  In  In64  1  0.63334328  -0.00289983  0.32399066  1
  In  In65  1  0.65787758  0.66546836  -0.00908296  1
  In  In66  1  0.35242152  0.18519217  0.16031123  1
  In  In67  1  0.48073213  0.19829988  -0.00515693  1
  In  In68  1  0.20305758  0.52187963  0.65942095  1
  In  In69  1  0.48912327  0.67617458  0.19486925  1
  In  In70  1  0.17016362  0.81165152  0.65907356  1
  In  In71  1  0.45904421  0.49390018  0.67423974  1
  Te  Te72  1  0.07231854  0.09281814  0.07505541  1
  Te  Te73  1  0.06789017  0.08979631  0.42251155  1
  Te  Te74  1  0.10065990  0.07886895  0.74920720  1
  Te  Te75  1  0.09738556  0.41759031  0.07743290  1
  Te  Te76  1  0.07756793  0.43949325  0.42992775  1
  Te  Te77  1  0.10413153  0.41062527  0.74616837  1
  Te  Te78  1  0.07119265  0.74261236  0.08844603  1
  Te  Te79  1  0.10344244  0.75155795  0.42310230  1
  Te  Te80  1  0.06797571  0.74073232  0.73834797  1
  Te  Te81  1  0.44784401  0.07295468  0.11628598  1
  Te  Te82  1  0.44923399  0.09583400  0.40812449  1
  Te  Te83  1  0.40199868  0.08569741  0.74108873  1
  Te  Te84  1  0.40326453  0.41388090  0.07618991  1
  Te  Te85  1  0.41544390  0.42653506  0.43623978  1
  Te  Te86  1  0.42238775  0.38699385  0.77263640  1
  Te  Te87  1  0.41356238  0.75895359  0.07850290  1
  Te  Te88  1  0.39414089  0.69061789  0.46390230  1
  Te  Te89  1  0.41470239  0.73287208  0.72378209  1
  Te  Te90  1  0.72976502  0.09201004  0.10537920  1
  Te  Te91  1  0.74299984  0.07017643  0.41587745  1
  Te  Te92  1  0.72500948  0.10433387  0.77247415  1
  Te  Te93  1  0.75327403  0.42117856  0.07350381  1
  Te  Te94  1  0.73778638  0.40958952  0.40522593  1
  Te  Te95  1  0.76172768  0.41711527  0.75055125  1
  Te  Te96  1  0.74863376  0.75615295  0.07451436  1
  Te  Te97  1  0.77135561  0.72717784  0.44178290  1
  Te  Te98  1  0.73269707  0.75005071  0.75529048  1
  Te  Te99  1  0.11035489  0.27318830  0.23342032  1
  Te  Te100  1  0.08300797  0.25132116  0.58356506  1
  Te  Te101  1  0.09884189  0.25159018  0.89805742  1
  Te  Te102  1  0.08760316  0.59596264  0.25616785  1
  Te  Te103  1  0.08682982  0.58496992  0.59412599  1
  Te  Te104  1  0.09768235  0.57213396  0.92192756  1
  Te  Te105  1  0.11213272  0.88750275  0.26658989  1
  Te  Te106  1  0.09297248  0.92005363  0.58266778  1
  Te  Te107  1  0.06268364  0.89301787  0.88719036  1
  Te  Te108  1  0.44111748  0.24517533  0.26885348  1
  Te  Te109  1  0.41599673  0.26041574  0.58312248  1
  Te  Te110  1  0.42249428  0.27846817  0.88585762  1
  Te  Te111  1  0.39380187  0.57209566  0.23696120  1
  Te  Te112  1  0.39782766  0.60851209  0.58677953  1
  Te  Te113  1  0.41937467  0.58443948  0.88438882  1
  Te  Te114  1  0.43897315  0.90833458  0.25877891  1
  Te  Te115  1  0.41339216  0.90832202  0.54323943  1
  Te  Te116  1  0.40573383  0.92427245  0.92337129  1
  Te  Te117  1  0.71984896  0.23484119  0.24580851  1
  Te  Te118  1  0.75828577  0.26343847  0.57408010  1
  Te  Te119  1  0.71547743  0.26271053  0.92995410  1
  Te  Te120  1  0.72113610  0.60307573  0.26457691  1
  Te  Te121  1  0.72823402  0.60109602  0.59122917  1
  Te  Te122  1  0.74893552  0.56737600  0.91960260  1
  Te  Te123  1  0.73850028  0.92298054  0.23930057  1
  Te  Te124  1  0.74612185  0.91821563  0.57828896  1
  Te  Te125  1  0.73094140  0.90440025  0.91048586  1
  Te  Te126  1  0.27321219  0.27511042  0.07248516  1
  Te  Te127  1  0.25097098  0.25751653  0.41416330  1
  Te  Te128  1  0.28265243  0.28871811  0.74870120  1
  Te  Te129  1  0.24435818  0.57300629  0.07696047  1
  Te  Te130  1  0.28400776  0.58418846  0.41852210  1
  Te  Te131  1  0.28029468  0.57064288  0.77810244  1
  Te  Te132  1  0.24540530  0.93302990  0.07389613  1
  Te  Te133  1  0.28056564  0.89834083  0.42764762  1
  Te  Te134  1  0.24463965  0.91826348  0.76037759  1
  Te  Te135  1  0.58888768  0.25516108  0.07699602  1
  Te  Te136  1  0.60419678  0.24419294  0.40423509  1
  Te  Te137  1  0.56328002  0.25950784  0.77329955  1
  Te  Te138  1  0.56696036  0.58716920  0.08901611  1
  Te  Te139  1  0.56465189  0.60766084  0.43313217  1
  Te  Te140  1  0.57180725  0.57672796  0.72385532  1
  Te  Te141  1  0.58025802  0.90786600  0.09100958  1
  Te  Te142  1  0.56356707  0.89132731  0.40567110  1
  Te  Te143  1  0.58074240  0.89708446  0.74606785  1
  Te  Te144  1  0.92022506  0.24704338  0.08260124  1
  Te  Te145  1  0.92491053  0.23841879  0.41944656  1
  Te  Te146  1  0.91897482  0.25992964  0.73729099  1
  Te  Te147  1  0.90666295  0.57521117  0.07561015  1
  Te  Te148  1  0.91074162  0.56878438  0.43282257  1
  Te  Te149  1  0.92701918  0.58943927  0.74094229  1
  Te  Te150  1  0.89710051  0.91977012  0.07932063  1
  Te  Te151  1  0.92516258  0.90545462  0.40741653  1
  Te  Te152  1  0.91498544  0.93856927  0.72266212  1
  Te  Te153  1  0.25860231  0.08555275  0.24447011  1
  Te  Te154  1  0.24507942  0.08771300  0.58409476  1
  Te  Te155  1  0.27106079  0.11445849  0.89833231  1
  Te  Te156  1  0.25086764  0.41948481  0.23616865  1
  Te  Te157  1  0.28251490  0.42344948  0.58271316  1
  Te  Te158  1  0.29967106  0.42850678  0.95774157  1
  Te  Te159  1  0.28426226  0.73445526  0.27394806  1
  Te  Te160  1  0.28516950  0.73699344  0.59592557  1
  Te  Te161  1  0.24733857  0.75113129  0.91868065  1
  Te  Te162  1  0.54089289  0.07878485  0.24442848  1
  Te  Te163  1  0.56380087  0.06055832  0.57620731  1
  Te  Te164  1  0.56560336  0.08698180  0.92543658  1
  Te  Te165  1  0.58387250  0.42032233  0.26611273  1
  Te  Te166  1  0.58145490  0.42396303  0.59417042  1
  Te  Te167  1  0.59513824  0.40124192  0.92687608  1
  Te  Te168  1  0.56821695  0.75421744  0.29479322  1
  Te  Te169  1  0.58802350  0.71740805  0.57561868  1
  Te  Te170  1  0.57363687  0.72699892  0.88556794  1
  Te  Te171  1  0.90529729  0.06724400  0.23816421  1
  Te  Te172  1  0.92883942  0.07735134  0.60386264  1
  Te  Te173  1  0.90334232  0.08310629  0.91410992  1
  Te  Te174  1  0.92057537  0.41063363  0.24938987  1
  Te  Te175  1  0.90115695  0.42432423  0.54975958  1
  Te  Te176  1  0.90831963  0.42510208  0.92184067  1
  Te  Te177  1  0.91395067  0.75148599  0.25271091  1
  Te  Te178  1  0.89223633  0.73239084  0.56945557  1
  Te  Te179  1  0.90155105  0.76393342  0.91434435  1
