# generated using pymatgen
data_In2Te3
_symmetry_space_group_name_H-M   'P 1'
_cell_length_a   19.00235949
_cell_length_b   19.05538617
_cell_length_c   19.00170353
_cell_angle_alpha   89.79482131
_cell_angle_beta   89.84272692
_cell_angle_gamma   90.04060808
_symmetry_Int_Tables_number   1
_chemical_formula_structural   In2Te3
_chemical_formula_sum   'In72 Te108'
_cell_volume   6880.39369348
_cell_formula_units_Z   36
loop_
 _symmetry_equiv_pos_site_id
 _symmetry_equiv_pos_as_xyz
  1  'x, y, z'
loop_
 _atom_site_type_symbol
 _atom_site_label
 _atom_site_symmetry_multiplicity
 _atom_site_fract_x
 _atom_site_fract_y
 _atom_site_fract_z
 _atom_site_occupancy
  In  In0  1  0.84418704  0.32267100  0.17109512  1
  In  In1  1  0.35191028  0.00250372  -0.01024383  1
  In  In2  1  0.51381636  0.33610889  0.53258067  1
  In  In3  1  0.66591072  0.34724784  0.70004923  1
  In  In4  1  -0.01463777  -0.01143456  0.35670282  1
  In  In5  1  0.67940135  0.85339963  0.16321219  1
  In  In6  1  0.67529209  -0.00523440  0.31818282  1
  In  In7  1  0.32100202  0.17940363  0.16761436  1
  In  In8  1  0.47491277  -0.00191133  0.37267119  1
  In  In9  1  0.50333254  0.51922186  0.33187628  1
  In  In10  1  0.48939742  0.48000502  0.01159695  1
  In  In11  1  0.52757115  -0.00157359  0.83129151  1
  In  In12  1  0.32185095  0.65994022  0.33098893  1
  In  In13  1  0.69148649  0.68431074  0.68219452  1
  In  In14  1  0.14330986  0.49072095  0.00993072  1
  In  In15  1  -0.00184689  0.33015268  0.33200100  1
  In  In16  1  0.33289733  0.51493975  0.48923839  1
  In  In17  1  0.50724457  0.14838805  0.65347969  1
  In  In18  1  0.36570411  0.16229141  0.84838607  1
  In  In19  1  0.49026022  0.67319511  0.17386506  1
  In  In20  1  0.83023280  0.36780904  0.91685552  1
  In  In21  1  0.85698015  0.16622450  0.33146162  1
  In  In22  1  0.67663004  0.67961477  0.32702578  1
  In  In23  1  0.83070331  0.69858067  0.84081629  1
  In  In24  1  0.15478241  -0.02992043  0.79467904  1
  In  In25  1  0.67580095  0.02439917  -0.01301833  1
  In  In26  1  0.14939195  0.48785584  0.65477432  1
  In  In27  1  0.33818424  0.50220467  0.86262136  1
  In  In28  1  0.46738773  -0.00216283  0.18800864  1
  In  In29  1  0.49363728  0.66807934  0.52104851  1
  In  In30  1  0.31252026  -0.01988277  0.64092724  1
  In  In31  1  0.11482595  0.34769226  0.83681917  1
  In  In32  1  0.82320371  0.66405522  0.18137597  1
  In  In33  1  0.67544367  0.44667253  0.14469775  1
  In  In34  1  0.00736999  0.16371988  0.82610737  1
  In  In35  1  0.81415627  0.69334590  0.49805326  1
  In  In36  1  0.81904841  0.18235807  0.01897271  1
  In  In37  1  -0.01014686  0.68201554  -0.00031981  1
  In  In38  1  0.19711074  0.15648324  -0.00421787  1
  In  In39  1  0.80935455  0.34774136  0.49450847  1
  In  In40  1  0.52116120  0.83003681  0.00645905  1
  In  In41  1  0.33227380  0.34083336  0.31531919  1
  In  In42  1  0.66617424  0.15996878  0.47941221  1
  In  In43  1  0.33071818  0.81976428  0.48753276  1
  In  In44  1  -0.02815683  -0.05856042  0.61194795  1
  In  In45  1  0.82803189  0.14779397  0.65597967  1
  In  In46  1  0.16515128  0.63824080  0.16630482  1
  In  In47  1  0.68149640  0.52018417  0.82725434  1
  In  In48  1  0.34167899  0.33789711  0.69668902  1
  In  In49  1  -0.03099892  0.81964078  0.17121553  1
  In  In50  1  0.15268269  0.81427384  0.64581730  1
  In  In51  1  0.65480265  0.32792874  0.34472166  1
  In  In52  1  0.52988376  0.21673344  0.02855194  1
  In  In53  1  0.17753326  0.84094488  -0.00570795  1
  In  In54  1  0.70438454  -0.02616115  0.63226637  1
  In  In55  1  0.01676541  -0.01701570  0.01450221  1
  In  In56  1  -0.04304209  0.67227436  0.65920991  1
  In  In57  1  0.34197821  0.66150517  0.68728210  1
  In  In58  1  0.15300930  0.34287576  0.20246374  1
  In  In59  1  0.18843251  -0.00249156  0.18831137  1
  In  In60  1  0.15817467  0.67867569  0.83227760  1
  In  In61  1  -0.03021953  0.53364303  0.48596851  1
  In  In62  1  0.49129941  0.82304624  0.67136929  1
  In  In63  1  0.65367446  0.66646846  -0.00247813  1
  In  In64  1  0.50834286  0.33546293  0.85594578  1
  In  In65  1  0.82461145  -0.00667283  0.83599629  1
  In  In66  1  -0.01114416  0.50741239  0.20565228  1
  In  In67  1  0.17347550  0.33459633  0.46808041  1
  In  In68  1  0.03302246  0.15821790  0.50128105  1
  In  In69  1  0.19884944  0.15456513  0.66480495  1
  In  In70  1  0.16307043  0.81300397  0.32502267  1
  In  In71  1  -0.01591868  0.34064225  0.64502210  1
  Te  Te72  1  0.10613878  0.07882860  0.09041711  1
  Te  Te73  1  0.09103240  0.09058670  0.38571833  1
  Te  Te74  1  0.07899944  0.07914087  0.72284201  1
  Te  Te75  1  0.05665324  0.41372220  0.10863302  1
  Te  Te76  1  0.06712918  0.42855871  0.42456890  1
  Te  Te77  1  0.03678151  0.44258775  0.74575393  1
  Te  Te78  1  0.08998754  0.75611707  0.08923600  1
  Te  Te79  1  0.10240468  0.70246923  0.39929379  1
  Te  Te80  1  0.05927968  0.75115609  0.74544111  1
  Te  Te81  1  0.42178237  0.10376044  0.07587634  1
  Te  Te82  1  0.37691319  0.10717792  0.39108904  1
  Te  Te83  1  0.41190923  0.06402449  0.74023628  1
  Te  Te84  1  0.42402130  0.36688396  0.07800387  1
  Te  Te85  1  0.42982575  0.41942765  0.42428347  1
  Te  Te86  1  0.43479246  0.43190722  0.76561874  1
  Te  Te87  1  0.41799851  0.75906938  0.08109035  1
  Te  Te88  1  0.42812751  0.73889521  0.40479329  1
  Te  Te89  1  0.44300711  0.72530079  0.77073512  1
  Te  Te90  1  0.73640874  0.09274228  0.09922481  1
  Te  Te91  1  0.76867382  0.07491079  0.41462736  1
  Te  Te92  1  0.73306976  0.07447234  0.74621973  1
  Te  Te93  1  0.79855735  0.41518365  0.06052976  1
  Te  Te94  1  0.71392066  0.43298027  0.42653650  1
  Te  Te95  1  0.77591310  0.41358016  0.77588149  1
  Te  Te96  1  0.75091028  0.74999717  0.08109687  1
  Te  Te97  1  0.72569607  0.78752371  0.41925418  1
  Te  Te98  1  0.78694037  0.78849869  0.72900482  1
  Te  Te99  1  0.09223689  0.23134630  0.27871270  1
  Te  Te100  1  0.10479419  0.26270673  0.59514785  1
  Te  Te101  1  0.07971164  0.23525088  0.93740877  1
  Te  Te102  1  0.07019258  0.60862628  0.27970548  1
  Te  Te103  1  0.06856384  0.59264370  0.58559427  1
  Te  Te104  1  0.07124158  0.58683858  0.91584277  1
  Te  Te105  1  0.07355822  0.91185641  0.24280898  1
  Te  Te106  1  0.10570477  0.92133809  0.55889923  1
  Te  Te107  1  0.07385487  0.89867567  0.90020557  1
  Te  Te108  1  0.42346970  0.27299167  0.22017316  1
  Te  Te109  1  0.40706627  0.24587818  0.59523175  1
  Te  Te110  1  0.40254832  0.27390724  0.94809480  1
  Te  Te111  1  0.39805598  0.56814547  0.23602715  1
  Te  Te112  1  0.42095217  0.56321112  0.60173939  1
  Te  Te113  1  0.42943688  0.58885232  0.93450012  1
  Te  Te114  1  0.39560134  0.90968061  0.28229344  1
  Te  Te115  1  0.42318466  0.91016831  0.56653529  1
  Te  Te116  1  0.43018115  0.90932542  0.90353006  1
  Te  Te117  1  0.74770524  0.24322129  0.26037156  1
  Te  Te118  1  0.73225797  0.24724872  0.58885496  1
  Te  Te119  1  0.75990868  0.24134767  0.90072126  1
  Te  Te120  1  0.72404463  0.56629420  0.23767773  1
  Te  Te121  1  0.75996704  0.59355739  0.59058348  1
  Te  Te122  1  0.76485936  0.58969326  0.93133571  1
  Te  Te123  1  0.77880656  0.91765488  0.24824187  1
  Te  Te124  1  0.77904029  0.90000438  0.52747870  1
  Te  Te125  1  0.72847578  0.90948833  0.91266553  1
  Te  Te126  1  0.22904064  0.26979765  0.09002171  1
  Te  Te127  1  0.27375403  0.24331091  0.41209790  1
  Te  Te128  1  0.25366664  0.24278562  0.77527175  1
  Te  Te129  1  0.24963129  0.57011631  0.06932583  1
  Te  Te130  1  0.22589404  0.59239004  0.42349810  1
  Te  Te131  1  0.23712038  0.56330609  0.75332382  1
  Te  Te132  1  0.26982545  0.91984265  0.08639147  1
  Te  Te133  1  0.25993404  0.90471776  0.38960138  1
  Te  Te134  1  0.25971678  0.87853082  0.73853768  1
  Te  Te135  1  0.62018464  0.31284831  0.08930037  1
  Te  Te136  1  0.55424241  0.24158988  0.42100908  1
  Te  Te137  1  0.57187501  0.24083745  0.75431056  1
  Te  Te138  1  0.58153531  0.57751275  0.09743216  1
  Te  Te139  1  0.58990248  0.59837567  0.42465004  1
  Te  Te140  1  0.58857673  0.61102038  0.75961910  1
  Te  Te141  1  0.57583618  0.94548774  0.08903278  1
  Te  Te142  1  0.59048308  0.91247325  0.40610129  1
  Te  Te143  1  0.59836219  0.91431886  0.72968090  1
  Te  Te144  1  0.93063437  0.23168491  0.09813818  1
  Te  Te145  1  0.92097475  0.25524507  0.44714777  1
  Te  Te146  1  0.91275173  0.24245758  0.73696779  1
  Te  Te147  1  0.92024128  0.58611009  0.09552023  1
  Te  Te148  1  0.88734417  0.61418976  0.39362150  1
  Te  Te149  1  0.89950848  0.59237324  0.76666597  1
  Te  Te150  1  0.90425805  0.91041340  0.07586916  1
  Te  Te151  1  0.91311434  0.89267030  0.44731322  1
  Te  Te152  1  0.90114020  0.90639215  0.73677984  1
  Te  Te153  1  0.27903040  0.08313305  0.27514728  1
  Te  Te154  1  0.25429050  0.08012352  0.55262706  1
  Te  Te155  1  0.24254244  0.05521215  0.89187881  1
  Te  Te156  1  0.23726987  0.44091887  0.26874760  1
  Te  Te157  1  0.25830359  0.40981922  0.58358501  1
  Te  Te158  1  0.23076579  0.40875969  0.91456068  1
  Te  Te159  1  0.25548986  0.74488783  0.22576153  1
  Te  Te160  1  0.25640672  0.72533342  0.58003193  1
  Te  Te161  1  0.25583119  0.75030677  0.91171062  1
  Te  Te162  1  0.56123680  0.08283122  0.26841802  1
  Te  Te163  1  0.59302161  0.06052192  0.56718598  1
  Te  Te164  1  0.57049372  0.11068203  0.92163691  1
  Te  Te165  1  0.56960829  0.41133280  0.25057503  1
  Te  Te166  1  0.59997371  0.43066895  0.60081090  1
  Te  Te167  1  0.60228899  0.42844108  0.92361732  1
  Te  Te168  1  0.58390805  0.76750001  0.24553705  1
  Te  Te169  1  0.59465850  0.75791150  0.58313923  1
  Te  Te170  1  0.61906454  0.77911614  0.90757420  1
  Te  Te171  1  0.92670194  0.06929150  0.24913660  1
  Te  Te172  1  0.92027881  0.07549328  0.56224368  1
  Te  Te173  1  0.93115466  0.06701612  0.91459368  1
  Te  Te174  1  0.88928790  0.41993950  0.27882249  1
  Te  Te175  1  0.89077507  0.44074673  0.58112399  1
  Te  Te176  1  0.97709760  0.37956140  0.89976820  1
  Te  Te177  1  0.90563594  0.73941833  0.27885055  1
  Te  Te178  1  0.93892103  0.76764816  0.54471698  1
  Te  Te179  1  0.90663349  0.78283490  0.93552789  1
