# generated using pymatgen
data_In2Te3
_symmetry_space_group_name_H-M   'P 1'
_cell_length_a   18.90154534
_cell_length_b   18.90611224
_cell_length_c   18.91960864
_cell_angle_alpha   89.95287959
_cell_angle_beta   89.90904121
_cell_angle_gamma   90.12334355
_symmetry_Int_Tables_number   1
_chemical_formula_structural   In2Te3
_chemical_formula_sum   'In72 Te108'
_cell_volume   6760.98529469
_cell_formula_units_Z   36
loop_
 _symmetry_equiv_pos_site_id
 _symmetry_equiv_pos_as_xyz
  1  'x, y, z'
loop_
 _atom_site_type_symbol
 _atom_site_label
 _atom_site_symmetry_multiplicity
 _atom_site_fract_x
 _atom_site_fract_y
 _atom_site_fract_z
 _atom_site_occupancy
  In  In0  1  0.35622970  0.70795510  0.02865125  1
  In  In1  1  -0.00947245  0.14387050  0.16756567  1
  In  In2  1  0.64316442  0.85905571  0.87546543  1
  In  In3  1  0.82161534  0.33555516  0.18794072  1
  In  In4  1  0.48723853  0.81684117  0.65379690  1
  In  In5  1  0.81396073  0.18649243  0.00201888  1
  In  In6  1  0.65685797  0.33353561  0.31115819  1
  In  In7  1  0.37026169  -0.00718229  0.32788733  1
  In  In8  1  0.46327997  0.29701357  0.53220663  1
  In  In9  1  0.69659226  0.36527543  0.70833551  1
  In  In10  1  0.00013649  0.64024331  0.67948117  1
  In  In11  1  0.82635093  0.51447400  0.30759769  1
  In  In12  1  -0.03158073  0.52185304  0.83899956  1
  In  In13  1  0.66925356  0.66343834  0.68085350  1
  In  In14  1  -0.00142653  0.37130969  0.00649591  1
  In  In15  1  0.16102997  0.67811557  0.84462729  1
  In  In16  1  0.19949911  0.84324178  0.66147244  1
  In  In17  1  0.67686925  0.15772878  0.50047314  1
  In  In18  1  0.51115599  0.81903817  0.26353192  1
  In  In19  1  0.00565647  -0.00870384  0.68182736  1
  In  In20  1  0.35311382  0.16289548  0.17464723  1
  In  In21  1  -0.00177661  0.80172552  0.14071382  1
  In  In22  1  0.33569607  0.50327742  0.83336375  1
  In  In23  1  0.49542978  0.02777146  0.50560791  1
  In  In24  1  0.52031987  0.35586400  0.83520786  1
  In  In25  1  0.50567557  0.49895506  0.65908027  1
  In  In26  1  0.63756287  -0.01223122  0.30344847  1
  In  In27  1  0.14994919  0.34112325  0.16715180  1
  In  In28  1  -0.02562944  0.81766994  0.85809848  1
  In  In29  1  0.01137974  -0.04545317  0.31911696  1
  In  In30  1  0.32088973  0.49549799  0.48993158  1
  In  In31  1  0.50142756  0.68472585  0.83958119  1
  In  In32  1  0.64226467  0.31476171  0.01617793  1
  In  In33  1  0.17116642  0.53334001  0.32910422  1
  In  In34  1  0.84621549  0.00747569  0.49286677  1
  In  In35  1  0.00593542  0.16043090  0.82251237  1
  In  In36  1  0.32269709  0.52100301  0.14610755  1
  In  In37  1  0.80438263  0.13897861  0.69514890  1
  In  In38  1  0.34356868  0.33363925  0.34652463  1
  In  In39  1  0.17486307  0.83723423  -0.00179162  1
  In  In40  1  0.81937324  0.51753317  -0.00851934  1
  In  In41  1  0.82596614  0.01503109  0.13616833  1
  In  In42  1  0.49116145  0.49949761  0.29304379  1
  In  In43  1  0.51746649  0.51814575  0.02609523  1
  In  In44  1  -0.01229209  0.31816832  0.67535497  1
  In  In45  1  0.31863985  0.82241755  0.48000569  1
  In  In46  1  0.82115192  0.84172872  0.33693938  1
  In  In47  1  0.17896343  0.15987853  0.00562723  1
  In  In48  1  0.66565338  -0.00052098  0.67731335  1
  In  In49  1  0.15016614  0.49747863  0.67263883  1
  In  In50  1  0.85340257  0.33575103  0.50361022  1
  In  In51  1  0.00597252  0.49867875  0.51210779  1
  In  In52  1  0.33823561  0.34541252  -0.02459338  1
  In  In53  1  0.01222334  -0.00034364  -0.00124560  1
  In  In54  1  0.18397735  -0.00142851  0.51513160  1
  In  In55  1  0.35358735  0.15669692  0.84759435  1
  In  In56  1  -0.02263518  0.33353571  0.33601128  1
  In  In57  1  0.18720973  0.32501304  0.84187270  1
  In  In58  1  0.03593415  0.69583514  0.33170658  1
  In  In59  1  0.15249398  0.33716145  0.52757335  1
  In  In60  1  0.51891280  0.15743753  0.31603112  1
  In  In61  1  0.65116715  0.49470007  0.49588820  1
  In  In62  1  0.81990277  0.66170078  0.14575005  1
  In  In63  1  0.83198253  0.67443306  0.48857346  1
  In  In64  1  0.18188230  0.15151332  0.34663218  1
  In  In65  1  0.48572413  0.66061026  0.47043791  1
  In  In66  1  0.66339343  0.83203956  0.10391754  1
  In  In67  1  0.34032281  -0.02512253  -0.00522775  1
  In  In68  1  0.34646001  0.01353108  0.69033272  1
  In  In69  1  0.68959951  0.83286945  0.48936365  1
  In  In70  1  0.84716318  0.81067654  0.69290007  1
  In  In71  1  0.00757575  0.19196262  0.49835452  1
  Te  Te72  1  0.10280031  0.06786385  0.10079517  1
  Te  Te73  1  0.07415286  0.07530780  0.42437186  1
  Te  Te74  1  0.10230988  0.07514283  0.75375426  1
  Te  Te75  1  0.09908539  0.44755376  0.08074873  1
  Te  Te76  1  0.08819596  0.41349051  0.41094569  1
  Te  Te77  1  0.07205644  0.40780357  0.76734353  1
  Te  Te78  1  0.07565597  0.73000237  0.03627594  1
  Te  Te79  1  0.12535509  0.77920842  0.41391075  1
  Te  Te80  1  0.07052759  0.75617964  0.74945188  1
  Te  Te81  1  0.40829695  0.10009994  0.05274144  1
  Te  Te82  1  0.40988398  0.11180833  0.41250817  1
  Te  Te83  1  0.45263641  0.06883805  0.77899108  1
  Te  Te84  1  0.41707317  0.41768287  0.08312159  1
  Te  Te85  1  0.43942995  0.41961294  0.42827074  1
  Te  Te86  1  0.41306784  0.41023394  0.74243730  1
  Te  Te87  1  0.41701930  0.76991597  0.14927074  1
  Te  Te88  1  0.42717228  0.77106181  0.38657412  1
  Te  Te89  1  0.40458610  0.73412829  0.74186808  1
  Te  Te90  1  0.72593115  0.06606586  0.03703999  1
  Te  Te91  1  0.73680702  0.05948408  0.40178089  1
  Te  Te92  1  0.72764077  0.06229926  0.79768443  1
  Te  Te93  1  0.75226014  0.40397051  0.07455261  1
  Te  Te94  1  0.75735794  0.41506852  0.40959660  1
  Te  Te95  1  0.77320852  0.47447515  0.76373986  1
  Te  Te96  1  0.77243854  0.75259213  0.03076421  1
  Te  Te97  1  0.73161440  0.72775709  0.38713157  1
  Te  Te98  1  0.72294873  0.77269396  0.77003092  1
  Te  Te99  1  0.07986765  0.23853407  0.26047483  1
  Te  Te100  1  0.09666923  0.22858987  0.61722130  1
  Te  Te101  1  0.08253133  0.25429709  0.93299152  1
  Te  Te102  1  0.08209126  0.59621904  0.23084102  1
  Te  Te103  1  0.10390172  0.59771078  0.56773599  1
  Te  Te104  1  0.06230537  0.59836000  0.92349548  1
  Te  Te105  1  0.09248118  0.88910230  0.21668549  1
  Te  Te106  1  0.08375451  0.90657567  0.58342920  1
  Te  Te107  1  0.08560251  0.91391530  0.89898417  1
  Te  Te108  1  0.43566799  0.26759473  0.24614137  1
  Te  Te109  1  0.37677093  0.21992628  0.61930464  1
  Te  Te110  1  0.44683813  0.25498717  0.92374411  1
  Te  Te111  1  0.40608093  0.60490222  0.23658117  1
  Te  Te112  1  0.41146447  0.58673257  0.58031829  1
  Te  Te113  1  0.41337556  0.58627970  0.93402406  1
  Te  Te114  1  0.44050720  0.93905569  0.20926370  1
  Te  Te115  1  0.40868972  0.91876277  0.56903342  1
  Te  Te116  1  0.45004389  0.88014950  0.94280925  1
  Te  Te117  1  0.73351341  0.22620950  0.23869753  1
  Te  Te118  1  0.76145946  0.24948347  0.58981713  1
  Te  Te119  1  0.71836894  0.24787055  0.90686656  1
  Te  Te120  1  0.72488815  0.55888373  0.20816908  1
  Te  Te121  1  0.74626080  0.58219298  0.57561048  1
  Te  Te122  1  0.74678104  0.63082269  0.92837236  1
  Te  Te123  1  0.74447681  0.90625103  0.22121806  1
  Te  Te124  1  0.76815835  0.91432575  0.59284673  1
  Te  Te125  1  0.74278898  0.95102754  0.93290465  1
  Te  Te126  1  0.25698938  0.26276727  0.08822433  1
  Te  Te127  1  0.24651548  0.25647405  0.43432162  1
  Te  Te128  1  0.27533570  0.24542255  0.75434688  1
  Te  Te129  1  0.24554695  0.62747598  0.08175898  1
  Te  Te130  1  0.28225438  0.60209724  0.39593506  1
  Te  Te131  1  0.24286440  0.58947237  0.74998075  1
  Te  Te132  1  0.25875784  0.90580210  0.09768454  1
  Te  Te133  1  0.24803831  0.92786460  0.39587874  1
  Te  Te134  1  0.27719726  0.90829314  0.76578148  1
  Te  Te135  1  0.61275548  0.21579633  0.12231468  1
  Te  Te136  1  0.58429323  0.25123359  0.42417567  1
  Te  Te137  1  0.60930440  0.26027715  0.76345874  1
  Te  Te138  1  0.60359044  0.60389881  0.10963625  1
  Te  Te139  1  0.58539999  0.57934050  0.38973733  1
  Te  Te140  1  0.58090313  0.57489185  0.76672407  1
  Te  Te141  1  0.55922002  0.92656691  0.05171681  1
  Te  Te142  1  0.58202534  0.92343309  0.43051298  1
  Te  Te143  1  0.56766536  0.90516294  0.74680281  1
  Te  Te144  1  0.92561752  0.25776384  0.09194089  1
  Te  Te145  1  0.89255523  0.22677304  0.40292164  1
  Te  Te146  1  0.89133629  0.24417073  0.76613894  1
  Te  Te147  1  0.91808196  0.57011407  0.08675668  1
  Te  Te148  1  0.92284710  0.57643098  0.41225602  1
  Te  Te149  1  0.87284285  0.59588939  0.74998782  1
  Te  Te150  1  0.91346063  0.90931139  0.07015542  1
  Te  Te151  1  0.92775353  0.89399320  0.43188697  1
  Te  Te152  1  0.90258633  0.92716041  0.77290420  1
  Te  Te153  1  0.25651936  0.07066213  0.24497690  1
  Te  Te154  1  0.27504922  0.09366318  0.58476592  1
  Te  Te155  1  0.24595512  0.06764114  0.90953890  1
  Te  Te156  1  0.25468485  0.41745336  0.25666776  1
  Te  Te157  1  0.25760778  0.41420162  0.60346765  1
  Te  Te158  1  0.23143051  0.44300264  0.92754486  1
  Te  Te159  1  0.18009835  0.73173468  0.28505999  1
  Te  Te160  1  0.25356085  0.73548560  0.57845820  1
  Te  Te161  1  0.27104720  0.75901002  0.90874805  1
  Te  Te162  1  0.58111188  0.08279027  0.20094903  1
  Te  Te163  1  0.57991856  0.10452473  0.60562230  1
  Te  Te164  1  0.50806907  0.02191201  0.93962633  1
  Te  Te165  1  0.58605395  0.41864817  0.21503671  1
  Te  Te166  1  0.59116825  0.39209962  0.59178581  1
  Te  Te167  1  0.60373883  0.44027488  0.92883134  1
  Te  Te168  1  0.61525734  0.72895717  0.20482159  1
  Te  Te169  1  0.59025115  0.73668474  0.56585797  1
  Te  Te170  1  0.56727796  0.75407014  0.95442777  1
  Te  Te171  1  0.91136675  0.05421865  0.26018821  1
  Te  Te172  1  0.91983598  0.09516336  0.59358705  1
  Te  Te173  1  0.91966290  0.09746966  0.93002971  1
  Te  Te174  1  0.93299803  0.43401292  0.23376269  1
  Te  Te175  1  0.91061607  0.43076824  0.60775796  1
  Te  Te176  1  0.89360089  0.40666446  0.90575800  1
  Te  Te177  1  0.90393688  0.74190091  0.25488376  1
  Te  Te178  1  0.92791909  0.74135031  0.58415961  1
  Te  Te179  1  0.87479708  0.72212897  0.91275197  1
