# generated using pymatgen
data_In2Te3
_symmetry_space_group_name_H-M   'P 1'
_cell_length_a   18.78618866
_cell_length_b   18.78093192
_cell_length_c   18.79415936
_cell_angle_alpha   90.07136628
_cell_angle_beta   89.86426607
_cell_angle_gamma   89.97814250
_symmetry_Int_Tables_number   1
_chemical_formula_structural   In2Te3
_chemical_formula_sum   'In72 Te108'
_cell_volume   6630.97110252
_cell_formula_units_Z   36
loop_
 _symmetry_equiv_pos_site_id
 _symmetry_equiv_pos_as_xyz
  1  'x, y, z'
loop_
 _atom_site_type_symbol
 _atom_site_label
 _atom_site_symmetry_multiplicity
 _atom_site_fract_x
 _atom_site_fract_y
 _atom_site_fract_z
 _atom_site_occupancy
  In  In0  1  0.81704525  0.67553716  0.84571945  1
  In  In1  1  0.14301062  0.02904524  0.16874660  1
  In  In2  1  0.85954930  0.29848032  0.47086500  1
  In  In3  1  0.81259130  0.49704978  0.68032709  1
  In  In4  1  0.84256314  0.85313923  0.64662967  1
  In  In5  1  0.52492818  0.17631277  0.00399089  1
  In  In6  1  0.66763219  0.31844666  0.33031000  1
  In  In7  1  0.49066250  0.48459368  0.67625296  1
  In  In8  1  0.16984465  0.14280906  0.35272040  1
  In  In9  1  0.35357960  0.50183434  0.81291831  1
  In  In10  1  0.00151112  0.50269912  0.50819728  1
  In  In11  1  0.67884646  -0.00419942  0.66464330  1
  In  In12  1  0.32981790  0.16449901  0.82570088  1
  In  In13  1  0.30590627  0.01371747  0.00897703  1
  In  In14  1  0.67013223  0.49059051  0.18982767  1
  In  In15  1  0.00558041  0.32331984  0.68225451  1
  In  In16  1  0.16949234  0.48636599  0.34368981  1
  In  In17  1  0.15140269  0.13689607  0.62394988  1
  In  In18  1  0.46810527  0.68978644  0.79495419  1
  In  In19  1  0.02245985  0.68511298  0.68685406  1
  In  In20  1  0.69769677  0.50519456  0.83867996  1
  In  In21  1  0.47288451  0.15726066  0.66303854  1
  In  In22  1  -0.01770316  0.69718883  0.30393451  1
  In  In23  1  0.31963812  0.70652097  0.65120806  1
  In  In24  1  0.83818864  0.87187981  0.02065353  1
  In  In25  1  0.15316397  0.69140727  0.16215370  1
  In  In26  1  0.67909521  0.66604752  0.34643882  1
  In  In27  1  0.34855125  0.32359498  0.33965146  1
  In  In28  1  -0.01641003  0.85090909  0.81428613  1
  In  In29  1  0.17090626  0.33585965  0.53283215  1
  In  In30  1  0.68858255  0.16487695  0.49495845  1
  In  In31  1  0.14020171  0.31859493  0.16921268  1
  In  In32  1  -0.02484439  0.51171732  0.16126095  1
  In  In33  1  0.49918996  0.01123831  0.82287385  1
  In  In34  1  0.33609484  0.67998677  0.00319733  1
  In  In35  1  0.67979620  0.31088712  0.66168978  1
  In  In36  1  0.35796703  0.49633481  0.15772775  1
  In  In37  1  0.14537101  0.30936360  0.81224874  1
  In  In38  1  0.00634473  0.15113452  0.16164945  1
  In  In39  1  0.15993101  0.67111731  0.46816917  1
  In  In40  1  0.34420613  0.85372879  0.48881115  1
  In  In41  1  0.49007040  0.81735589  0.64271324  1
  In  In42  1  0.49571626  0.32747147  0.50712529  1
  In  In43  1  0.15198918  0.49124312  -0.00595548  1
  In  In44  1  0.50697290  -0.01194832  0.18230645  1
  In  In45  1  0.49450480  0.66092804  0.15690870  1
  In  In46  1  0.68849935  0.30669030  0.00472969  1
  In  In47  1  0.31228610  0.64109570  0.32521475  1
  In  In48  1  0.49592339  0.47930121  0.02085258  1
  In  In49  1  0.83234753  0.69188068  0.50786989  1
  In  In50  1  0.67675221  0.84440735  0.17066434  1
  In  In51  1  0.68288679  0.85525207  0.86176883  1
  In  In52  1  0.51866921  0.66005645  0.49960544  1
  In  In53  1  0.48865568  0.36295888  0.81540542  1
  In  In54  1  0.73232662  0.02578497  0.02668477  1
  In  In55  1  0.68467379  0.00431528  0.33240845  1
  In  In56  1  0.82334335  0.49156643  0.34269155  1
  In  In57  1  0.69263309  0.16828885  0.83166126  1
  In  In58  1  0.69864094  0.67503452  -0.01712170  1
  In  In59  1  -0.00581636  0.47895524  0.84705857  1
  In  In60  1  0.84756914  0.31417462  0.18440897  1
  In  In61  1  0.49823754  0.85312012  0.34638766  1
  In  In62  1  0.13940847  0.14667229  -0.00977141  1
  In  In63  1  0.33508519  0.35716060  0.00509955  1
  In  In64  1  -0.00377461  0.13216423  0.83529953  1
  In  In65  1  0.33262393  0.18415994  0.17517537  1
  In  In66  1  0.13029691  0.83515843  0.00784140  1
  In  In67  1  -0.01644605  0.00988548  0.34480164  1
  In  In68  1  0.16145824  0.86257953  0.33464412  1
  In  In69  1  0.65474188  0.67199011  0.65335289  1
  In  In70  1  0.15306759  0.67614320  0.83715837  1
  In  In71  1  0.49675529  0.83339038  -0.00262772  1
  Te  Te72  1  0.03852648  0.04059418  0.04873896  1
  Te  Te73  1  0.08193649  0.06311089  0.44627705  1
  Te  Te74  1  0.09158787  0.05814138  0.73806587  1
  Te  Te75  1  0.05631569  0.40670798  0.07635771  1
  Te  Te76  1  0.07620733  0.39999770  0.42415503  1
  Te  Te77  1  0.09283164  0.43603920  0.74089279  1
  Te  Te78  1  0.04043627  0.74470949  0.08609001  1
  Te  Te79  1  0.06166922  0.77503386  0.41065713  1
  Te  Te80  1  0.11677543  0.79667138  0.73945358  1
  Te  Te81  1  0.42121253  0.08836070  0.07955157  1
  Te  Te82  1  0.37702772  0.04230862  0.46385395  1
  Te  Te83  1  0.38340196  0.05245841  0.73293892  1
  Te  Te84  1  0.44009687  0.37375703  0.11557333  1
  Te  Te85  1  0.41277936  0.42199137  0.42760370  1
  Te  Te86  1  0.37377438  0.38239276  0.70895567  1
  Te  Te87  1  0.40463888  0.77286989  0.10396209  1
  Te  Te88  1  0.40912006  0.73179284  0.41271274  1
  Te  Te89  1  0.37749824  0.81327715  0.75731002  1
  Te  Te90  1  0.78603495  0.11477575  0.13238704  1
  Te  Te91  1  0.78490814  0.07315450  0.42470771  1
  Te  Te92  1  0.77046875  0.09297772  0.72999937  1
  Te  Te93  1  0.75904473  0.40740394  0.09872066  1
  Te  Te94  1  0.74855212  0.39708701  0.43542261  1
  Te  Te95  1  0.76604602  0.38086214  0.77253885  1
  Te  Te96  1  0.77172735  0.75074810  0.09219377  1
  Te  Te97  1  0.76556055  0.77348122  0.40213301  1
  Te  Te98  1  0.74682104  0.76269079  0.73964056  1
  Te  Te99  1  0.06535252  0.23821751  0.27934973  1
  Te  Te100  1  0.05504808  0.23907505  0.56396917  1
  Te  Te101  1  0.05642162  0.25350107  0.92033945  1
  Te  Te102  1  0.08648182  0.58259230  0.25815878  1
  Te  Te103  1  0.09556133  0.59346923  0.58601218  1
  Te  Te104  1  0.05923249  0.59277489  0.92640222  1
  Te  Te105  1  0.05844637  0.91854982  0.23788186  1
  Te  Te106  1  0.04265848  0.96906392  0.61420812  1
  Te  Te107  1  0.08013922  0.92466723  0.90026652  1
  Te  Te108  1  0.42966807  0.21354832  0.28153493  1
  Te  Te109  1  0.39602745  0.23136142  0.56238716  1
  Te  Te110  1  0.41841604  0.25385392  0.91426479  1
  Te  Te111  1  0.43551286  0.57036229  0.26523744  1
  Te  Te112  1  0.42116362  0.59751837  0.59913691  1
  Te  Te113  1  0.42574810  0.58277922  0.92572895  1
  Te  Te114  1  0.40062414  0.92515470  0.26206626  1
  Te  Te115  1  0.44368035  0.93866617  0.56571625  1
  Te  Te116  1  0.41012355  0.93427195  0.92366561  1
  Te  Te117  1  0.76427377  0.22213296  0.26822732  1
  Te  Te118  1  0.78965348  0.23074143  0.58997671  1
  Te  Te119  1  0.78991159  0.22088694  0.93346851  1
  Te  Te120  1  0.76840240  0.59389832  0.24363131  1
  Te  Te121  1  0.74512448  0.58091916  0.56989002  1
  Te  Te122  1  0.80163107  0.55449035  0.95026481  1
  Te  Te123  1  0.78325120  0.91660122  0.24779070  1
  Te  Te124  1  0.75579535  0.93051270  0.55231866  1
  Te  Te125  1  0.79093455  0.96011021  0.89221170  1
  Te  Te126  1  0.23574383  0.24445825  0.06428320  1
  Te  Te127  1  0.24859930  0.24835337  0.42817037  1
  Te  Te128  1  0.23579788  0.22761751  0.72360846  1
  Te  Te129  1  0.24769703  0.58039857  0.08322996  1
  Te  Te130  1  0.26109566  0.55707084  0.44266533  1
  Te  Te131  1  0.25584994  0.60412313  0.74955442  1
  Te  Te132  1  0.22798887  0.91821158  0.09530109  1
  Te  Te133  1  0.23690515  0.94859468  0.43507113  1
  Te  Te134  1  0.24879021  0.87341650  0.70049579  1
  Te  Te135  1  0.60444523  0.24224240  0.10839335  1
  Te  Te136  1  0.57564198  0.22970749  0.41749017  1
  Te  Te137  1  0.57387579  0.24326407  0.75445626  1
  Te  Te138  1  0.60022160  0.58633207  0.07423398  1
  Te  Te139  1  0.59747816  0.56644346  0.41724378  1
  Te  Te140  1  0.58626026  0.58010741  0.76072586  1
  Te  Te141  1  0.60183229  0.92311744  0.06317898  1
  Te  Te142  1  0.58149418  0.94531916  0.42432072  1
  Te  Te143  1  0.58037506  0.90209052  0.74906571  1
  Te  Te144  1  0.91823322  0.23695646  0.07704654  1
  Te  Te145  1  0.94839655  0.22190767  0.38447680  1
  Te  Te146  1  0.91950429  0.21959424  0.74276858  1
  Te  Te147  1  0.89966373  0.59326139  0.06822083  1
  Te  Te148  1  0.92197820  0.59449346  0.41425161  1
  Te  Te149  1  0.91150198  0.59518727  0.74715931  1
  Te  Te150  1  0.94605754  0.92799678  0.10494573  1
  Te  Te151  1  0.89111344  0.93603315  0.44137841  1
  Te  Te152  1  0.91867795  0.95563434  0.72612951  1
  Te  Te153  1  0.26256651  0.07331660  0.25341840  1
  Te  Te154  1  0.26786876  0.05621594  0.56579621  1
  Te  Te155  1  0.22754724  0.06921409  0.89043287  1
  Te  Te156  1  0.24567013  0.41191241  0.23205855  1
  Te  Te157  1  0.25552492  0.42301282  0.61285494  1
  Te  Te158  1  0.24525283  0.41693709  0.89549521  1
  Te  Te159  1  0.24869411  0.76223976  0.25620629  1
  Te  Te160  1  0.22082728  0.78055889  0.55887785  1
  Te  Te161  1  0.24511922  0.76638928  0.92150052  1
  Te  Te162  1  0.59991488  0.08591908  0.23961996  1
  Te  Te163  1  0.58791984  0.09091212  0.58614758  1
  Te  Te164  1  0.60240048  0.07448129  0.91883195  1
  Te  Te165  1  0.57260123  0.41505507  0.26879084  1
  Te  Te166  1  0.59772358  0.41549231  0.59008822  1
  Te  Te167  1  0.59379579  0.41108928  0.92210491  1
  Te  Te168  1  0.58046031  0.75210151  0.24804178  1
  Te  Te169  1  0.60623686  0.77444739  0.55165627  1
  Te  Te170  1  0.57912063  0.74208249  0.90505955  1
  Te  Te171  1  0.89621620  0.07460909  0.23617659  1
  Te  Te172  1  0.93785702  0.04423927  0.54134261  1
  Te  Te173  1  0.88929067  0.07767132  0.92662203  1
  Te  Te174  1  0.93064270  0.41313740  0.26826857  1
  Te  Te175  1  0.90773677  0.41424328  0.59033449  1
  Te  Te176  1  0.87970744  0.40567991  0.89708362  1
  Te  Te177  1  0.87696263  0.79099439  0.26205372  1
  Te  Te178  1  0.94765880  0.76439432  0.57848739  1
  Te  Te179  1  0.90823415  0.77048669  0.91988252  1
