# generated using pymatgen
data_In2Te3
_symmetry_space_group_name_H-M   'P 1'
_cell_length_a   18.94123285
_cell_length_b   19.00193615
_cell_length_c   18.99540481
_cell_angle_alpha   89.96783257
_cell_angle_beta   89.99885388
_cell_angle_gamma   89.93355344
_symmetry_Int_Tables_number   1
_chemical_formula_structural   In2Te3
_chemical_formula_sum   'In72 Te108'
_cell_volume   6836.82226621
_cell_formula_units_Z   36
loop_
 _symmetry_equiv_pos_site_id
 _symmetry_equiv_pos_as_xyz
  1  'x, y, z'
loop_
 _atom_site_type_symbol
 _atom_site_label
 _atom_site_symmetry_multiplicity
 _atom_site_fract_x
 _atom_site_fract_y
 _atom_site_fract_z
 _atom_site_occupancy
  In  In0  1  0.33211444  0.16404938  0.49966390  1
  In  In1  1  0.31854320  0.69746984  -0.02096590  1
  In  In2  1  0.63731129  0.82331470  0.82656463  1
  In  In3  1  0.17855441  0.48118457  -0.00747209  1
  In  In4  1  0.67495632  0.18320677  0.50563789  1
  In  In5  1  0.68841969  0.32709085  0.34776726  1
  In  In6  1  0.18331271  0.16287119  0.00139280  1
  In  In7  1  0.64572033  0.32965723  0.68100852  1
  In  In8  1  0.49183901  0.52421649  -0.02259987  1
  In  In9  1  -0.04167789  0.03570203  0.66476984  1
  In  In10  1  0.69593374  0.53193229  0.18477273  1
  In  In11  1  0.83982703  0.33718494  0.51263802  1
  In  In12  1  0.12516634  0.32004641  0.53506916  1
  In  In13  1  0.14376228  0.00227554  0.49830452  1
  In  In14  1  0.47576680  0.32072411  0.49054197  1
  In  In15  1  0.14401083  0.16084599  0.34346586  1
  In  In16  1  0.51523548  0.53708787  0.70877394  1
  In  In17  1  0.68085915  0.66364171  -0.00888174  1
  In  In18  1  0.33457136  0.33607700  0.31660205  1
  In  In19  1  0.30215074  0.01517808  0.67474969  1
  In  In20  1  0.53206362  0.69278111  0.18882051  1
  In  In21  1  0.81284900  0.82530624  0.66549368  1
  In  In22  1  -0.00396575  0.68571130  0.35659902  1
  In  In23  1  0.00342109  0.81764740  0.84728459  1
  In  In24  1  0.33728853  0.51692056  0.15142197  1
  In  In25  1  0.83727905  0.32372096  0.16981209  1
  In  In26  1  0.85173035  0.68428314  0.18455454  1
  In  In27  1  0.32712900  0.33963006  0.66674778  1
  In  In28  1  0.33568464  -0.01413963  0.33593516  1
  In  In29  1  0.50173169  0.83825186  0.02953978  1
  In  In30  1  0.33726092  0.19031766  0.82513751  1
  In  In31  1  0.81295332  -0.01647317  0.15655617  1
  In  In32  1  0.84680943  0.82205166  0.00266654  1
  In  In33  1  0.67810549  0.83960435  0.48556412  1
  In  In34  1  0.49836076  -0.00694545  0.83992983  1
  In  In35  1  0.51083664  0.48805648  0.36080343  1
  In  In36  1  -0.01262656  0.33887893  -0.01778752  1
  In  In37  1  0.65428770  0.52721751  0.54202577  1
  In  In38  1  0.01458479  0.82865649  0.49246334  1
  In  In39  1  0.13646887  0.69416494  0.16485571  1
  In  In40  1  0.00493611  0.51872302  0.50495547  1
  In  In41  1  0.64456733  0.00402121  -0.00335195  1
  In  In42  1  0.82084540  0.47730587  -0.02280641  1
  In  In43  1  0.16961781  0.30761191  0.16021560  1
  In  In44  1  0.15733345  -0.03705999  0.83135618  1
  In  In45  1  0.65938409  -0.01927380  0.32252828  1
  In  In46  1  0.48864733  0.66579777  0.50275671  1
  In  In47  1  0.50366186  0.32279794  0.83602142  1
  In  In48  1  0.31674148  -0.01374559  0.01321097  1
  In  In49  1  -0.00467314  0.68728659  0.66390477  1
  In  In50  1  0.17513801  0.82747101  0.66859613  1
  In  In51  1  0.01335645  0.65149063  -0.00177789  1
  In  In52  1  0.17082401  0.38885236  0.79225943  1
  In  In53  1  0.84279507  0.34671740  0.80878119  1
  In  In54  1  0.70025198  0.00682896  0.67279890  1
  In  In55  1  0.83863017  -0.00424690  0.85167615  1
  In  In56  1  0.67001037  0.31589099  -0.02790259  1
  In  In57  1  0.49419583  0.00400317  0.17302086  1
  In  In58  1  0.83293639  0.53670024  0.65590547  1
  In  In59  1  -0.01370602  0.16187940  0.83773016  1
  In  In60  1  0.34927060  0.15230846  0.15718079  1
  In  In61  1  -0.00037172  0.15848428  0.16694375  1
  In  In62  1  0.46951774  0.81791737  0.65987671  1
  In  In63  1  0.15362555  -0.03359829  0.19355603  1
  In  In64  1  0.33801648  0.82810813  0.48974310  1
  In  In65  1  0.51760424  0.01072843  0.50104891  1
  In  In66  1  -0.03354513  0.48917942  0.17787524  1
  In  In67  1  0.31762368  0.63901307  0.70300002  1
  In  In68  1  0.31639951  0.66072183  0.30676531  1
  In  In69  1  0.16080696  0.51605824  0.35218362  1
  In  In70  1  0.82591600  0.15900457  0.34062098  1
  In  In71  1  0.51796794  0.34521441  0.14481235  1
  Te  Te72  1  0.10371567  0.07572424  0.09544972  1
  Te  Te73  1  0.04409105  0.07315884  0.41173439  1
  Te  Te74  1  0.07658857  0.06770033  0.75573643  1
  Te  Te75  1  0.07263265  0.41125962  0.09078377  1
  Te  Te76  1  0.07811995  0.41083924  0.42162520  1
  Te  Te77  1  0.11924301  0.47389665  0.68262201  1
  Te  Te78  1  0.07000245  0.77320884  0.05951446  1
  Te  Te79  1  0.11053643  0.73349843  0.43409846  1
  Te  Te80  1  0.11317901  0.73525982  0.77375464  1
  Te  Te81  1  0.43109927  0.07653171  0.05468550  1
  Te  Te82  1  0.42354683  0.08706035  0.40715740  1
  Te  Te83  1  0.41529846  0.08370767  0.74833079  1
  Te  Te84  1  0.41546145  0.42382091  0.06328516  1
  Te  Te85  1  0.38851392  0.42693761  0.42629963  1
  Te  Te86  1  0.42643874  0.42096196  0.75025950  1
  Te  Te87  1  0.41866740  0.73087377  0.09615291  1
  Te  Te88  1  0.41739677  0.74338907  0.39430306  1
  Te  Te89  1  0.42391177  0.72434336  0.76225353  1
  Te  Te90  1  0.74270148  0.08082704  0.07115348  1
  Te  Te91  1  0.73474101  0.07186996  0.42327470  1
  Te  Te92  1  0.81463543  0.08353151  0.73127146  1
  Te  Te93  1  0.74103101  0.41638940  0.09139855  1
  Te  Te94  1  0.73137983  0.42492467  0.45190321  1
  Te  Te95  1  0.74517339  0.43076868  0.73097635  1
  Te  Te96  1  0.74786992  0.75116439  0.09463415  1
  Te  Te97  1  0.75315331  0.77468905  0.37388261  1
  Te  Te98  1  0.73063340  0.73243716  0.75087808  1
  Te  Te99  1  0.06539935  0.26046554  0.25854843  1
  Te  Te100  1  0.03158515  0.23006301  0.60492784  1
  Te  Te101  1  0.08911849  0.24697284  0.91856316  1
  Te  Te102  1  0.07008099  0.57942640  0.24670830  1
  Te  Te103  1  0.09360631  0.61043702  0.58184967  1
  Te  Te104  1  0.10192254  0.57454559  0.90874175  1
  Te  Te105  1  0.04883385  0.90395708  0.27560813  1
  Te  Te106  1  0.07220183  0.92011860  0.60737002  1
  Te  Te107  1  0.08070667  0.90297955  0.94180070  1
  Te  Te108  1  0.43074614  0.25370727  0.23659884  1
  Te  Te109  1  0.41883611  0.23539609  0.60110518  1
  Te  Te110  1  0.42699923  0.23834095  0.92889308  1
  Te  Te111  1  0.43721743  0.56992669  0.25192962  1
  Te  Te112  1  0.41780958  0.57526983  0.60082623  1
  Te  Te113  1  0.38991865  0.59510871  0.89895772  1
  Te  Te114  1  0.41164248  0.90447578  0.24201918  1
  Te  Te115  1  0.39891994  0.93958665  0.57627897  1
  Te  Te116  1  0.41216640  0.90253020  0.92578976  1
  Te  Te117  1  0.73763325  0.23312010  0.23997099  1
  Te  Te118  1  0.75844569  0.25259757  0.60942004  1
  Te  Te119  1  0.78541059  0.25387928  0.90635805  1
  Te  Te120  1  0.79261186  0.58677246  0.28194885  1
  Te  Te121  1  0.76052084  0.62492070  0.56257934  1
  Te  Te122  1  0.73038472  0.56288226  0.89521850  1
  Te  Te123  1  0.77459106  0.89740265  0.27457604  1
  Te  Te124  1  0.77278257  0.93055577  0.56296351  1
  Te  Te125  1  0.73593031  0.89647630  0.91560662  1
  Te  Te126  1  0.27887499  0.25729035  0.07123115  1
  Te  Te127  1  0.24616094  0.25373960  0.41081283  1
  Te  Te128  1  0.22790504  0.25169390  0.74079193  1
  Te  Te129  1  0.23389552  0.60156772  0.08121040  1
  Te  Te130  1  0.26051464  0.59333032  0.42382030  1
  Te  Te131  1  0.23209900  0.53314971  0.76911632  1
  Te  Te132  1  0.25561796  0.89593582  0.11250818  1
  Te  Te133  1  0.23175864  0.90930619  0.41586693  1
  Te  Te134  1  0.27487512  0.89534922  0.76242434  1
  Te  Te135  1  0.58489229  0.24265078  0.06584659  1
  Te  Te136  1  0.57528554  0.24360009  0.40764966  1
  Te  Te137  1  0.59982974  0.22640872  0.77590371  1
  Te  Te138  1  0.58498456  0.57903091  0.09007351  1
  Te  Te139  1  0.59511333  0.59786933  0.41722698  1
  Te  Te140  1  0.62960622  0.61127974  0.75729967  1
  Te  Te141  1  0.60313900  0.91105086  0.10997269  1
  Te  Te142  1  0.56058219  0.89989513  0.40915376  1
  Te  Te143  1  0.57905662  0.91803613  0.72285680  1
  Te  Te144  1  0.91414502  0.23972771  0.07003376  1
  Te  Te145  1  0.91292152  0.24975681  0.41822593  1
  Te  Te146  1  0.95593012  0.27290527  0.74194429  1
  Te  Te147  1  0.89646404  0.57623073  0.07494974  1
  Te  Te148  1  0.90873026  0.58054794  0.41088935  1
  Te  Te149  1  0.92147245  0.60035927  0.75453540  1
  Te  Te150  1  0.92088175  0.92346183  0.07565446  1
  Te  Te151  1  0.95755269  0.92717952  0.39983252  1
  Te  Te152  1  0.91457402  0.89856460  0.75261071  1
  Te  Te153  1  0.24721859  0.09095993  0.25297256  1
  Te  Te154  1  0.22021915  0.10320318  0.58219587  1
  Te  Te155  1  0.25232338  0.07286450  0.90095024  1
  Te  Te156  1  0.24160899  0.42698748  0.23518977  1
  Te  Te157  1  0.23521013  0.41188163  0.57392152  1
  Te  Te158  1  0.26042401  0.39473750  0.90862156  1
  Te  Te159  1  0.23599509  0.76637346  0.24470280  1
  Te  Te160  1  0.27198513  0.73970462  0.59285026  1
  Te  Te161  1  0.21718630  0.74930788  0.88869248  1
  Te  Te162  1  0.58286623  0.08510299  0.25537741  1
  Te  Te163  1  0.59571699  0.09359819  0.60010589  1
  Te  Te164  1  0.61021315  0.08276256  0.87549057  1
  Te  Te165  1  0.60116875  0.42261739  0.25686249  1
  Te  Te166  1  0.56555177  0.40720031  0.57805581  1
  Te  Te167  1  0.58708476  0.42666456  0.90902243  1
  Te  Te168  1  0.63923171  0.73666729  0.27443713  1
  Te  Te169  1  0.58044381  0.75982906  0.57784761  1
  Te  Te170  1  0.56538357  0.74074061  0.93039802  1
  Te  Te171  1  0.90638878  0.07258724  0.24584256  1
  Te  Te172  1  0.93692483  0.12211784  0.54746689  1
  Te  Te173  1  0.93976349  0.06126334  0.93412532  1
  Te  Te174  1  0.89630905  0.40615648  0.27523673  1
  Te  Te175  1  0.92413854  0.42964164  0.59746637  1
  Te  Te176  1  0.93828968  0.44317917  0.88648101  1
  Te  Te177  1  0.95255183  0.77566189  0.24430145  1
  Te  Te178  1  0.90164616  0.75314057  0.56455365  1
  Te  Te179  1  0.90455313  0.71951639  0.90809922  1
