# generated using pymatgen
data_In2Te3
_symmetry_space_group_name_H-M   'P 1'
_cell_length_a   18.77481601
_cell_length_b   18.77887890
_cell_length_c   18.77890894
_cell_angle_alpha   89.91820247
_cell_angle_beta   89.97997201
_cell_angle_gamma   90.07067394
_symmetry_Int_Tables_number   1
_chemical_formula_structural   In2Te3
_chemical_formula_sum   'In72 Te108'
_cell_volume   6620.86766068
_cell_formula_units_Z   36
loop_
 _symmetry_equiv_pos_site_id
 _symmetry_equiv_pos_as_xyz
  1  'x, y, z'
loop_
 _atom_site_type_symbol
 _atom_site_label
 _atom_site_symmetry_multiplicity
 _atom_site_fract_x
 _atom_site_fract_y
 _atom_site_fract_z
 _atom_site_occupancy
  In  In0  1  0.84490516  0.17479069  -0.00321819  1
  In  In1  1  0.83677950  0.32949134  0.51660841  1
  In  In2  1  0.31841104  0.50510130  0.48154479  1
  In  In3  1  0.49189637  0.83580606  0.63885420  1
  In  In4  1  0.85411437  0.01521232  0.82530859  1
  In  In5  1  0.50820192  0.49122971  0.67154808  1
  In  In6  1  0.66776608  0.49640156  0.16824840  1
  In  In7  1  0.65929173  0.32561927  0.32411460  1
  In  In8  1  0.84203479  0.49852499  0.67543621  1
  In  In9  1  0.31313347  0.14080992  0.18001551  1
  In  In10  1  0.82019838  0.00327871  0.48751862  1
  In  In11  1  0.00661440  0.32994776  0.33089244  1
  In  In12  1  0.85737062  0.51495249  0.00767528  1
  In  In13  1  0.15298453  0.33625263  0.17293831  1
  In  In14  1  0.69157803  0.35153831  -0.01809114  1
  In  In15  1  0.01132846  -0.03134117  0.66710772  1
  In  In16  1  0.65705592  0.84232002  0.49082226  1
  In  In17  1  0.82367244  0.34426448  0.84333860  1
  In  In18  1  0.01227132  0.36325941  0.68302833  1
  In  In19  1  0.52338041  0.32558780  0.18746528  1
  In  In20  1  0.17171533  0.50243423  -0.00115977  1
  In  In21  1  0.50966234  0.66399235  0.84175847  1
  In  In22  1  0.19423850  0.13975476  0.63858810  1
  In  In23  1  0.16559851  -0.01710806  0.83179677  1
  In  In24  1  0.34528855  0.17420421  0.80206391  1
  In  In25  1  0.84313371  0.83294290  0.01361637  1
  In  In26  1  0.67147658  -0.00548261  0.33396113  1
  In  In27  1  0.16461520  0.52677708  0.32988271  1
  In  In28  1  0.33271201  0.52926417  0.16941291  1
  In  In29  1  0.64978390  -0.00446400  0.64810210  1
  In  In30  1  0.49095704  0.83651650  0.00549481  1
  In  In31  1  0.33170090  0.32630402  0.36093117  1
  In  In32  1  0.48449825  0.14208789  0.36301074  1
  In  In33  1  0.32256339  0.84952866  0.83557562  1
  In  In34  1  0.65494190  0.67761966  0.34145835  1
  In  In35  1  0.64226894  -0.00045723  -0.00854429  1
  In  In36  1  0.17504062  -0.02744507  0.18293843  1
  In  In37  1  0.01288736  0.65211127  0.65694514  1
  In  In38  1  0.46535445  -0.03857577  0.20937261  1
  In  In39  1  0.32894776  0.84131719  0.48502979  1
  In  In40  1  0.32696167  0.31444538  0.65896849  1
  In  In41  1  0.66084841  0.49203166  0.50576551  1
  In  In42  1  0.84529915  -0.02264307  0.17257357  1
  In  In43  1  0.31010028  0.68855866  0.65110994  1
  In  In44  1  0.02090507  0.83329063  0.48915134  1
  In  In45  1  0.83633043  0.67022862  0.48887461  1
  In  In46  1  0.00721780  0.16290280  0.47915714  1
  In  In47  1  0.16792368  0.31699525  0.49024588  1
  In  In48  1  0.68318775  0.16290747  0.18372964  1
  In  In49  1  0.67866049  0.82779663  0.81784815  1
  In  In50  1  0.30829718  0.37016572  -0.01416848  1
  In  In51  1  0.83726645  0.67599548  0.84132199  1
  In  In52  1  0.86925929  0.50476444  0.33124355  1
  In  In53  1  0.47913163  0.69264154  0.49961314  1
  In  In54  1  0.16400310  0.66225750  0.83118238  1
  In  In55  1  0.00843962  0.83229760  0.84185554  1
  In  In56  1  0.69547883  0.49884620  0.83047970  1
  In  In57  1  0.49631827  0.15224113  0.64117919  1
  In  In58  1  0.01474253  0.68691518  0.31935192  1
  In  In59  1  0.31912437  -0.01148007  0.00518288  1
  In  In60  1  0.30513880  0.53201777  0.82821355  1
  In  In61  1  0.50886814  0.15718205  -0.00632946  1
  In  In62  1  0.01274187  0.00248170  0.32918716  1
  In  In63  1  0.49743124  0.31221406  0.81039460  1
  In  In64  1  -0.00231042  0.16829282  0.17701155  1
  In  In65  1  0.51453272  0.50112624  0.02329408  1
  In  In66  1  0.15076843  0.17254024  -0.00515592  1
  In  In67  1  0.81902305  0.16560968  0.64654373  1
  In  In68  1  0.49859189  0.66435188  0.20006131  1
  In  In69  1  -0.00920100  0.16789612  0.84053036  1
  In  In70  1  0.84712057  0.67816838  0.16283347  1
  In  In71  1  0.30677467  0.67381293  0.01538806  1
  Te  Te72  1  0.09357949  0.07763997  0.09935875  1
  Te  Te73  1  0.09832516  0.04979375  0.44459786  1
  Te  Te74  1  0.07970051  0.08420382  0.74702540  1
  Te  Te75  1  0.07769125  0.41382400  0.07366069  1
  Te  Te76  1  0.08820347  0.42477860  0.41741887  1
  Te  Te77  1  0.09711511  0.44562645  0.76794553  1
  Te  Te78  1  0.12141149  0.78176120  0.14772011  1
  Te  Te79  1  0.11408940  0.73540561  0.42282702  1
  Te  Te80  1  0.09316774  0.76107304  0.73804900  1
  Te  Te81  1  0.41807616  0.07281514  0.08854381  1
  Te  Te82  1  0.38472390  0.05012597  0.42361385  1
  Te  Te83  1  0.41533660  0.06563562  0.73400165  1
  Te  Te84  1  0.41647266  0.41176732  0.09978797  1
  Te  Te85  1  0.42417665  0.41102575  0.43866425  1
  Te  Te86  1  0.39749666  0.42013403  0.76092785  1
  Te  Te87  1  0.41278730  0.74525259  0.09858564  1
  Te  Te88  1  0.42529191  0.77539307  0.38907455  1
  Te  Te89  1  0.41213243  0.74539086  0.75627810  1
  Te  Te90  1  0.75245791  0.07688539  0.07766174  1
  Te  Te91  1  0.74038760  0.10046248  0.41126122  1
  Te  Te92  1  0.74187578  0.07724743  0.74399828  1
  Te  Te93  1  0.77204284  0.41495561  0.09302314  1
  Te  Te94  1  0.76178349  0.42290609  0.41068862  1
  Te  Te95  1  0.73883445  0.39721614  0.72612286  1
  Te  Te96  1  0.74346771  0.75740195  0.09219794  1
  Te  Te97  1  0.76052409  0.76983585  0.40310094  1
  Te  Te98  1  0.75550998  0.73501185  0.73388524  1
  Te  Te99  1  0.10429971  0.22842925  0.27035945  1
  Te  Te100  1  0.07216800  0.24766364  0.58956004  1
  Te  Te101  1  0.05858144  0.26625740  0.92774638  1
  Te  Te102  1  0.06030258  0.57238073  0.23274095  1
  Te  Te103  1  0.10985789  0.56024890  0.59467876  1
  Te  Te104  1  0.07860188  0.59933063  0.93338211  1
  Te  Te105  1  0.07742453  0.88178576  0.26130932  1
  Te  Te106  1  0.11036956  0.93385112  0.56045285  1
  Te  Te107  1  0.08420607  0.91807430  0.93599125  1
  Te  Te108  1  0.41273063  0.24029411  0.25046842  1
  Te  Te109  1  0.41621710  0.25175230  0.56052545  1
  Te  Te110  1  0.40790301  0.25603418  0.92911642  1
  Te  Te111  1  0.40115803  0.58943302  0.28497653  1
  Te  Te112  1  0.40957252  0.58479313  0.59526200  1
  Te  Te113  1  0.40964333  0.58177318  0.93566322  1
  Te  Te114  1  0.34868489  0.87866101  0.26636847  1
  Te  Te115  1  0.40030596  0.93568781  0.57913720  1
  Te  Te116  1  0.42577181  0.93469200  0.90893765  1
  Te  Te117  1  0.76614074  0.27063662  0.23822426  1
  Te  Te118  1  0.72693282  0.24049751  0.55947273  1
  Te  Te119  1  0.73809855  0.23056052  0.90192763  1
  Te  Te120  1  0.75338504  0.58433964  0.26309363  1
  Te  Te121  1  0.75335687  0.58525783  0.58505666  1
  Te  Te122  1  0.74663043  0.59384381  0.93605008  1
  Te  Te123  1  0.73819384  0.90134134  0.24057150  1
  Te  Te124  1  0.75838446  0.90624769  0.58772336  1
  Te  Te125  1  0.75676344  0.92385495  0.91384510  1
  Te  Te126  1  0.25620339  0.25141289  0.08470716  1
  Te  Te127  1  0.25527693  0.21623901  0.42670751  1
  Te  Te128  1  0.22177338  0.24408483  0.74810177  1
  Te  Te129  1  0.21306768  0.60162090  0.11071254  1
  Te  Te130  1  0.25688995  0.61727200  0.40486879  1
  Te  Te131  1  0.21429650  0.57393276  0.70454315  1
  Te  Te132  1  0.25072165  0.88196488  0.08659309  1
  Te  Te133  1  0.25499434  0.92617034  0.38276465  1
  Te  Te134  1  0.25095550  0.92180544  0.72909412  1
  Te  Te135  1  0.59820422  0.25895662  0.07154636  1
  Te  Te136  1  0.57370159  0.24782664  0.41574030  1
  Te  Te137  1  0.58847850  0.23276197  0.72978205  1
  Te  Te138  1  0.59592858  0.60804731  0.09201903  1
  Te  Te139  1  0.56855632  0.58794107  0.42924274  1
  Te  Te140  1  0.60080833  0.58749255  0.74674343  1
  Te  Te141  1  0.57597739  0.91881566  0.10157963  1
  Te  Te142  1  0.56481722  0.93486735  0.42113845  1
  Te  Te143  1  0.57042885  0.90977616  0.74830828  1
  Te  Te144  1  0.92890474  0.25959182  0.08297949  1
  Te  Te145  1  0.90275644  0.24493902  0.40679953  1
  Te  Te146  1  0.90772527  0.25309732  0.74052996  1
  Te  Te147  1  0.95032165  0.59290252  0.09650783  1
  Te  Te148  1  0.94927091  0.59099079  0.42732641  1
  Te  Te149  1  0.93093638  0.57961981  0.76718684  1
  Te  Te150  1  0.94618640  0.90480054  0.09324288  1
  Te  Te151  1  0.91554742  0.91349078  0.41030050  1
  Te  Te152  1  0.90450398  0.89429237  0.74742626  1
  Te  Te153  1  0.24428276  0.06104241  0.28636608  1
  Te  Te154  1  0.30524561  0.08816282  0.55372230  1
  Te  Te155  1  0.25479335  0.09270706  0.91251922  1
  Te  Te156  1  0.25553293  0.41695403  0.25563849  1
  Te  Te157  1  0.24174262  0.41575004  0.58039459  1
  Te  Te158  1  0.21169654  0.41052976  0.87206532  1
  Te  Te159  1  0.24140987  0.76914608  0.22956838  1
  Te  Te160  1  0.22208649  0.76019265  0.55625164  1
  Te  Te161  1  0.22904568  0.76738060  0.92389164  1
  Te  Te162  1  0.56606482  0.08562430  0.24006415  1
  Te  Te163  1  0.57524920  0.06714713  0.54299246  1
  Te  Te164  1  0.57924483  0.08416402  0.88786317  1
  Te  Te165  1  0.56690421  0.44436090  0.26979619  1
  Te  Te166  1  0.57774469  0.39688337  0.58353386  1
  Te  Te167  1  0.57269303  0.42343456  0.90503709  1
  Te  Te168  1  0.57425174  0.77549171  0.26385941  1
  Te  Te169  1  0.59623762  0.73861622  0.58716598  1
  Te  Te170  1  0.59526100  0.75511425  0.92723021  1
  Te  Te171  1  0.90211728  0.08598740  0.26388739  1
  Te  Te172  1  0.92699596  0.07254845  0.58657411  1
  Te  Te173  1  0.93767925  0.06498965  0.94169779  1
  Te  Te174  1  0.94017479  0.41999228  0.23357722  1
  Te  Te175  1  0.93439542  0.43361856  0.57147890  1
  Te  Te176  1  0.92554301  0.42554659  0.91065965  1
  Te  Te177  1  0.92030303  0.77685778  0.24717262  1
  Te  Te178  1  0.92678094  0.75311504  0.58121139  1
  Te  Te179  1  0.93759285  0.73741468  0.93859583  1
