# generated using pymatgen
data_In2Te3
_symmetry_space_group_name_H-M   'P 1'
_cell_length_a   18.96058958
_cell_length_b   19.01552734
_cell_length_c   19.02083740
_cell_angle_alpha   89.86591174
_cell_angle_beta   90.10823780
_cell_angle_gamma   89.87965672
_symmetry_Int_Tables_number   1
_chemical_formula_structural   In2Te3
_chemical_formula_sum   'In72 Te108'
_cell_volume   6857.83320563
_cell_formula_units_Z   36
loop_
 _symmetry_equiv_pos_site_id
 _symmetry_equiv_pos_as_xyz
  1  'x, y, z'
loop_
 _atom_site_type_symbol
 _atom_site_label
 _atom_site_symmetry_multiplicity
 _atom_site_fract_x
 _atom_site_fract_y
 _atom_site_fract_z
 _atom_site_occupancy
  In  In0  1  0.85029961  0.17443052  0.02028172  1
  In  In1  1  0.63680908  0.18530829  0.81611866  1
  In  In2  1  0.68953954  0.33497571  0.00439243  1
  In  In3  1  0.18477437  0.16106815  0.68754388  1
  In  In4  1  0.47615841  0.35748465  0.79109540  1
  In  In5  1  0.32595823  0.15871765  0.18291670  1
  In  In6  1  0.83995362  0.67835554  0.82486879  1
  In  In7  1  0.66154354  0.17253869  0.18217256  1
  In  In8  1  0.33392329  0.34032845  -0.00902376  1
  In  In9  1  0.48454795  0.16602741  0.34879625  1
  In  In10  1  0.16792723  0.70341168  0.82791388  1
  In  In11  1  0.84276694  0.31937796  0.48493334  1
  In  In12  1  0.81638558  0.16656398  0.68862501  1
  In  In13  1  -0.02332056  0.66543780  0.65790503  1
  In  In14  1  0.20177209  0.13827817  -0.02544708  1
  In  In15  1  0.65295717  0.81773580  0.17399654  1
  In  In16  1  0.66403267  0.48568240  0.16788852  1
  In  In17  1  0.83892597  0.82916696  0.66075029  1
  In  In18  1  0.64260653  0.14183515  0.51589860  1
  In  In19  1  0.16837096  0.50637928  0.66153144  1
  In  In20  1  0.17811152  -0.00593674  0.17812579  1
  In  In21  1  0.22141181  0.32268971  0.50472529  1
  In  In22  1  0.18065913  0.49598407  -0.00005978  1
  In  In23  1  0.00757278  0.51752945  0.85298248  1
  In  In24  1  0.91301444  0.13292336  0.36805342  1
  In  In25  1  -0.00748130  0.84187403  0.84629021  1
  In  In26  1  0.34266558  0.68416039  0.66701860  1
  In  In27  1  0.47741009  0.83955114  0.32431017  1
  In  In28  1  0.67150515  0.54819268  0.51703204  1
  In  In29  1  0.32046018  0.83190667  0.15193742  1
  In  In30  1  0.84314215  0.50165722  0.30473230  1
  In  In31  1  0.65852659  0.51934228  0.81717752  1
  In  In32  1  0.16226629  0.01225436  0.47853711  1
  In  In33  1  0.19646883  0.31501020  0.82350742  1
  In  In34  1  0.49467977  0.82842839  -0.00281740  1
  In  In35  1  0.48807977  0.66740786  0.82079505  1
  In  In36  1  0.67609319  0.30931190  0.33997367  1
  In  In37  1  0.83904455  0.65786943  0.15899154  1
  In  In38  1  0.84143744  -0.00123691  0.16741012  1
  In  In39  1  0.16142058  0.67045367  0.16569600  1
  In  In40  1  0.32482649  0.15764521  0.48589397  1
  In  In41  1  0.21027197  0.47453324  0.33757368  1
  In  In42  1  0.48829241  0.65518176  0.50261028  1
  In  In43  1  0.41604123  0.50560843  0.39326338  1
  In  In44  1  0.84499569  0.35758090  0.83773377  1
  In  In45  1  0.85072426  0.34715814  0.17062035  1
  In  In46  1  0.64131625  0.01103262  0.34749328  1
  In  In47  1  0.45022690  0.12830587  -0.03043056  1
  In  In48  1  0.34631193  0.87313155  0.54136334  1
  In  In49  1  0.52094825  0.49303148  -0.00780857  1
  In  In50  1  0.00217669  0.82732960  0.50274105  1
  In  In51  1  0.48406275  0.30915575  0.15878501  1
  In  In52  1  0.00202265  0.17466317  0.85129606  1
  In  In53  1  0.81187251  0.82437786  0.35337677  1
  In  In54  1  0.00371364  0.68662199  0.33386442  1
  In  In55  1  0.65982387  -0.05528331  -0.05019868  1
  In  In56  1  0.63948638  0.34301677  0.66109327  1
  In  In57  1  0.83095989  -0.00763463  0.50465647  1
  In  In58  1  0.48748677  -0.01654861  0.83835932  1
  In  In59  1  0.34597173  0.66497790  0.32290254  1
  In  In60  1  0.04817969  0.19284081  0.18541704  1
  In  In61  1  0.33311395  0.66771889  -0.00689598  1
  In  In62  1  -0.02244412  -0.00107032  0.68634460  1
  In  In63  1  0.59332478  -0.00559033  0.66284158  1
  In  In64  1  0.18669301  0.87298453  0.69194750  1
  In  In65  1  0.64832733  0.80227481  0.51668651  1
  In  In66  1  0.01963885  0.85408365  0.15553187  1
  In  In67  1  -0.00374689  0.50111527  0.48710487  1
  In  In68  1  0.02052323  0.50154574  0.17514062  1
  In  In69  1  0.67655745  0.66359348  0.00188815  1
  In  In70  1  0.00690593  0.00069830  -0.01206210  1
  In  In71  1  0.01610790  0.35027266  0.64346676  1
  Te  Te72  1  0.09118346  0.09262099  0.07501433  1
  Te  Te73  1  0.04963807  0.09091461  0.42549927  1
  Te  Te74  1  0.07973076  0.07886207  0.76439289  1
  Te  Te75  1  0.11067887  0.41077348  0.09843103  1
  Te  Te76  1  0.11483303  0.41905852  0.44307186  1
  Te  Te77  1  0.08603798  0.41576829  0.76122166  1
  Te  Te78  1  0.10198368  0.76642890  0.07169260  1
  Te  Te79  1  0.09783227  0.74722874  0.42742212  1
  Te  Te80  1  0.06560867  0.76561946  0.72849212  1
  Te  Te81  1  0.39252135  0.06499297  0.08742464  1
  Te  Te82  1  0.41629218  0.05843313  0.42268627  1
  Te  Te83  1  0.39792145  0.07258171  0.75968806  1
  Te  Te84  1  0.42001120  0.42371542  0.08330154  1
  Te  Te85  1  0.35767505  0.37314400  0.44581554  1
  Te  Te86  1  0.41009394  0.44951478  0.69950202  1
  Te  Te87  1  0.42405967  0.73586498  0.09329851  1
  Te  Te88  1  0.40112055  0.76169496  0.43913114  1
  Te  Te89  1  0.38929628  0.77038202  0.77850028  1
  Te  Te90  1  0.74702224  0.08766577  0.08814573  1
  Te  Te91  1  0.75040249  0.09346567  0.41517462  1
  Te  Te92  1  0.70548325  0.07744318  0.73541136  1
  Te  Te93  1  0.77413226  0.43733173  0.07576328  1
  Te  Te94  1  0.75881744  0.41814346  0.40423343  1
  Te  Te95  1  0.74425758  0.41836934  0.74117567  1
  Te  Te96  1  0.75819627  0.76240141  0.08062041  1
  Te  Te97  1  0.71299826  0.73150447  0.40567568  1
  Te  Te98  1  0.74431763  0.72799923  0.72037974  1
  Te  Te99  1  0.14056074  0.27544253  0.26888473  1
  Te  Te100  1  0.10693216  0.24705230  0.58791737  1
  Te  Te101  1  0.10549133  0.25298338  0.92619399  1
  Te  Te102  1  0.10193903  0.57853253  0.27960780  1
  Te  Te103  1  0.08097624  0.59402129  0.57360610  1
  Te  Te104  1  0.10394806  0.60610897  0.92684946  1
  Te  Te105  1  0.09078154  0.91552292  0.26558647  1
  Te  Te106  1  0.07413069  0.92722155  0.59416650  1
  Te  Te107  1  0.09790156  0.92768587  0.89991002  1
  Te  Te108  1  0.39612368  0.26261478  0.27110143  1
  Te  Te109  1  0.40880118  0.26748929  0.53735764  1
  Te  Te110  1  0.42479713  0.25895044  0.90158434  1
  Te  Te111  1  0.41285042  0.55381726  0.25540339  1
  Te  Te112  1  0.40524934  0.56821908  0.59578384  1
  Te  Te113  1  0.41782221  0.56905892  0.91124793  1
  Te  Te114  1  0.40208108  0.92383306  0.23246605  1
  Te  Te115  1  0.46514058  0.91837448  0.61788033  1
  Te  Te116  1  0.40836916  0.94278244  0.95711573  1
  Te  Te117  1  0.77824398  0.24070688  0.25120141  1
  Te  Te118  1  0.74233557  0.24757951  0.58098284  1
  Te  Te119  1  0.75953176  0.24367560  0.90378560  1
  Te  Te120  1  0.73570530  0.59240356  0.24807686  1
  Te  Te121  1  0.75768385  0.62148127  0.60723000  1
  Te  Te122  1  0.75975749  0.57517492  0.91342678  1
  Te  Te123  1  0.74130185  0.92878524  0.25868134  1
  Te  Te124  1  0.73180387  0.91647758  0.58728850  1
  Te  Te125  1  0.76351703  0.88154906  0.87489702  1
  Te  Te126  1  0.25748206  0.23990848  0.07202102  1
  Te  Te127  1  0.22021092  0.21681804  0.39164497  1
  Te  Te128  1  0.29113866  0.25855865  0.72474617  1
  Te  Te129  1  0.26163657  0.58128075  0.09575844  1
  Te  Te130  1  0.27858315  0.57504716  0.42649144  1
  Te  Te131  1  0.24595119  0.59865400  0.75196099  1
  Te  Te132  1  0.22035759  0.90462497  0.06989693  1
  Te  Te133  1  0.26175033  0.91750994  0.43056754  1
  Te  Te134  1  0.28495173  0.96099356  0.75781992  1
  Te  Te135  1  0.58703945  0.24371299  0.06925503  1
  Te  Te136  1  0.57447996  0.25331465  0.43616700  1
  Te  Te137  1  0.54098065  0.24033153  0.71321889  1
  Te  Te138  1  0.58122620  0.58852023  0.09215881  1
  Te  Te139  1  0.56187398  0.56092945  0.41031491  1
  Te  Te140  1  0.57295223  0.59461812  0.72302485  1
  Te  Te141  1  0.58919733  0.91892871  0.08090829  1
  Te  Te142  1  0.57483695  0.90429539  0.42461276  1
  Te  Te143  1  0.56431810  0.88615021  0.75916010  1
  Te  Te144  1  0.94752391  0.26373052  0.08886295  1
  Te  Te145  1  0.96128174  0.25988290  0.42179839  1
  Te  Te146  1  0.92812755  0.25768282  0.74145023  1
  Te  Te147  1  0.93903030  0.58283267  0.08467508  1
  Te  Te148  1  0.90688590  0.59335896  0.40596464  1
  Te  Te149  1  0.91084779  0.56401409  0.74658407  1
  Te  Te150  1  0.91072578  0.91283837  0.06541378  1
  Te  Te151  1  0.91909475  0.91589039  0.40918356  1
  Te  Te152  1  0.87389268  0.92775443  0.77342954  1
  Te  Te153  1  0.23335120  0.09085827  0.27658001  1
  Te  Te154  1  0.25233300  0.07103923  0.58704671  1
  Te  Te155  1  0.27606608  0.08499416  0.85844651  1
  Te  Te156  1  0.22909824  0.39192804  0.21896169  1
  Te  Te157  1  0.26664301  0.39696519  0.63316028  1
  Te  Te158  1  0.26603657  0.43156997  0.89101344  1
  Te  Te159  1  0.24299919  0.75574284  0.25949781  1
  Te  Te160  1  0.24133617  0.77244399  0.59560597  1
  Te  Te161  1  0.27607440  0.77157851  0.90327142  1
  Te  Te162  1  0.55776566  0.08189110  0.24229256  1
  Te  Te163  1  0.51758135  0.07464585  0.55950050  1
  Te  Te164  1  0.59068041  0.08375811  0.92108792  1
  Te  Te165  1  0.58341302  0.38751565  0.24844055  1
  Te  Te166  1  0.58773432  0.43652592  0.56170717  1
  Te  Te167  1  0.59212207  0.39801559  0.89735626  1
  Te  Te168  1  0.57164779  0.74212840  0.26697569  1
  Te  Te169  1  0.56615089  0.72174488  0.61021643  1
  Te  Te170  1  0.58584966  0.74253662  0.91116769  1
  Te  Te171  1  0.94834622  0.08359725  0.23126379  1
  Te  Te172  1  0.90685798  0.09324168  0.59084706  1
  Te  Te173  1  0.89949144  0.08173241  0.91192031  1
  Te  Te174  1  0.95115189  0.40274343  0.26926326  1
  Te  Te175  1  0.90138860  0.42529452  0.57840484  1
  Te  Te176  1  0.93960877  0.41381057  0.93176512  1
  Te  Te177  1  0.90798261  0.76505276  0.24424691  1
  Te  Te178  1  0.89073211  0.73574439  0.55258294  1
  Te  Te179  1  0.92812305  0.73775347  0.92404322  1
