# generated using pymatgen
data_In2Te3
_symmetry_space_group_name_H-M   'P 1'
_cell_length_a   18.76315677
_cell_length_b   18.78062447
_cell_length_c   18.77342631
_cell_angle_alpha   90.04456229
_cell_angle_beta   89.89604431
_cell_angle_gamma   90.01338074
_symmetry_Int_Tables_number   1
_chemical_formula_structural   In2Te3
_chemical_formula_sum   'In72 Te108'
_cell_volume   6615.43825905
_cell_formula_units_Z   36
loop_
 _symmetry_equiv_pos_site_id
 _symmetry_equiv_pos_as_xyz
  1  'x, y, z'
loop_
 _atom_site_type_symbol
 _atom_site_label
 _atom_site_symmetry_multiplicity
 _atom_site_fract_x
 _atom_site_fract_y
 _atom_site_fract_z
 _atom_site_occupancy
  In  In0  1  0.52761828  0.65893760  0.51784630  1
  In  In1  1  0.15624917  -0.01385063  0.13903387  1
  In  In2  1  0.33579279  0.66615076  0.68985706  1
  In  In3  1  0.31978187  0.02411819  0.68578427  1
  In  In4  1  0.33735830  0.84293024  0.51257551  1
  In  In5  1  -0.00061917  0.67116759  0.67444163  1
  In  In6  1  0.49266742  0.50210618  0.00386070  1
  In  In7  1  0.47828557  0.01116878  0.50351155  1
  In  In8  1  0.66250160  0.17517683  0.86071509  1
  In  In9  1  0.66714606  0.00123414  -0.01369464  1
  In  In10  1  0.82128081  0.02261700  0.50235311  1
  In  In11  1  0.66730182  0.82798016  0.50950439  1
  In  In12  1  0.17481364  0.16948986  0.00976725  1
  In  In13  1  0.50028693  0.67888257  0.84790427  1
  In  In14  1  0.32071837  0.48856699  0.15277548  1
  In  In15  1  -0.00452053  0.50735853  0.51821016  1
  In  In16  1  0.51899830  0.80248836  0.32236544  1
  In  In17  1  0.68141522  0.64351539  0.31745049  1
  In  In18  1  0.82219224  0.64892810  0.83970401  1
  In  In19  1  0.68231577  -0.02110879  0.68631882  1
  In  In20  1  0.82101493  0.81631604  0.00897412  1
  In  In21  1  0.15869833  0.66474434  0.83899725  1
  In  In22  1  0.66820400  0.50828732  0.50049065  1
  In  In23  1  0.51404438  0.01770202  0.14677763  1
  In  In24  1  0.68393481  0.34537875  0.69604619  1
  In  In25  1  0.00934742  0.66505347  -0.00401821  1
  In  In26  1  0.49808563  0.84592805  -0.02822775  1
  In  In27  1  0.33576691  0.64114416  0.33367536  1
  In  In28  1  0.32083095  0.33461363  -0.01678775  1
  In  In29  1  -0.01732426  0.35804844  -0.00925167  1
  In  In30  1  0.33001541  0.66970805  -0.00347945  1
  In  In31  1  0.66428340  0.00324946  0.31763680  1
  In  In32  1  0.16489743  0.64731201  0.48077626  1
  In  In33  1  0.16537889  -0.00989309  0.54294516  1
  In  In34  1  0.33054270  0.85312737  0.15182085  1
  In  In35  1  0.34346245  0.02319241  0.32735304  1
  In  In36  1  0.15296508  0.35492950  0.82721527  1
  In  In37  1  0.67816884  0.33193072  0.02391168  1
  In  In38  1  0.49547840  0.32169955  0.83039978  1
  In  In39  1  0.32576240  0.32489340  0.65460169  1
  In  In40  1  0.65293162  0.16665312  0.48934235  1
  In  In41  1  0.47325368  0.48618044  0.66550849  1
  In  In42  1  -0.02149386  0.66393679  0.30473086  1
  In  In43  1  0.47625574  0.31738374  0.49314706  1
  In  In44  1  -0.00834733  0.13694216  0.83981690  1
  In  In45  1  -0.01390895  0.18380743  0.14450773  1
  In  In46  1  0.00845326  0.83355190  0.51324560  1
  In  In47  1  0.85155259  0.00078241  0.13481903  1
  In  In48  1  0.85494563  0.35307119  0.49887671  1
  In  In49  1  0.84615328  0.19053834  0.68002701  1
  In  In50  1  0.35117218  0.16796268  0.16392543  1
  In  In51  1  0.85487738  0.49416407  0.32260014  1
  In  In52  1  0.01027053  -0.00102336  0.31622607  1
  In  In53  1  0.83354513  0.49710490  0.67993239  1
  In  In54  1  0.84053366  0.82255030  0.31925159  1
  In  In55  1  0.00470975  0.18073502  0.51593272  1
  In  In56  1  0.13855287  -0.01361486  0.85877960  1
  In  In57  1  0.15814705  0.18413253  0.33907326  1
  In  In58  1  0.52385570  0.64976161  0.16319899  1
  In  In59  1  0.17153616  0.83970686  0.68980846  1
  In  In60  1  0.16344471  0.33449780  0.51559909  1
  In  In61  1  0.66807952  0.16819267  0.16914289  1
  In  In62  1  0.13532386  0.66959502  0.15586935  1
  In  In63  1  0.17034707  0.84405291  0.30976877  1
  In  In64  1  0.00044454  0.50013578  0.15608135  1
  In  In65  1  0.34002823  0.17591242  0.82959946  1
  In  In66  1  0.68146682  0.82800770  0.84850343  1
  In  In67  1  0.67177627  0.67811703  0.68467912  1
  In  In68  1  0.64843323  0.35117157  0.27451972  1
  In  In69  1  -0.00553544  0.33680375  0.32786350  1
  In  In70  1  0.68876098  0.52214620  0.85258756  1
  In  In71  1  0.34114855  0.34414344  0.32270527  1
  Te  Te72  1  0.06227329  0.07992632  0.06266731  1
  Te  Te73  1  0.08629009  0.07608863  0.42476334  1
  Te  Te74  1  0.09188158  0.07314507  0.74932977  1
  Te  Te75  1  0.09097112  0.41865586  0.07191857  1
  Te  Te76  1  0.07794876  0.42221376  0.42060492  1
  Te  Te77  1  0.04570094  0.40685461  0.73937783  1
  Te  Te78  1  0.10274326  0.77136197  0.05122945  1
  Te  Te79  1  0.07940353  0.75455486  0.39996146  1
  Te  Te80  1  0.06346985  0.77009877  0.77152965  1
  Te  Te81  1  0.39765879  0.06335475  0.07044856  1
  Te  Te82  1  0.41686596  0.11366336  0.41731256  1
  Te  Te83  1  0.43351820  0.08191992  0.76225133  1
  Te  Te84  1  0.42153207  0.39556322  0.08496393  1
  Te  Te85  1  0.40954865  0.42886902  0.42584414  1
  Te  Te86  1  0.39067719  0.41183922  0.76808391  1
  Te  Te87  1  0.43001079  0.74608485  0.08861514  1
  Te  Te88  1  0.41637174  0.74568550  0.42504325  1
  Te  Te89  1  0.42516421  0.76412079  0.75338194  1
  Te  Te90  1  0.75607332  0.09639566  0.06562317  1
  Te  Te91  1  0.75395897  0.10259550  0.39192087  1
  Te  Te92  1  0.74713517  0.10145498  0.75367605  1
  Te  Te93  1  0.72913282  0.44637196  0.10441649  1
  Te  Te94  1  0.74902134  0.41639754  0.40718891  1
  Te  Te95  1  0.78439863  0.40435559  0.79801261  1
  Te  Te96  1  0.75835508  0.74379167  0.12032061  1
  Te  Te97  1  0.75019335  0.74126883  0.41443318  1
  Te  Te98  1  0.78436106  0.76948646  0.74094763  1
  Te  Te99  1  0.08622776  0.26282504  0.23017552  1
  Te  Te100  1  0.09606850  0.24245609  0.61181252  1
  Te  Te101  1  0.08260364  0.25081507  0.92092086  1
  Te  Te102  1  0.08987861  0.57021538  0.26313501  1
  Te  Te103  1  0.10068637  0.57916586  0.60258070  1
  Te  Te104  1  0.08883059  0.56252232  0.92202151  1
  Te  Te105  1  0.05872779  0.89209680  0.21918816  1
  Te  Te106  1  0.05587853  0.92251537  0.62714675  1
  Te  Te107  1  0.05827649  0.90087620  0.94911187  1
  Te  Te108  1  0.43439091  0.25320918  0.24974181  1
  Te  Te109  1  0.43080139  0.23312250  0.60430574  1
  Te  Te110  1  0.42985427  0.23682598  0.93849634  1
  Te  Te111  1  0.43251198  0.55780039  0.24601507  1
  Te  Te112  1  0.40502352  0.58783626  0.57472588  1
  Te  Te113  1  0.40413129  0.57309530  0.90208277  1
  Te  Te114  1  0.42550631  0.91237073  0.25810974  1
  Te  Te115  1  0.41704797  0.92210508  0.61098414  1
  Te  Te116  1  0.37840080  0.88904130  0.89899988  1
  Te  Te117  1  0.75900733  0.26054769  0.24176868  1
  Te  Te118  1  0.75057497  0.26139849  0.57601589  1
  Te  Te119  1  0.76822995  0.25342064  0.93235104  1
  Te  Te120  1  0.76379734  0.56131008  0.22325515  1
  Te  Te121  1  0.75919354  0.59442193  0.58807214  1
  Te  Te122  1  0.77561656  0.57638780  0.96270053  1
  Te  Te123  1  0.76003879  0.92228242  0.23313549  1
  Te  Te124  1  0.77559974  0.90384955  0.58612781  1
  Te  Te125  1  0.78924507  0.94754141  0.89681306  1
  Te  Te126  1  0.25029006  0.26400315  0.10116524  1
  Te  Te127  1  0.25825128  0.25308682  0.42550619  1
  Te  Te128  1  0.23245592  0.24733745  0.74961102  1
  Te  Te129  1  0.23092901  0.58144254  0.07211295  1
  Te  Te130  1  0.25458510  0.54878114  0.41580059  1
  Te  Te131  1  0.23807015  0.57492684  0.74877786  1
  Te  Te132  1  0.24890537  0.91526223  0.04604469  1
  Te  Te133  1  0.24904657  0.92314165  0.41504366  1
  Te  Te134  1  0.26657425  0.91027289  0.78429789  1
  Te  Te135  1  0.57433834  0.24567082  0.08417366  1
  Te  Te136  1  0.59166384  0.27550187  0.40256665  1
  Te  Te137  1  0.58494678  0.23928896  0.73843790  1
  Te  Te138  1  0.61204084  0.55180670  0.08619885  1
  Te  Te139  1  0.57260317  0.57309872  0.40042048  1
  Te  Te140  1  0.58006637  0.57115013  0.74655369  1
  Te  Te141  1  0.59143367  0.90595330  0.07899442  1
  Te  Te142  1  0.58323760  0.92008986  0.42018956  1
  Te  Te143  1  0.58526273  0.91271536  0.77671995  1
  Te  Te144  1  0.89080960  0.25648342  0.05508646  1
  Te  Te145  1  0.91118769  0.23994867  0.41125810  1
  Te  Te146  1  0.93715849  0.26023741  0.77354360  1
  Te  Te147  1  0.90837276  0.58136833  0.07035035  1
  Te  Te148  1  0.91107322  0.59395901  0.42363933  1
  Te  Te149  1  0.93720350  0.56899218  0.77190008  1
  Te  Te150  1  0.93723154  0.90747228  0.05309500  1
  Te  Te151  1  0.91623335  0.92398448  0.41516744  1
  Te  Te152  1  0.84680612  0.91120992  0.76135563  1
  Te  Te153  1  0.22707992  0.07757784  0.24314502  1
  Te  Te154  1  0.26310077  0.09599185  0.56975358  1
  Te  Te155  1  0.24971555  0.08249635  0.91239284  1
  Te  Te156  1  0.23447673  0.41554692  0.24756259  1
  Te  Te157  1  0.24770945  0.43214167  0.58950654  1
  Te  Te158  1  0.23730691  0.43752197  0.91832717  1
  Te  Te159  1  0.26218079  0.73750898  0.23815016  1
  Te  Te160  1  0.23198322  0.75319906  0.57845912  1
  Te  Te161  1  0.25608539  0.76026394  0.90539968  1
  Te  Te162  1  0.56054155  0.10019686  0.26455160  1
  Te  Te163  1  0.59442129  0.06712659  0.58693372  1
  Te  Te164  1  0.56426814  0.07237816  0.90737957  1
  Te  Te165  1  0.55819282  0.45605422  0.22770518  1
  Te  Te166  1  0.58947232  0.41424001  0.59231103  1
  Te  Te167  1  0.58703360  0.41582003  0.90842105  1
  Te  Te168  1  0.62311266  0.75740944  0.22148805  1
  Te  Te169  1  0.57069666  0.76988978  0.61252895  1
  Te  Te170  1  0.60557942  0.73287250  0.94171447  1
  Te  Te171  1  0.91374908  0.09155444  0.24465123  1
  Te  Te172  1  0.92151225  0.08221399  0.59967396  1
  Te  Te173  1  0.89781955  0.05886815  0.92025361  1
  Te  Te174  1  0.90582392  0.39421894  0.21892573  1
  Te  Te175  1  0.94336875  0.39722375  0.61857876  1
  Te  Te176  1  0.91413388  0.43446514  0.88321874  1
  Te  Te177  1  0.89785189  0.74126811  0.20471544  1
  Te  Te178  1  0.91386847  0.73877891  0.57466357  1
  Te  Te179  1  0.91480423  0.75081906  0.90810516  1
