# generated using pymatgen
data_In2Te3
_symmetry_space_group_name_H-M   'P 1'
_cell_length_a   18.88551647
_cell_length_b   18.89575790
_cell_length_c   18.88626304
_cell_angle_alpha   89.98986378
_cell_angle_beta   90.08490658
_cell_angle_gamma   89.99559404
_symmetry_Int_Tables_number   1
_chemical_formula_structural   In2Te3
_chemical_formula_sum   'In72 Te108'
_cell_volume   6739.67153619
_cell_formula_units_Z   36
loop_
 _symmetry_equiv_pos_site_id
 _symmetry_equiv_pos_as_xyz
  1  'x, y, z'
loop_
 _atom_site_type_symbol
 _atom_site_label
 _atom_site_symmetry_multiplicity
 _atom_site_fract_x
 _atom_site_fract_y
 _atom_site_fract_z
 _atom_site_occupancy
  In  In0  1  0.00318652  0.66218445  0.68107389  1
  In  In1  1  0.82700768  -0.00566925  0.17124526  1
  In  In2  1  0.82017096  0.18423486  0.65393668  1
  In  In3  1  0.67004678  0.35271147  0.02857395  1
  In  In4  1  0.50114202  0.79980631  0.67702141  1
  In  In5  1  -0.00682398  0.50518105  0.16065604  1
  In  In6  1  0.52871806  0.80783386  0.31183767  1
  In  In7  1  0.15448467  0.13848695  0.64648666  1
  In  In8  1  0.35209692  0.36231678  -0.01120359  1
  In  In9  1  0.84602360  0.82634998  -0.01761444  1
  In  In10  1  0.33495321  0.30413036  0.32188993  1
  In  In11  1  0.82064301  0.35424268  0.83251791  1
  In  In12  1  -0.02170892  0.33059728  0.04491296  1
  In  In13  1  0.64590841  -0.00669188  0.64376920  1
  In  In14  1  0.50279515  0.16320315  0.00856695  1
  In  In15  1  0.35354041  0.35750356  0.67833570  1
  In  In16  1  0.18002271  0.83148404  0.67241628  1
  In  In17  1  0.16055364  0.52309601  0.68436499  1
  In  In18  1  0.33312601  0.85189692  0.50175929  1
  In  In19  1  0.33402121  0.65569423  0.33601875  1
  In  In20  1  -0.03677353  0.32013314  0.28092901  1
  In  In21  1  0.50327122  0.00598622  0.16528020  1
  In  In22  1  0.16777046  -0.00897377  0.17074844  1
  In  In23  1  0.67504229  0.34142642  0.64689535  1
  In  In24  1  0.51443686  0.17102604  0.65807776  1
  In  In25  1  0.79379700  0.80651540  0.69109827  1
  In  In26  1  0.81602937  0.82113526  0.31982762  1
  In  In27  1  0.18015861  -0.01355617  0.80965614  1
  In  In28  1  -0.01398582  0.82628505  0.85538072  1
  In  In29  1  0.50564298  -0.01815175  0.46489052  1
  In  In30  1  0.18811544  0.80560752  -0.02204657  1
  In  In31  1  -0.00012713  0.01872816  0.00953970  1
  In  In32  1  -0.03056364  0.34938444  0.65648480  1
  In  In33  1  0.53613170  0.53332335  0.69825052  1
  In  In34  1  0.34467531  0.14116099  0.50436389  1
  In  In35  1  0.14866751  0.46760473  0.34111349  1
  In  In36  1  0.16292730  0.67494162  0.14427266  1
  In  In37  1  0.02639009  0.53239864  0.86949392  1
  In  In38  1  -0.00341958  0.00308269  0.30752425  1
  In  In39  1  0.16939852  -0.00870807  0.48891942  1
  In  In40  1  0.51401345  0.47263009  0.31633110  1
  In  In41  1  0.81657290  0.66259165  0.48781089  1
  In  In42  1  -0.02275547  0.81917427  0.47399998  1
  In  In43  1  0.81920847  0.50534790  0.01314706  1
  In  In44  1  0.49327560  -0.02384166  0.83178858  1
  In  In45  1  -0.00599364  0.17768329  0.50084123  1
  In  In46  1  0.14213048  0.67798619  0.51987792  1
  In  In47  1  0.82027226  0.65721200  0.17770521  1
  In  In48  1  0.66656775  0.50855146  0.49955894  1
  In  In49  1  0.82277746  0.34098038  0.48415213  1
  In  In50  1  0.65986828  -0.01550547  0.01064494  1
  In  In51  1  0.34607254  0.52003193  0.51087285  1
  In  In52  1  0.78584869  0.02064765  0.47754205  1
  In  In53  1  0.33711399  0.51747794  0.13915540  1
  In  In54  1  0.35542770  0.81998672  0.15198591  1
  In  In55  1  -0.00795986  0.66191851  0.35277533  1
  In  In56  1  0.34925062  0.53214509  0.83889580  1
  In  In57  1  0.17199907  0.16979537  0.00452430  1
  In  In58  1  0.34036892  0.15188546  0.17805886  1
  In  In59  1  0.16647786  0.34790355  0.47240873  1
  In  In60  1  0.50309696  0.66006139  0.52465570  1
  In  In61  1  0.01877053  0.00178770  0.67815180  1
  In  In62  1  0.69152239  0.18207972  0.84353287  1
  In  In63  1  0.69353143  0.16268262  0.19405244  1
  In  In64  1  0.52702257  0.50962997  0.01293696  1
  In  In65  1  0.15981539  0.32940139  0.16739240  1
  In  In66  1  0.52685276  0.32690420  0.46516535  1
  In  In67  1  0.66956573  0.66818716  0.00462056  1
  In  In68  1  0.34724601  0.17306192  0.84198201  1
  In  In69  1  0.16339300  0.31658220  0.83196313  1
  In  In70  1  0.84039590  0.00474306  0.84871560  1
  In  In71  1  0.48959170  0.81944273  -0.00789743  1
  Te  Te72  1  0.08337991  0.10208211  0.10598256  1
  Te  Te73  1  0.07599527  0.08410596  0.41371053  1
  Te  Te74  1  0.08047782  0.10294993  0.77262839  1
  Te  Te75  1  0.09358033  0.42808238  0.07551984  1
  Te  Te76  1  0.04029399  0.40631951  0.42083577  1
  Te  Te77  1  0.07418216  0.41843422  0.75662020  1
  Te  Te78  1  0.07127839  0.74957766  0.05204588  1
  Te  Te79  1  0.09909046  0.76402200  0.40285952  1
  Te  Te80  1  0.08803717  0.75473996  0.76564465  1
  Te  Te81  1  0.40251725  0.06597717  0.06814012  1
  Te  Te82  1  0.42439224  0.08400307  0.39682279  1
  Te  Te83  1  0.42503337  0.08437081  0.74527268  1
  Te  Te84  1  0.44289441  0.41384035  0.09892948  1
  Te  Te85  1  0.40033918  0.41497814  0.41509279  1
  Te  Te86  1  0.44472496  0.43182063  0.77235850  1
  Te  Te87  1  0.41705721  0.71280376  0.06903712  1
  Te  Te88  1  0.42168761  0.74722777  0.42165080  1
  Te  Te89  1  0.39680233  0.77643375  0.78037832  1
  Te  Te90  1  0.75200380  0.08558594  0.07180673  1
  Te  Te91  1  0.73017957  0.07880257  0.35592734  1
  Te  Te92  1  0.74234227  0.08000348  0.73766688  1
  Te  Te93  1  0.76945404  0.41631655  0.12208988  1
  Te  Te94  1  0.72623402  0.41731659  0.39580566  1
  Te  Te95  1  0.75062847  0.43610591  0.73120679  1
  Te  Te96  1  0.75528870  0.76347430  0.08737337  1
  Te  Te97  1  0.72542676  0.75788900  0.41846035  1
  Te  Te98  1  0.73221625  0.70924775  0.78030650  1
  Te  Te99  1  0.09612655  0.25353797  0.27313804  1
  Te  Te100  1  0.08548876  0.26320069  0.59220412  1
  Te  Te101  1  0.07115410  0.26038650  0.93778362  1
  Te  Te102  1  0.09210047  0.58257923  0.25413123  1
  Te  Te103  1  0.05945445  0.56494181  0.57562539  1
  Te  Te104  1  0.10931308  0.62353348  0.94925709  1
  Te  Te105  1  0.07456135  0.89996717  0.24003804  1
  Te  Te106  1  0.07383473  0.90048968  0.57699617  1
  Te  Te107  1  0.08515356  0.92888689  0.91631839  1
  Te  Te108  1  0.44372832  0.23783404  0.24483333  1
  Te  Te109  1  0.41911214  0.26172807  0.57657837  1
  Te  Te110  1  0.44432919  0.26660209  0.91258050  1
  Te  Te111  1  0.42831287  0.58034250  0.24513581  1
  Te  Te112  1  0.41061912  0.59309991  0.62590626  1
  Te  Te113  1  0.42838851  0.60045824  0.94621237  1
  Te  Te114  1  0.42763547  0.90676196  0.25427015  1
  Te  Te115  1  0.44269548  0.91326658  0.58542941  1
  Te  Te116  1  0.40019241  0.91872558  0.92851588  1
  Te  Te117  1  0.71348984  0.27748479  0.29165965  1
  Te  Te118  1  0.72681869  0.23830742  0.54722915  1
  Te  Te119  1  0.76726746  0.26489203  0.94420642  1
  Te  Te120  1  0.70446605  0.60812101  0.25488013  1
  Te  Te121  1  0.72538677  0.60836859  0.59329549  1
  Te  Te122  1  0.72286508  0.55946266  0.91331754  1
  Te  Te123  1  0.72814750  0.91330105  0.24557550  1
  Te  Te124  1  0.75882092  0.91336216  0.58129898  1
  Te  Te125  1  0.74004728  0.90757475  0.90663765  1
  Te  Te126  1  0.27340113  0.26137176  0.07597121  1
  Te  Te127  1  0.24649219  0.23029501  0.42203081  1
  Te  Te128  1  0.25943019  0.24393869  0.73541943  1
  Te  Te129  1  0.23504195  0.58250635  0.05077609  1
  Te  Te130  1  0.23343886  0.58082242  0.42606398  1
  Te  Te131  1  0.24392617  0.61293794  0.76811335  1
  Te  Te132  1  0.25132006  0.90233169  0.07655891  1
  Te  Te133  1  0.25727316  0.91973996  0.39617404  1
  Te  Te134  1  0.28724636  0.90104817  0.74971599  1
  Te  Te135  1  0.59547002  0.23849161  0.09943911  1
  Te  Te136  1  0.57087164  0.24447208  0.35298231  1
  Te  Te137  1  0.59741621  0.25933755  0.75060281  1
  Te  Te138  1  0.61181641  0.58075981  0.11727557  1
  Te  Te139  1  0.56665676  0.58248833  0.41146886  1
  Te  Te140  1  0.58943563  0.64453873  0.78101929  1
  Te  Te141  1  0.57790244  0.89237964  0.09578405  1
  Te  Te142  1  0.60487643  0.88166756  0.41676534  1
  Te  Te143  1  0.59552614  0.89982498  0.75157832  1
  Te  Te144  1  0.91725257  0.25117294  0.15157010  1
  Te  Te145  1  0.89862648  0.23836313  0.40258743  1
  Te  Te146  1  0.90920306  0.25190971  0.75692441  1
  Te  Te147  1  0.91849159  0.60327383  0.07207306  1
  Te  Te148  1  0.88882937  0.57012778  0.39966570  1
  Te  Te149  1  0.92252858  0.58219644  0.77644792  1
  Te  Te150  1  0.92210416  0.91250883  0.08388403  1
  Te  Te151  1  0.89863519  0.93311962  0.41255746  1
  Te  Te152  1  0.91106990  0.91140398  0.74736614  1
  Te  Te153  1  0.25449498  0.06923601  0.26241573  1
  Te  Te154  1  0.26373145  0.04924172  0.59537252  1
  Te  Te155  1  0.25105698  0.07953273  0.91273989  1
  Te  Te156  1  0.26502909  0.42418581  0.24446240  1
  Te  Te157  1  0.24556439  0.42505806  0.59089509  1
  Te  Te158  1  0.25006625  0.42412221  0.89536883  1
  Te  Te159  1  0.25619112  0.74651360  0.24239763  1
  Te  Te160  1  0.26425344  0.74118488  0.58325292  1
  Te  Te161  1  0.27829320  0.74664067  0.87783295  1
  Te  Te162  1  0.60433135  0.06024264  0.26343414  1
  Te  Te163  1  0.58284297  0.09202306  0.54842583  1
  Te  Te164  1  0.58868365  0.08431796  0.90649575  1
  Te  Te165  1  0.63073767  0.40548083  0.25402659  1
  Te  Te166  1  0.55937066  0.42709082  0.58160852  1
  Te  Te167  1  0.61283319  0.43400340  0.91678348  1
  Te  Te168  1  0.59527206  0.71222157  0.22106453  1
  Te  Te169  1  0.60916191  0.73545700  0.59575267  1
  Te  Te170  1  0.58943423  0.74945025  0.90379110  1
  Te  Te171  1  0.90881205  0.10087319  0.23707548  1
  Te  Te172  1  0.91825991  0.08068642  0.59106587  1
  Te  Te173  1  0.91337081  0.10429140  0.92591407  1
  Te  Te174  1  0.88497275  0.44317703  0.24259229  1
  Te  Te175  1  0.87015504  0.43441242  0.59073665  1
  Te  Te176  1  0.92494265  0.42362329  0.92754905  1
  Te  Te177  1  0.92621391  0.74815094  0.24624193  1
  Te  Te178  1  0.91061974  0.74687415  0.59059206  1
  Te  Te179  1  0.88980601  0.71804220  0.88945396  1
