# generated using pymatgen
data_In2Te3
_symmetry_space_group_name_H-M   'P 1'
_cell_length_a   18.83742507
_cell_length_b   18.83014929
_cell_length_c   18.83753112
_cell_angle_alpha   89.86290084
_cell_angle_beta   89.95076976
_cell_angle_gamma   89.97089199
_symmetry_Int_Tables_number   1
_chemical_formula_structural   In2Te3
_chemical_formula_sum   'In72 Te108'
_cell_volume   6681.86696563
_cell_formula_units_Z   36
loop_
 _symmetry_equiv_pos_site_id
 _symmetry_equiv_pos_as_xyz
  1  'x, y, z'
loop_
 _atom_site_type_symbol
 _atom_site_label
 _atom_site_symmetry_multiplicity
 _atom_site_fract_x
 _atom_site_fract_y
 _atom_site_fract_z
 _atom_site_occupancy
  In  In0  1  0.12524311  0.15156758  0.00528656  1
  In  In1  1  0.17514345  0.85591480  0.68702873  1
  In  In2  1  0.35955722  0.49061673  0.51060859  1
  In  In3  1  0.70439096  0.47726938  0.82342682  1
  In  In4  1  0.83889858  0.00415485  0.83230711  1
  In  In5  1  0.81216088  -0.01970959  0.51756094  1
  In  In6  1  0.66001417  0.66995971  -0.00203422  1
  In  In7  1  0.84717251  0.12520703  0.33116277  1
  In  In8  1  0.15659826  0.64858324  0.14010116  1
  In  In9  1  -0.02214571  0.46392333  0.50731964  1
  In  In10  1  0.33194560  0.16509761  0.18744573  1
  In  In11  1  0.15722181  0.65918032  0.51387264  1
  In  In12  1  0.17313527  0.50160853  0.33640515  1
  In  In13  1  0.35424034  0.52422786  0.83125469  1
  In  In14  1  -0.03686793  0.46510393  0.85669041  1
  In  In15  1  0.81490206  0.66630310  0.49413681  1
  In  In16  1  0.82655590  0.84062245  -0.00518875  1
  In  In17  1  0.51212379  -0.03254241  0.80490039  1
  In  In18  1  -0.01360320  0.65519132  0.00956361  1
  In  In19  1  0.32755751  0.00928026  -0.00624465  1
  In  In20  1  0.31305722  0.49629264  0.15979393  1
  In  In21  1  0.48887047  0.68618939  0.83138883  1
  In  In22  1  0.51651017  0.16076040  0.67205031  1
  In  In23  1  0.51421471  0.33968239  0.51100759  1
  In  In24  1  0.80892768  0.66988510  0.82650848  1
  In  In25  1  0.36025016  0.82837585  0.49270757  1
  In  In26  1  -0.03165841  0.84730064  0.15489930  1
  In  In27  1  0.13761623  -0.00217851  0.14689157  1
  In  In28  1  0.50234332  0.65781706  0.16856047  1
  In  In29  1  0.67540767  0.02342099  -0.00809728  1
  In  In30  1  -0.04246218  0.69063157  0.30465374  1
  In  In31  1  0.66733748  0.67408986  0.32959113  1
  In  In32  1  -0.00104894  0.86482025  0.82452039  1
  In  In33  1  0.51496800  -0.00786572  0.50249799  1
  In  In34  1  0.50378769  0.15003656  0.32836932  1
  In  In35  1  0.33308627  0.31980428  0.64219110  1
  In  In36  1  0.52747335  0.85633878  0.00170600  1
  In  In37  1  0.18506439  0.85581576  -0.09272453  1
  In  In38  1  0.51106502  0.32019509  0.83668085  1
  In  In39  1  -0.02185495  0.31964070  0.65637499  1
  In  In40  1  0.52102807  0.18719510  0.00948076  1
  In  In41  1  0.51996892  0.84741966  0.34336309  1
  In  In42  1  0.67508769  0.17631906  0.83634459  1
  In  In43  1  -0.01523920  0.66916968  0.67231084  1
  In  In44  1  -0.00980035  0.48767757  0.14150572  1
  In  In45  1  0.36284222  0.84438111  0.16018074  1
  In  In46  1  0.34604681  0.65642661  0.67311392  1
  In  In47  1  0.15212119  0.31988304  0.84456088  1
  In  In48  1  -0.01331913  0.84568223  0.47277952  1
  In  In49  1  0.34797887  0.70694498  0.34027178  1
  In  In50  1  0.16330845  0.51559351  0.00454511  1
  In  In51  1  0.34215679  0.16106454  0.82603159  1
  In  In52  1  -0.02058234  0.15279437  0.50336517  1
  In  In53  1  0.83461810  0.32086476  0.49136078  1
  In  In54  1  0.12901082  0.11822335  0.69295769  1
  In  In55  1  0.15468568  0.32839813  0.17064487  1
  In  In56  1  0.51848756  0.51185844  0.34950238  1
  In  In57  1  0.16735740  0.83913434  0.32143072  1
  In  In58  1  0.66255438  0.69441758  0.65718178  1
  In  In59  1  0.68173820  0.16520653  0.15341266  1
  In  In60  1  0.84057484  0.32376667  0.15595839  1
  In  In61  1  0.52607888  0.49593496  0.67834585  1
  In  In62  1  0.18406589  0.52203351  0.70749385  1
  In  In63  1  0.16318159  0.00697671  0.50643659  1
  In  In64  1  0.32127509  0.36206418  0.02981805  1
  In  In65  1  0.17964117  0.31165475  0.48672208  1
  In  In66  1  0.83307509  0.15791091  0.66705237  1
  In  In67  1  0.65871497  0.34374947  0.33201823  1
  In  In68  1  0.15808701  0.16677022  0.32793223  1
  In  In69  1  0.68289108  0.34155324  0.00574692  1
  In  In70  1  0.51509539  -0.00625311  0.18284915  1
  In  In71  1  0.83093475  0.49852048  0.32362233  1
  Te  Te72  1  0.03141214  0.10228578  0.11501222  1
  Te  Te73  1  0.06700465  0.07163300  0.40851740  1
  Te  Te74  1  0.05497819  0.03467023  0.79278521  1
  Te  Te75  1  0.08069484  0.39838284  0.05699221  1
  Te  Te76  1  0.08333655  0.40318137  0.41176305  1
  Te  Te77  1  0.06913919  0.41012849  0.74959173  1
  Te  Te78  1  0.07237697  0.76018184  0.07964621  1
  Te  Te79  1  0.08388648  0.73894912  0.40589342  1
  Te  Te80  1  0.08205332  0.75183554  0.75286931  1
  Te  Te81  1  0.42990060  0.07983203  0.08511732  1
  Te  Te82  1  0.41875587  0.06546219  0.41471838  1
  Te  Te83  1  0.41385203  0.06477126  0.73454058  1
  Te  Te84  1  0.43074637  0.43058666  0.09738158  1
  Te  Te85  1  0.42148199  0.40296581  0.40613886  1
  Te  Te86  1  0.41145485  0.40445580  0.74226979  1
  Te  Te87  1  0.43440154  0.75254810  0.06568337  1
  Te  Te88  1  0.46417242  0.73365848  0.43207949  1
  Te  Te89  1  0.41736479  0.76976991  0.73338674  1
  Te  Te90  1  0.77989087  0.10371061  0.06040028  1
  Te  Te91  1  0.75824890  0.10364139  0.44914078  1
  Te  Te92  1  0.73141775  0.07138065  0.74355929  1
  Te  Te93  1  0.75588882  0.43090060  0.09846739  1
  Te  Te94  1  0.74578949  0.42709377  0.42697958  1
  Te  Te95  1  0.79370118  0.38722313  0.74835041  1
  Te  Te96  1  0.74577078  0.75492085  0.08378954  1
  Te  Te97  1  0.74030420  0.77446423  0.41878831  1
  Te  Te98  1  0.76854893  0.77416737  0.72881590  1
  Te  Te99  1  0.06179243  0.23916144  0.24110545  1
  Te  Te100  1  0.08739608  0.23598859  0.58533725  1
  Te  Te101  1  0.04570882  0.23591468  0.90885516  1
  Te  Te102  1  0.07470617  0.57932765  0.24897889  1
  Te  Te103  1  0.06760013  0.56432871  0.59236924  1
  Te  Te104  1  0.06237870  0.57324282  0.90616685  1
  Te  Te105  1  0.05983640  0.92120452  0.25537833  1
  Te  Te106  1  0.07556607  0.90795053  0.58256297  1
  Te  Te107  1  0.06395831  0.93790719  0.93792584  1
  Te  Te108  1  0.43694876  0.25073231  0.24078430  1
  Te  Te109  1  0.42304506  0.22713806  0.56780460  1
  Te  Te110  1  0.40332332  0.25845116  0.92865183  1
  Te  Te111  1  0.39815012  0.58570541  0.26036046  1
  Te  Te112  1  0.44950803  0.58875075  0.58321068  1
  Te  Te113  1  0.44720054  0.58119221  0.92788988  1
  Te  Te114  1  0.40899994  0.93114045  0.27458165  1
  Te  Te115  1  0.41890895  0.91820339  0.59216273  1
  Te  Te116  1  0.41616563  0.91343808  0.91371725  1
  Te  Te117  1  0.75874737  0.24503665  0.26550558  1
  Te  Te118  1  0.74678227  0.22571242  0.56432659  1
  Te  Te119  1  0.76823326  0.25014356  0.92432557  1
  Te  Te120  1  0.76166138  0.59901566  0.24112527  1
  Te  Te121  1  0.74159473  0.58653764  0.59413726  1
  Te  Te122  1  0.76170704  0.57014417  0.92964156  1
  Te  Te123  1  0.75018425  0.89584760  0.31947517  1
  Te  Te124  1  0.71873773  0.88803288  0.59313532  1
  Te  Te125  1  0.73293016  0.91674481  0.90037568  1
  Te  Te126  1  0.24265636  0.23384875  0.07628315  1
  Te  Te127  1  0.26722832  0.22382454  0.41008088  1
  Te  Te128  1  0.24239064  0.24601407  0.74267644  1
  Te  Te129  1  0.27723074  0.60466217  0.05433045  1
  Te  Te130  1  0.26286170  0.58912695  0.42644384  1
  Te  Te131  1  0.24911794  0.63384061  0.79828878  1
  Te  Te132  1  0.24963902  0.91118871  0.08199114  1
  Te  Te133  1  0.25118068  0.91309804  0.42200851  1
  Te  Te134  1  0.25237169  0.92177642  0.79149435  1
  Te  Te135  1  0.58555180  0.27558591  0.11080405  1
  Te  Te136  1  0.58796430  0.24198152  0.41965884  1
  Te  Te137  1  0.60799175  0.26873666  0.73368517  1
  Te  Te138  1  0.59150127  0.57303644  0.08825393  1
  Te  Te139  1  0.60848286  0.58813727  0.43671152  1
  Te  Te140  1  0.60189972  0.59107949  0.76811523  1
  Te  Te141  1  0.62273035  0.92575197  0.09855699  1
  Te  Te142  1  0.62590877  0.93859727  0.39921062  1
  Te  Te143  1  0.60048420  0.90489095  0.70159622  1
  Te  Te144  1  0.92622624  0.27593976  0.04355824  1
  Te  Te145  1  0.92702611  0.24721219  0.39807224  1
  Te  Te146  1  0.90215188  0.24892177  0.76318820  1
  Te  Te147  1  0.89488148  0.59654426  0.10963180  1
  Te  Te148  1  0.92928821  0.58259489  0.42062805  1
  Te  Te149  1  0.90606833  0.57247372  0.75884180  1
  Te  Te150  1  0.88800306  0.94883717  0.07934030  1
  Te  Te151  1  0.89235206  0.93318496  0.39699491  1
  Te  Te152  1  0.89688215  0.91205572  0.72944005  1
  Te  Te153  1  0.23703560  0.06294016  0.24492006  1
  Te  Te154  1  0.24230473  0.07849349  0.60828037  1
  Te  Te155  1  0.23320668  0.09348211  0.90913490  1
  Te  Te156  1  0.25544164  0.39660580  0.26208500  1
  Te  Te157  1  0.23935924  0.42774197  0.58390931  1
  Te  Te158  1  0.24970068  0.42443430  0.90333532  1
  Te  Te159  1  0.24654447  0.74500800  0.22953557  1
  Te  Te160  1  0.25061960  0.75288244  0.58650949  1
  Te  Te161  1  0.24981681  0.72678906  0.92629582  1
  Te  Te162  1  0.61978343  0.07425818  0.25840274  1
  Te  Te163  1  0.60278114  0.07706792  0.58740780  1
  Te  Te164  1  0.55945721  0.08597390  0.90055143  1
  Te  Te165  1  0.59717231  0.44558123  0.24429774  1
  Te  Te166  1  0.61191125  0.41466030  0.59131981  1
  Te  Te167  1  0.58784904  0.42165169  0.91482750  1
  Te  Te168  1  0.58706771  0.76561816  0.23388230  1
  Te  Te169  1  0.58595376  0.80139821  0.58381664  1
  Te  Te170  1  0.59808644  0.76973008  0.89795642  1
  Te  Te171  1  0.90601615  0.06826050  0.20881669  1
  Te  Te172  1  0.92320642  0.05291818  0.60149750  1
  Te  Te173  1  0.94770570  0.08693625  0.89079201  1
  Te  Te174  1  0.92977013  0.40635038  0.25492787  1
  Te  Te175  1  0.87032270  0.42259533  0.61243548  1
  Te  Te176  1  0.87801407  0.39190815  0.95967550  1
  Te  Te177  1  0.86155489  0.78749271  0.24296172  1
  Te  Te178  1  0.91126648  0.75701102  0.57242020  1
  Te  Te179  1  0.91876893  0.75019080  0.90736621  1
