# generated using pymatgen
data_In2Te3
_symmetry_space_group_name_H-M   'P 1'
_cell_length_a   18.75914815
_cell_length_b   18.75893004
_cell_length_c   18.75298507
_cell_angle_alpha   90.03359313
_cell_angle_beta   89.99535811
_cell_angle_gamma   89.98348188
_symmetry_Int_Tables_number   1
_chemical_formula_structural   In2Te3
_chemical_formula_sum   'In72 Te108'
_cell_volume   6599.20303954
_cell_formula_units_Z   36
loop_
 _symmetry_equiv_pos_site_id
 _symmetry_equiv_pos_as_xyz
  1  'x, y, z'
loop_
 _atom_site_type_symbol
 _atom_site_label
 _atom_site_symmetry_multiplicity
 _atom_site_fract_x
 _atom_site_fract_y
 _atom_site_fract_z
 _atom_site_occupancy
  In  In0  1  0.18676442  0.33306690  0.50926583  1
  In  In1  1  0.32941519  0.67563908  0.00483452  1
  In  In2  1  0.18011932  0.14477779  0.33324129  1
  In  In3  1  0.48928977  0.30304717  0.83345280  1
  In  In4  1  0.00066482  0.82121403  0.81886291  1
  In  In5  1  0.81386694  0.13892520  0.03229711  1
  In  In6  1  0.50096852  0.35404434  0.16715565  1
  In  In7  1  0.49636826  0.32733194  0.48146635  1
  In  In8  1  0.14778881  0.15683315  0.00883534  1
  In  In9  1  0.49623811  0.67936589  0.18773172  1
  In  In10  1  0.66385636  0.13696059  0.19261900  1
  In  In11  1  0.16823061  0.68000478  0.82814515  1
  In  In12  1  0.83634231  0.48319783  0.03046084  1
  In  In13  1  -0.00515659  0.64330644  -0.00149685  1
  In  In14  1  0.81790162  0.50656698  0.32884735  1
  In  In15  1  0.33786177  0.32678437  0.66381268  1
  In  In16  1  0.47905692  0.12107610  0.35228432  1
  In  In17  1  0.66692370  0.69754422  0.02403612  1
  In  In18  1  0.48969430  0.68579990  0.79785558  1
  In  In19  1  0.32310718  0.15314100  0.17759450  1
  In  In20  1  -0.00328437  0.30930245  0.34019382  1
  In  In21  1  0.00659961  0.01096150  0.01354242  1
  In  In22  1  0.18591750  0.67308730  0.17158902  1
  In  In23  1  0.65147732  0.50240101  0.48074175  1
  In  In24  1  0.64166203  0.31731506  0.32480727  1
  In  In25  1  0.83245422  0.29350279  0.51005149  1
  In  In26  1  0.82446123  -0.00285525  0.46836376  1
  In  In27  1  0.49752372  0.13660788  0.66335807  1
  In  In28  1  0.83745712  0.84943652  0.64406530  1
  In  In29  1  0.00535994  0.31050863  0.00574326  1
  In  In30  1  0.64193194  0.84192902  0.48568100  1
  In  In31  1  0.49749679  0.16128792  -0.01319876  1
  In  In32  1  0.33444034  0.67108881  0.32682733  1
  In  In33  1  0.33775605  -0.00894139  0.00762945  1
  In  In34  1  0.80431507  0.15840218  0.66523087  1
  In  In35  1  0.51733506  0.86101942  0.01910068  1
  In  In36  1  0.04739255  0.49421709  0.83169229  1
  In  In37  1  0.00504161  0.35285957  0.69219893  1
  In  In38  1  0.01852052  0.71022614  0.33469571  1
  In  In39  1  0.30753253  0.48683978  0.85463555  1
  In  In40  1  0.00414105  -0.02167157  0.65791022  1
  In  In41  1  0.34827988  0.00650722  0.65877523  1
  In  In42  1  0.81609953  0.68130667  0.84679647  1
  In  In43  1  0.33743574  0.86199615  0.48715612  1
  In  In44  1  0.47482049  0.87359504  0.32618511  1
  In  In45  1  0.49233372  0.51251517  0.65251627  1
  In  In46  1  0.17945302  0.83335191  0.01049716  1
  In  In47  1  0.18608096  -0.00020975  0.82018190  1
  In  In48  1  0.02503434  0.14598207  0.48962212  1
  In  In49  1  0.19388660  0.15200866  0.65291888  1
  In  In50  1  0.69529358  0.48136246  0.81947317  1
  In  In51  1  0.83908165  0.50531671  0.69116607  1
  In  In52  1  0.83541483  0.33735216  0.83254198  1
  In  In53  1  0.03043410  0.65801597  0.65969504  1
  In  In54  1  0.48940208  0.50182080  0.01269613  1
  In  In55  1  0.65390445  0.68419869  0.63466290  1
  In  In56  1  0.80531644  0.86010997  0.01821155  1
  In  In57  1  0.81480633  0.68788307  0.47770727  1
  In  In58  1  0.64414087  0.14111896  0.82920304  1
  In  In59  1  0.00871720  0.85466054  0.19798277  1
  In  In60  1  0.83232449  0.31881477  0.13440691  1
  In  In61  1  0.01933967  0.84930536  0.48674059  1
  In  In62  1  0.18446344  0.51461925  0.33457702  1
  In  In63  1  0.67296569  0.33974460  0.00786280  1
  In  In64  1  0.15803965  0.32658934  0.19090530  1
  In  In65  1  0.65507940  0.68323075  0.34067568  1
  In  In66  1  0.01272893  0.51501441  0.51036985  1
  In  In67  1  0.63375000  0.86570435  0.80777387  1
  In  In68  1  0.01137940  0.16348604  0.87024118  1
  In  In69  1  0.33460411  0.69385222  0.64815156  1
  In  In70  1  -0.01172068  0.50166520  0.15076120  1
  In  In71  1  0.33646842  0.33857055  0.33539001  1
  Te  Te72  1  0.10890203  0.05678544  0.11096955  1
  Te  Te73  1  0.07852988  0.04798527  0.38942558  1
  Te  Te74  1  0.07753957  0.08739599  0.74884384  1
  Te  Te75  1  0.09079950  0.41346268  0.08182552  1
  Te  Te76  1  0.08812752  0.41068281  0.40864066  1
  Te  Te77  1  0.12663115  0.42981419  0.72499136  1
  Te  Te78  1  0.07507907  0.74966622  0.08598533  1
  Te  Te79  1  0.11047704  0.73441933  0.44851152  1
  Te  Te80  1  0.10747372  0.77506058  0.72202904  1
  Te  Te81  1  0.42839168  0.07813218  0.09576879  1
  Te  Te82  1  0.38763818  0.06475563  0.45436414  1
  Te  Te83  1  0.40846857  0.08540384  0.76967205  1
  Te  Te84  1  0.40026113  0.39851355  0.06838062  1
  Te  Te85  1  0.41595118  0.43276597  0.41695267  1
  Te  Te86  1  0.42462490  0.42462703  0.76093951  1
  Te  Te87  1  0.41692323  0.76688203  0.08959754  1
  Te  Te88  1  0.42638547  0.75893725  0.41378751  1
  Te  Te89  1  0.40118309  0.79035932  0.74254152  1
  Te  Te90  1  0.70778547  0.04020868  0.07910220  1
  Te  Te91  1  0.73869808  0.07087363  0.36769988  1
  Te  Te92  1  0.74833973  0.06120483  0.76061084  1
  Te  Te93  1  0.72507342  0.42865112  0.12043398  1
  Te  Te94  1  0.75337388  0.39846731  0.41801409  1
  Te  Te95  1  0.74743375  0.38264517  0.71497492  1
  Te  Te96  1  0.74149542  0.77728241  0.12238844  1
  Te  Te97  1  0.75567544  0.79527632  0.39206250  1
  Te  Te98  1  0.74344541  0.76212549  0.73837261  1
  Te  Te99  1  0.07138071  0.21396477  0.24691106  1
  Te  Te100  1  0.07982300  0.25250618  0.58688893  1
  Te  Te101  1  0.10802943  0.28083929  0.89262935  1
  Te  Te102  1  0.07297462  0.58398992  0.25032468  1
  Te  Te103  1  0.12508940  0.56899238  0.58946724  1
  Te  Te104  1  0.11855550  0.58123417  0.93581325  1
  Te  Te105  1  0.10936722  0.91388728  0.29104923  1
  Te  Te106  1  0.11171067  0.93017062  0.57051427  1
  Te  Te107  1  0.08415641  0.91818615  0.91263784  1
  Te  Te108  1  0.42844551  0.24133560  0.25503783  1
  Te  Te109  1  0.41784516  0.23369534  0.57369762  1
  Te  Te110  1  0.39575485  0.25839815  0.93759921  1
  Te  Te111  1  0.40857378  0.57374252  0.24154000  1
  Te  Te112  1  0.41784453  0.60191626  0.56353855  1
  Te  Te113  1  0.42498320  0.59428014  0.90704608  1
  Te  Te114  1  0.37611948  0.92800520  0.22711062  1
  Te  Te115  1  0.44823486  0.91945286  0.58036452  1
  Te  Te116  1  0.42957760  0.91928074  0.91465484  1
  Te  Te117  1  0.75443838  0.24775488  0.24763706  1
  Te  Te118  1  0.71787428  0.21376221  0.55881250  1
  Te  Te119  1  0.75463325  0.24252047  0.92182185  1
  Te  Te120  1  0.73750912  0.59934039  0.24877520  1
  Te  Te121  1  0.75871386  0.57894757  0.57873651  1
  Te  Te122  1  0.74801291  0.57353126  0.93365128  1
  Te  Te123  1  0.75740611  0.98198772  0.24175813  1
  Te  Te124  1  0.73252604  0.93462209  0.57734237  1
  Te  Te125  1  0.73449828  0.92242614  0.90262500  1
  Te  Te126  1  0.24243020  0.24800002  0.08937017  1
  Te  Te127  1  0.26562916  0.23527479  0.42276198  1
  Te  Te128  1  0.26109222  0.23629074  0.75230467  1
  Te  Te129  1  0.25585265  0.57604850  0.08522799  1
  Te  Te130  1  0.25560075  0.59783185  0.43150229  1
  Te  Te131  1  0.26915972  0.59382761  0.75348142  1
  Te  Te132  1  0.25102232  0.92007388  0.10932918  1
  Te  Te133  1  0.24245428  0.90210876  0.37431466  1
  Te  Te134  1  0.26355165  0.90745622  0.73530392  1
  Te  Te135  1  0.59070692  0.24030486  0.08967680  1
  Te  Te136  1  0.58220786  0.21339502  0.41993228  1
  Te  Te137  1  0.58926273  0.24698657  0.73565403  1
  Te  Te138  1  0.58327828  0.59051754  0.09432907  1
  Te  Te139  1  0.56195451  0.60425992  0.42500357  1
  Te  Te140  1  0.60367477  0.58427469  0.74871110  1
  Te  Te141  1  0.59607730  0.93504862  0.12083799  1
  Te  Te142  1  0.58020008  0.95147277  0.40289873  1
  Te  Te143  1  0.55574220  0.94755409  0.70537915  1
  Te  Te144  1  0.93417498  0.20976126  0.09787104  1
  Te  Te145  1  0.90593388  0.20738447  0.40688333  1
  Te  Te146  1  0.92023522  0.23806511  0.75054811  1
  Te  Te147  1  0.88921789  0.60838714  0.10416269  1
  Te  Te148  1  0.92034780  0.58910726  0.41166905  1
  Te  Te149  1  0.93464052  0.59783559  0.77169869  1
  Te  Te150  1  0.91359078  0.93197895  0.10413301  1
  Te  Te151  1  0.92536564  0.91801325  0.39108212  1
  Te  Te152  1  0.90371717  0.92408254  0.76097677  1
  Te  Te153  1  0.29550059  0.04670248  0.28697971  1
  Te  Te154  1  0.25999572  0.06722137  0.54702005  1
  Te  Te155  1  0.25435499  0.08997047  0.92172278  1
  Te  Te156  1  0.26313523  0.42867347  0.23557048  1
  Te  Te157  1  0.27921819  0.42836683  0.57284077  1
  Te  Te158  1  0.21784864  0.39211099  0.91964440  1
  Te  Te159  1  0.24505749  0.77597706  0.26267895  1
  Te  Te160  1  0.24095297  0.76692347  0.55483613  1
  Te  Te161  1  0.26729956  0.77118886  0.90289116  1
  Te  Te162  1  0.55733406  0.04083126  0.24816747  1
  Te  Te163  1  0.58734307  0.04326739  0.58910584  1
  Te  Te164  1  0.56958974  0.04971474  0.91892026  1
  Te  Te165  1  0.56899568  0.43400905  0.27114256  1
  Te  Te166  1  0.58193111  0.41059414  0.58086400  1
  Te  Te167  1  0.58355173  0.41625798  0.91092031  1
  Te  Te168  1  0.58281759  0.78625168  0.25224126  1
  Te  Te169  1  0.54850626  0.77160517  0.58029558  1
  Te  Te170  1  0.58514868  0.75126607  0.90674199  1
  Te  Te171  1  0.87559157  0.05838616  0.27915338  1
  Te  Te172  1  0.91322184  0.07398397  0.57777701  1
  Te  Te173  1  0.89964981  0.07335673  0.92104369  1
  Te  Te174  1  0.91681738  0.40298075  0.24644663  1
  Te  Te175  1  0.91797167  0.41206452  0.57407211  1
  Te  Te176  1  0.92811938  0.42586481  0.91808074  1
  Te  Te177  1  0.90745438  0.75910515  0.25196526  1
  Te  Te178  1  0.92231886  0.74044727  0.57851734  1
  Te  Te179  1  0.91684084  0.76407302  0.93510494  1
