# generated using pymatgen
data_In2Te3
_symmetry_space_group_name_H-M   'P 1'
_cell_length_a   18.91348435
_cell_length_b   18.94685615
_cell_length_c   18.94368814
_cell_angle_alpha   90.14845563
_cell_angle_beta   90.03606443
_cell_angle_gamma   89.97436368
_symmetry_Int_Tables_number   1
_chemical_formula_structural   In2Te3
_chemical_formula_sum   'In72 Te108'
_cell_volume   6788.46605677
_cell_formula_units_Z   36
loop_
 _symmetry_equiv_pos_site_id
 _symmetry_equiv_pos_as_xyz
  1  'x, y, z'
loop_
 _atom_site_type_symbol
 _atom_site_label
 _atom_site_symmetry_multiplicity
 _atom_site_fract_x
 _atom_site_fract_y
 _atom_site_fract_z
 _atom_site_occupancy
  In  In0  1  0.16507110  0.51642729  0.31852235  1
  In  In1  1  0.53137926  0.67609844  0.87462445  1
  In  In2  1  0.68625686  0.50733851  0.83334509  1
  In  In3  1  0.16596528  0.67619659  0.16877547  1
  In  In4  1  0.51282212  0.15835148  0.34237235  1
  In  In5  1  0.34398267  0.67448264  0.00674624  1
  In  In6  1  0.66305208  -0.02243814  0.02675698  1
  In  In7  1  0.47516518  0.00576520  0.87463684  1
  In  In8  1  0.50670363  0.65047786  0.18268127  1
  In  In9  1  -0.03248136  0.29961458  0.66545173  1
  In  In10  1  0.52293008  0.70147226  0.47754036  1
  In  In11  1  0.14480085  0.69188087  0.47487591  1
  In  In12  1  0.34242078  0.51015365  0.48670041  1
  In  In13  1  0.67083851  0.83173076  0.88674053  1
  In  In14  1  -0.01354022  0.17066161  0.48564085  1
  In  In15  1  0.52340597  0.32985971  0.50586227  1
  In  In16  1  0.69328092  0.65500101  0.68131474  1
  In  In17  1  0.12884132  0.16146618  0.00959874  1
  In  In18  1  0.16722519  0.32482895  0.83909811  1
  In  In19  1  0.15085276  0.14083036  0.66916831  1
  In  In20  1  0.30579584  0.65301088  0.64737875  1
  In  In21  1  -0.02098225  0.49032730  0.16662684  1
  In  In22  1  0.68615535  0.52576050  0.49610194  1
  In  In23  1  0.32407590  0.84587791  0.81145999  1
  In  In24  1  0.51369029  0.85752304  0.31187187  1
  In  In25  1  0.83729174  0.49408495  0.33325354  1
  In  In26  1  0.15161231  0.84750945  0.66626304  1
  In  In27  1  -0.00221743  0.48958216  0.51061800  1
  In  In28  1  -0.08424020  0.66840168  0.63231373  1
  In  In29  1  0.00163551  0.64636050  -0.00437171  1
  In  In30  1  0.17144781  -0.01249659  0.50880620  1
  In  In31  1  0.47589914  0.17353225  0.00456838  1
  In  In32  1  0.50545811  0.19490773  0.67282558  1
  In  In33  1  0.01187357  0.83034821  0.81790455  1
  In  In34  1  0.85719094  0.14888779  -0.02003238  1
  In  In35  1  0.17682717  0.16756749  0.30990760  1
  In  In36  1  0.67413339  0.16457100  0.82526786  1
  In  In37  1  -0.03034451  0.35486742  0.00028575  1
  In  In38  1  0.71919364  -0.00753181  0.33901148  1
  In  In39  1  0.69380593  0.84408777  0.47122427  1
  In  In40  1  0.32931700  0.52336329  0.15802845  1
  In  In41  1  0.66394029  0.16431351  0.16019970  1
  In  In42  1  0.32127104  0.17216245  0.84742412  1
  In  In43  1  -0.01419192  0.00609432  0.31948259  1
  In  In44  1  -0.00826346  0.00195695  0.66713805  1
  In  In45  1  0.13942900  0.30687449  0.15575681  1
  In  In46  1  0.68866736  0.65887511  0.32564553  1
  In  In47  1  0.84401711  0.66442484  0.83391747  1
  In  In48  1  0.49170878  0.04861971  0.48971391  1
  In  In49  1  0.33344474  -0.01186339  0.00328741  1
  In  In50  1  0.34706628  0.33357076  -0.02313682  1
  In  In51  1  0.35925043  0.84749838  0.48241764  1
  In  In52  1  0.33053951  0.15120288  0.17016110  1
  In  In53  1  0.82989287  0.33125768  0.83071111  1
  In  In54  1  0.15692689  0.85057566  -0.01101514  1
  In  In55  1  0.68832278  -0.00223709  0.68477834  1
  In  In56  1  0.53627225  0.36586429  0.18791299  1
  In  In57  1  0.32675710  -0.02258241  0.67033566  1
  In  In58  1  0.84616238  0.83099271  0.30565251  1
  In  In59  1  -0.02011474  0.15908739  0.16434413  1
  In  In60  1  0.52507580  0.81964293  0.69772666  1
  In  In61  1  0.17601808  0.35320831  0.49606432  1
  In  In62  1  0.16330507  0.47536261  0.67299188  1
  In  In63  1  0.69784347  0.36982492  0.03261641  1
  In  In64  1  0.80241716  0.19216443  0.35450045  1
  In  In65  1  0.83976158  0.84710568  0.06100106  1
  In  In66  1  0.51384331  0.51151252  0.01172721  1
  In  In67  1  0.72288227  0.31631879  0.62095391  1
  In  In68  1  0.14465721  0.82758846  0.32840550  1
  In  In69  1  0.48989341  0.46320967  0.69733513  1
  In  In70  1  0.14344922  0.65083997  0.82951260  1
  In  In71  1  0.34084944  0.33797628  0.31972460  1
  Te  Te72  1  0.06960073  0.06042117  0.09993838  1
  Te  Te73  1  0.09277625  0.07945815  0.41449070  1
  Te  Te74  1  0.05242815  0.09427538  0.76764147  1
  Te  Te75  1  0.08415186  0.42158494  0.07624864  1
  Te  Te76  1  0.08229057  0.41912105  0.39905312  1
  Te  Te77  1  0.06271080  0.39075684  0.74593244  1
  Te  Te78  1  0.07595859  0.75267058  0.07409728  1
  Te  Te79  1  0.03191543  0.74929296  0.39440481  1
  Te  Te80  1  0.07454768  0.72729575  0.71678396  1
  Te  Te81  1  0.44494748  0.06600585  0.10680228  1
  Te  Te82  1  0.39358383  0.08311099  0.38799488  1
  Te  Te83  1  0.40844323  0.07771607  0.75800424  1
  Te  Te84  1  0.41558492  0.41338157  0.08779500  1
  Te  Te85  1  0.43314531  0.41591515  0.40974276  1
  Te  Te86  1  0.41041016  0.37818200  0.78103635  1
  Te  Te87  1  0.40715750  0.74040074  0.11972337  1
  Te  Te88  1  0.42015139  0.75398033  0.38022919  1
  Te  Te89  1  0.40168734  0.73940420  0.73612570  1
  Te  Te90  1  0.76213627  0.07937276  0.08157686  1
  Te  Te91  1  0.73195529  0.09672398  0.44782404  1
  Te  Te92  1  0.77944098  0.07583424  0.77197415  1
  Te  Te93  1  0.77238411  0.47303250  0.10722410  1
  Te  Te94  1  0.73110167  0.41359285  0.40902538  1
  Te  Te95  1  0.75674276  0.42038660  0.73076784  1
  Te  Te96  1  0.73853424  0.74223104  0.03702390  1
  Te  Te97  1  0.78034740  0.73171341  0.42219962  1
  Te  Te98  1  0.74553637  0.76442955  0.76954292  1
  Te  Te99  1  0.05584883  0.24717183  0.26546181  1
  Te  Te100  1  0.09274394  0.25109859  0.57516337  1
  Te  Te101  1  0.05684344  0.25723582  0.91894866  1
  Te  Te102  1  0.05913055  0.59705535  0.24629046  1
  Te  Te103  1  0.11303315  0.57216802  0.56713949  1
  Te  Te104  1  0.05859329  0.55327873  0.89682647  1
  Te  Te105  1  0.05038977  0.90025023  0.23279109  1
  Te  Te106  1  0.05859602  0.90431052  0.56150840  1
  Te  Te107  1  0.05379597  0.93578978  0.91932748  1
  Te  Te108  1  0.43401481  0.25059696  0.23680736  1
  Te  Te109  1  0.41883405  0.24826191  0.56969555  1
  Te  Te110  1  0.44898552  0.26142404  0.87860828  1
  Te  Te111  1  0.42148717  0.56016068  0.26374937  1
  Te  Te112  1  0.42550415  0.61329583  0.56195740  1
  Te  Te113  1  0.41949155  0.58090952  0.91394677  1
  Te  Te114  1  0.43340012  0.93451591  0.21550447  1
  Te  Te115  1  0.43958358  0.90467753  0.59888705  1
  Te  Te116  1  0.41470775  0.87888558  0.92910604  1
  Te  Te117  1  0.73334507  0.26863219  0.24311627  1
  Te  Te118  1  0.77612056  0.18691027  0.57221589  1
  Te  Te119  1  0.74100823  0.25216848  0.93453291  1
  Te  Te120  1  0.77695901  0.58738214  0.22950220  1
  Te  Te121  1  0.78937353  0.58326614  0.59091183  1
  Te  Te122  1  0.73702637  0.61267509  0.92506693  1
  Te  Te123  1  0.74580591  0.90207031  0.22501225  1
  Te  Te124  1  0.76400732  0.91613967  0.58358378  1
  Te  Te125  1  0.77659649  0.92508761  0.93818483  1
  Te  Te126  1  0.25514107  0.24503835  0.07055686  1
  Te  Te127  1  0.25388961  0.25325016  0.41002695  1
  Te  Te128  1  0.24503640  0.24209592  0.73753770  1
  Te  Te129  1  0.23247321  0.58753515  0.06187528  1
  Te  Te130  1  0.25131205  0.60358862  0.40768992  1
  Te  Te131  1  0.25204339  0.56578699  0.75751676  1
  Te  Te132  1  0.25197207  0.90292233  0.08898788  1
  Te  Te133  1  0.25180531  0.91660675  0.40182064  1
  Te  Te134  1  0.21471720  0.94160876  0.76651885  1
  Te  Te135  1  0.57964606  0.26661375  0.07675939  1
  Te  Te136  1  0.60584116  0.24298159  0.41992025  1
  Te  Te137  1  0.62231191  0.27051222  0.73020889  1
  Te  Te138  1  0.60468685  0.56087783  0.11551336  1
  Te  Te139  1  0.58137533  0.58357936  0.40191661  1
  Te  Te140  1  0.57271613  0.58940412  0.75300029  1
  Te  Te141  1  0.54623050  0.93537067  0.10656111  1
  Te  Te142  1  0.57567717  0.93098320  0.43054228  1
  Te  Te143  1  0.58336275  0.92824211  0.78584389  1
  Te  Te144  1  0.89368249  0.25457590  0.08413973  1
  Te  Te145  1  0.90054351  0.27684643  0.42928577  1
  Te  Te146  1  0.88899578  0.21621464  0.75908884  1
  Te  Te147  1  0.89462172  0.57242035  0.07202202  1
  Te  Te148  1  0.91557342  0.57812121  0.42735252  1
  Te  Te149  1  0.91875823  0.57416029  0.74311085  1
  Te  Te150  1  0.94659082  0.92817409  0.11946856  1
  Te  Te151  1  0.88250072  0.93997657  0.40098376  1
  Te  Te152  1  0.91307943  0.89684683  0.73298259  1
  Te  Te153  1  0.22854944  0.06091775  0.22351666  1
  Te  Te154  1  0.26492097  0.08241130  0.58038652  1
  Te  Te155  1  0.23641092  0.08087389  0.93038276  1
  Te  Te156  1  0.23671110  0.40783139  0.23229770  1
  Te  Te157  1  0.27890626  0.41701627  0.58789010  1
  Te  Te158  1  0.24847344  0.42106218  0.91496958  1
  Te  Te159  1  0.25182523  0.75433325  0.25816851  1
  Te  Te160  1  0.25042341  0.77302540  0.56925799  1
  Te  Te161  1  0.23743076  0.74929812  0.89827150  1
  Te  Te162  1  0.60805407  0.07010615  0.26309686  1
  Te  Te163  1  0.57954581  0.07980421  0.60857160  1
  Te  Te164  1  0.59067248  0.08778422  0.93253857  1
  Te  Te165  1  0.64999767  0.40201202  0.27419902  1
  Te  Te166  1  0.59041470  0.44129484  0.58595563  1
  Te  Te167  1  0.60216075  0.42132082  0.92504300  1
  Te  Te168  1  0.60603058  0.75705877  0.24512524  1
  Te  Te169  1  0.61451170  0.75596028  0.58760731  1
  Te  Te170  1  0.58742359  0.75670968  0.98744211  1
  Te  Te171  1  0.88003756  0.09726473  0.25927752  1
  Te  Te172  1  0.90369290  0.09184819  0.58071304  1
  Te  Te173  1  0.96185961  0.06207820  0.92319266  1
  Te  Te174  1  0.91667748  0.39461131  0.25694180  1
  Te  Te175  1  0.90142997  0.38875320  0.56693801  1
  Te  Te176  1  0.88480003  0.43817242  0.91483419  1
  Te  Te177  1  0.94793444  0.73418787  0.26295233  1
  Te  Te178  1  0.85715229  0.78380517  0.56672717  1
  Te  Te179  1  0.92678523  0.75822933  0.92170099  1
