# generated using pymatgen
data_In2Te3
_symmetry_space_group_name_H-M   'P 1'
_cell_length_a   18.78086698
_cell_length_b   18.78555134
_cell_length_c   18.78280593
_cell_angle_alpha   90.07720572
_cell_angle_beta   89.91031043
_cell_angle_gamma   89.96921748
_symmetry_Int_Tables_number   1
_chemical_formula_structural   In2Te3
_chemical_formula_sum   'In72 Te108'
_cell_volume   6626.72676702
_cell_formula_units_Z   36
loop_
 _symmetry_equiv_pos_site_id
 _symmetry_equiv_pos_as_xyz
  1  'x, y, z'
loop_
 _atom_site_type_symbol
 _atom_site_label
 _atom_site_symmetry_multiplicity
 _atom_site_fract_x
 _atom_site_fract_y
 _atom_site_fract_z
 _atom_site_occupancy
  In  In0  1  0.65981603  0.86499601  0.13801424  1
  In  In1  1  0.36490875  0.01998443  0.02604309  1
  In  In2  1  0.15656895  0.84147301  0.66125439  1
  In  In3  1  0.33108835  0.65874396  0.33441277  1
  In  In4  1  0.65652166  0.82534560  0.47318714  1
  In  In5  1  0.50091037  0.85977125  0.32538359  1
  In  In6  1  0.18516042  0.66626089  0.81055222  1
  In  In7  1  0.81708967  0.67941213  0.17459088  1
  In  In8  1  0.33381924  0.16020031  0.83781180  1
  In  In9  1  0.66813065  0.65757980  0.33141596  1
  In  In10  1  0.36266867  0.65287022  0.64481931  1
  In  In11  1  0.82557941  0.00850557  0.50287230  1
  In  In12  1  0.51863939  0.82777126  0.66425281  1
  In  In13  1  0.36629774  0.32838049  0.29943952  1
  In  In14  1  -0.00741094  0.53423762  0.46428468  1
  In  In15  1  0.35594539  0.14778376  0.47693766  1
  In  In16  1  0.15562447  0.82805661  0.00519236  1
  In  In17  1  -0.00307323  0.68379953  -0.01181075  1
  In  In18  1  0.48167074  0.49112232  0.66013035  1
  In  In19  1  0.34012730  0.50860164  0.82500089  1
  In  In20  1  0.65258338  0.49569172  0.47891834  1
  In  In21  1  0.82043597  0.83656318  0.29564421  1
  In  In22  1  0.83014350  0.16224620  0.01063450  1
  In  In23  1  0.85510565  0.82868204  0.67239408  1
  In  In24  1  0.00946725  0.84273035  0.83282011  1
  In  In25  1  0.65972410  0.01095040  0.66335574  1
  In  In26  1  0.17391572  0.31527163  0.82917335  1
  In  In27  1  0.67489149  0.50041122  0.85218165  1
  In  In28  1  0.35435517  0.85830481  0.87323419  1
  In  In29  1  0.33991077  0.01341482  0.66677083  1
  In  In30  1  0.19216610  0.51136206  0.00142728  1
  In  In31  1  0.82180170  0.65535345  0.84969510  1
  In  In32  1  0.01526442  0.33173336  0.31068146  1
  In  In33  1  -0.02071213  0.83693048  0.14056898  1
  In  In34  1  -0.00694594  0.00847068  0.31965476  1
  In  In35  1  0.50061019  0.65384114  0.17122468  1
  In  In36  1  0.82326743  0.15324963  0.31450923  1
  In  In37  1  0.67582497  0.86405144  0.87572244  1
  In  In38  1  0.01245207  0.15647677  0.84437252  1
  In  In39  1  0.17750910  0.16940614  0.33115532  1
  In  In40  1  0.65286773  0.33908056  0.03926179  1
  In  In41  1  0.51155502  0.68677797  0.84563291  1
  In  In42  1  0.20439909  0.36038541  0.51969324  1
  In  In43  1  0.00623198  0.50510696  0.17497554  1
  In  In44  1  0.84340000  0.30903994  0.86479379  1
  In  In45  1  0.82042151  0.14718554  0.67739357  1
  In  In46  1  0.35330112  0.33101188  0.04690870  1
  In  In47  1  0.62886884  0.35622472  0.30527385  1
  In  In48  1  0.64494989  0.14622843  0.17816332  1
  In  In49  1  0.35249570  0.83005713  0.18135807  1
  In  In50  1  0.81439945  0.34473333  0.47036877  1
  In  In51  1  0.47091101  0.32871011  0.49940862  1
  In  In52  1  0.68112777  0.66189412  0.65838383  1
  In  In53  1  0.63806399  0.13372784  0.85101326  1
  In  In54  1  0.65797465  0.30732180  0.69546318  1
  In  In55  1  0.17497032  0.02536230  0.16292334  1
  In  In56  1  0.17072602  0.00834131  0.84251841  1
  In  In57  1  0.01826952  0.32492681  0.64756513  1
  In  In58  1  0.33753690  0.85086553  0.48352047  1
  In  In59  1  0.34279276  0.65450478  0.03015301  1
  In  In60  1  0.00646025  0.83153098  0.50955206  1
  In  In61  1  0.17661997  0.84219189  0.34493005  1
  In  In62  1  0.79906637  0.50156437  0.00769822  1
  In  In63  1  0.49942351  0.32487291  0.83029566  1
  In  In64  1  0.17721049  0.47441273  0.32107764  1
  In  In65  1  -0.00777964  0.16235161  0.17239032  1
  In  In66  1  0.16168220  0.65617757  0.49808965  1
  In  In67  1  -0.00389252  0.49077506  0.80896211  1
  In  In68  1  0.83392701  0.50569865  0.65932160  1
  In  In69  1  0.00823098  0.17129913  0.50911668  1
  In  In70  1  0.00045902  0.31609161  0.00764954  1
  In  In71  1  0.65100352  0.15938549  0.49465429  1
  Te  Te72  1  0.06916627  0.07983305  0.07646010  1
  Te  Te73  1  0.08785171  0.07815416  0.41621111  1
  Te  Te74  1  0.09573142  0.08786769  0.74421229  1
  Te  Te75  1  0.08713619  0.42307011  0.07334679  1
  Te  Te76  1  0.07985355  0.40129187  0.42960320  1
  Te  Te77  1  0.10495622  0.41610780  0.73479066  1
  Te  Te78  1  0.09014563  0.72938748  0.09896444  1
  Te  Te79  1  0.07745864  0.74336235  0.40534584  1
  Te  Te80  1  0.07313191  0.73983444  0.73815273  1
  Te  Te81  1  0.42422874  0.13008919  0.10690550  1
  Te  Te82  1  0.45760380  0.06744738  0.40252852  1
  Te  Te83  1  0.42356915  0.05621264  0.77977630  1
  Te  Te84  1  0.43842176  0.44463272  0.09261721  1
  Te  Te85  1  0.41771178  0.42434225  0.40123409  1
  Te  Te86  1  0.39584125  0.38972531  0.73743482  1
  Te  Te87  1  0.44045243  0.76123716  0.07796978  1
  Te  Te88  1  0.42589576  0.75235523  0.40904568  1
  Te  Te89  1  0.40821201  0.75368564  0.75326776  1
  Te  Te90  1  0.72177752  0.07342955  0.06816460  1
  Te  Te91  1  0.72970016  0.06816292  0.40006724  1
  Te  Te92  1  0.75197767  0.05881184  0.77862062  1
  Te  Te93  1  0.75154891  0.41698031  0.11859611  1
  Te  Te94  1  0.74662143  0.43590767  0.37222048  1
  Te  Te95  1  0.75855116  0.41429562  0.75688655  1
  Te  Te96  1  0.74715597  0.76248456  0.07370329  1
  Te  Te97  1  0.77248285  0.74407572  0.41145452  1
  Te  Te98  1  0.73739720  0.75816343  0.76267072  1
  Te  Te99  1  0.10756748  0.25411713  0.21724037  1
  Te  Te100  1  0.12467289  0.23951785  0.58019911  1
  Te  Te101  1  0.10716491  0.23254503  0.93951498  1
  Te  Te102  1  0.08395737  0.57972360  0.27628717  1
  Te  Te103  1  0.07327660  0.57242598  0.58124605  1
  Te  Te104  1  0.08777402  0.58419803  0.90300570  1
  Te  Te105  1  0.08398664  0.91504761  0.23774616  1
  Te  Te106  1  0.09148891  0.93565632  0.56996856  1
  Te  Te107  1  0.07281219  0.93469980  0.93702164  1
  Te  Te108  1  0.45080713  0.22577724  0.22918605  1
  Te  Te109  1  0.40729969  0.23136729  0.58896496  1
  Te  Te110  1  0.41768876  0.24772571  0.93268704  1
  Te  Te111  1  0.41232660  0.56332355  0.25302441  1
  Te  Te112  1  0.43594174  0.57168300  0.54444206  1
  Te  Te113  1  0.42890168  0.58279162  0.92347308  1
  Te  Te114  1  0.41114423  0.94996734  0.24676583  1
  Te  Te115  1  0.43105095  0.92131332  0.58162631  1
  Te  Te116  1  0.46364354  0.93395208  0.94568002  1
  Te  Te117  1  0.73181961  0.25271359  0.24729312  1
  Te  Te118  1  0.75685073  0.24596616  0.57833401  1
  Te  Te119  1  0.71713145  0.25053513  0.92279208  1
  Te  Te120  1  0.72774497  0.57196583  0.22449063  1
  Te  Te121  1  0.76037725  0.58425914  0.55104262  1
  Te  Te122  1  0.71225542  0.61246739  0.94891898  1
  Te  Te123  1  0.72312366  0.93713341  0.25157786  1
  Te  Te124  1  0.74182846  0.90593987  0.58334729  1
  Te  Te125  1  0.76243921  0.94645738  0.96681480  1
  Te  Te126  1  0.24768993  0.26220142  0.12234510  1
  Te  Te127  1  0.26372369  0.27025780  0.40734188  1
  Te  Te128  1  0.25178211  0.23121648  0.73695771  1
  Te  Te129  1  0.25274666  0.57805152  0.11785843  1
  Te  Te130  1  0.25424667  0.56097781  0.42378620  1
  Te  Te131  1  0.25023623  0.56983557  0.71230242  1
  Te  Te132  1  0.26012649  0.91064451  0.08020348  1
  Te  Te133  1  0.26092652  0.94780328  0.40323352  1
  Te  Te134  1  0.25326307  0.90340994  0.76323046  1
  Te  Te135  1  0.55344923  0.24007959  0.09679582  1
  Te  Te136  1  0.57337242  0.25822247  0.40853086  1
  Te  Te137  1  0.55430406  0.20892466  0.74530995  1
  Te  Te138  1  0.56559517  0.54135953  0.09415539  1
  Te  Te139  1  0.56082524  0.58149801  0.40147373  1
  Te  Te140  1  0.58234702  0.57792879  0.74929551  1
  Te  Te141  1  0.55616890  0.95793218  0.08295035  1
  Te  Te142  1  0.56904018  0.93980814  0.43342594  1
  Te  Te143  1  0.58476887  0.92064638  0.76419080  1
  Te  Te144  1  0.89630794  0.26350763  0.10398800  1
  Te  Te145  1  0.91592930  0.23790204  0.40518889  1
  Te  Te146  1  0.91960887  0.25288867  0.74082652  1
  Te  Te147  1  0.91160151  0.58987747  0.07410695  1
  Te  Te148  1  0.87538980  0.60462671  0.41729947  1
  Te  Te149  1  0.91766369  0.60344378  0.74201953  1
  Te  Te150  1  0.88093955  0.91189153  0.06458078  1
  Te  Te151  1  0.90809875  0.91727248  0.41018520  1
  Te  Te152  1  0.92443498  0.93142460  0.75007125  1
  Te  Te153  1  0.27391266  0.08618893  0.25314701  1
  Te  Te154  1  0.25769560  0.07082050  0.55961542  1
  Te  Te155  1  0.25301811  0.08604775  0.94557640  1
  Te  Te156  1  0.25623803  0.39533537  0.21817176  1
  Te  Te157  1  0.29532281  0.43600487  0.60591634  1
  Te  Te158  1  0.26851707  0.40719383  0.91920344  1
  Te  Te159  1  0.24292284  0.74605358  0.24550206  1
  Te  Te160  1  0.25708893  0.75425471  0.57953645  1
  Te  Te161  1  0.25587777  0.74008162  0.92433857  1
  Te  Te162  1  0.54005116  0.08937859  0.27071782  1
  Te  Te163  1  0.56042178  0.08972111  0.58789934  1
  Te  Te164  1  0.57480149  0.06103146  0.96553210  1
  Te  Te165  1  0.54366519  0.43661872  0.21111897  1
  Te  Te166  1  0.59549047  0.40345099  0.59178723  1
  Te  Te167  1  0.57428140  0.41544123  0.92769493  1
  Te  Te168  1  0.58965521  0.76247079  0.24472835  1
  Te  Te169  1  0.57938095  0.72881695  0.56551271  1
  Te  Te170  1  0.58792931  0.76478772  0.94556780  1
  Te  Te171  1  0.89004129  0.05624564  0.21779256  1
  Te  Te172  1  0.92779260  0.07335254  0.59594580  1
  Te  Te173  1  0.90678691  0.08066140  0.91401127  1
  Te  Te174  1  0.91346895  0.42078561  0.25453891  1
  Te  Te175  1  0.91337553  0.40835369  0.56945423  1
  Te  Te176  1  0.91780351  0.43143284  0.92671600  1
  Te  Te177  1  0.93267655  0.74245900  0.25096577  1
  Te  Te178  1  0.91640840  0.73569303  0.57705775  1
  Te  Te179  1  0.89826980  0.77158966  0.91425374  1
