# generated using pymatgen
data_In2Te3
_symmetry_space_group_name_H-M   'P 1'
_cell_length_a   18.91648497
_cell_length_b   18.91963917
_cell_length_c   18.88058014
_cell_angle_alpha   89.94321949
_cell_angle_beta   90.07269742
_cell_angle_gamma   89.74551174
_symmetry_Int_Tables_number   1
_chemical_formula_structural   In2Te3
_chemical_formula_sum   'In72 Te108'
_cell_volume   6757.15333927
_cell_formula_units_Z   36
loop_
 _symmetry_equiv_pos_site_id
 _symmetry_equiv_pos_as_xyz
  1  'x, y, z'
loop_
 _atom_site_type_symbol
 _atom_site_label
 _atom_site_symmetry_multiplicity
 _atom_site_fract_x
 _atom_site_fract_y
 _atom_site_fract_z
 _atom_site_occupancy
  In  In0  1  0.12805012  0.17203614  0.01259925  1
  In  In1  1  0.00201698  0.02015911  0.00228538  1
  In  In2  1  0.77818170  0.17037440  0.56872846  1
  In  In3  1  0.33264079  0.16804086  0.51212227  1
  In  In4  1  0.12876031  0.14784185  0.64444070  1
  In  In5  1  0.52720331  -0.01160425  0.20748540  1
  In  In6  1  0.68859216  0.01293223  0.02004492  1
  In  In7  1  0.81789772  0.50894459  0.00027922  1
  In  In8  1  0.16068058  0.31671760  0.15894026  1
  In  In9  1  0.17809727  -0.02597563  0.15546447  1
  In  In10  1  0.17711770  0.50470325  0.67115895  1
  In  In11  1  0.00907411  0.16507120  0.83011061  1
  In  In12  1  0.80225669  0.48454026  0.65747582  1
  In  In13  1  -0.01095269  0.68467547  0.65760167  1
  In  In14  1  0.08780494  0.13314641  0.34328502  1
  In  In15  1  0.84780945  0.84339070  0.32357725  1
  In  In16  1  0.86234036  0.02049919  0.20397390  1
  In  In17  1  -0.01974222  0.50004608  0.85375930  1
  In  In18  1  0.65886341  0.17502075  0.84549446  1
  In  In19  1  0.53258419  0.79448531  0.64251173  1
  In  In20  1  0.14910362  0.72112824  0.50046037  1
  In  In21  1  0.48281443  -0.05777621  0.83327883  1
  In  In22  1  0.83689724  0.33986360  0.83978735  1
  In  In23  1  0.33199674  0.01271822  0.66790568  1
  In  In24  1  0.01483548  0.51578101  0.18012169  1
  In  In25  1  0.52482620  0.55598147  0.68593119  1
  In  In26  1  0.33868162  0.67468159  -0.00452876  1
  In  In27  1  0.33915271  0.68841462  0.34629031  1
  In  In28  1  0.49246676  0.18679121  0.35245006  1
  In  In29  1  -0.02889006  0.51001215  0.50345000  1
  In  In30  1  0.17963033  0.49781506  -0.01215674  1
  In  In31  1  0.52009549  0.37283561  0.49655221  1
  In  In32  1  0.51107427  0.64693418  0.16126175  1
  In  In33  1  0.67045670  0.18022387  0.18106076  1
  In  In34  1  0.83696258  0.66871001  0.83487490  1
  In  In35  1  0.68002333  0.34525754  0.32851441  1
  In  In36  1  0.00587333  0.83615110  0.17539890  1
  In  In37  1  0.31541961  -0.02155945  0.31185346  1
  In  In38  1  0.82856433  0.64402057  0.49192574  1
  In  In39  1  0.81757010  0.81222014  0.02951542  1
  In  In40  1  0.82044984  0.49860111  0.32520693  1
  In  In41  1  0.14359304  0.34020404  0.53020712  1
  In  In42  1  0.37176453  0.51608518  0.51024220  1
  In  In43  1  0.37741461  0.37819929  0.00985694  1
  In  In44  1  0.80501796  0.85410212  0.63346291  1
  In  In45  1  0.02357567  0.83819449  0.83172834  1
  In  In46  1  0.68105377  0.81910033  0.17413440  1
  In  In47  1  0.31794166  0.15205757  0.16156009  1
  In  In48  1  0.01923715  0.65604011  0.01255698  1
  In  In49  1  0.84258246  0.00670501  0.80978200  1
  In  In50  1  0.34271156  0.31198215  0.68113334  1
  In  In51  1  0.33709959  0.51805810  0.83507534  1
  In  In52  1  0.00633523  -0.03134855  0.58609942  1
  In  In53  1  0.68137733  -0.00362209  0.62549108  1
  In  In54  1  -0.00219184  0.33945410  0.67685518  1
  In  In55  1  0.51244589  0.13670295  0.67383601  1
  In  In56  1  0.66789548  0.82940187  0.83689260  1
  In  In57  1  0.49908514  0.14445177  -0.00223650  1
  In  In58  1  0.51575270  0.33681460  0.81945953  1
  In  In59  1  -0.03778311  0.33036721  0.36434684  1
  In  In60  1  0.49831323  -0.03834150  0.47471224  1
  In  In61  1  0.17858825  0.50813560  0.33004941  1
  In  In62  1  0.32914608  0.83325788  0.49953292  1
  In  In63  1  0.66111359  0.35735921  0.00520897  1
  In  In64  1  0.31128322  0.30618539  0.32043604  1
  In  In65  1  0.30085889  0.18539854  0.84540372  1
  In  In66  1  0.50948122  0.50854061  0.33187443  1
  In  In67  1  0.18092304  0.01347725  0.83519702  1
  In  In68  1  0.33759494  0.82063830  0.82823940  1
  In  In69  1  0.19750505  0.68614231  0.16616225  1
  In  In70  1  0.65871198  0.63793468  0.32631776  1
  In  In71  1  0.49129688  0.82534178  -0.01071251  1
  Te  Te72  1  0.06742789  0.08248648  0.12854941  1
  Te  Te73  1  0.04979991  0.04049666  0.45931432  1
  Te  Te74  1  0.06437616  0.05002955  0.74041027  1
  Te  Te75  1  0.08421196  0.42382477  0.08039093  1
  Te  Te76  1  0.08157595  0.42685669  0.41837363  1
  Te  Te77  1  0.08503960  0.42577332  0.76337688  1
  Te  Te78  1  0.10064906  0.76437968  0.07737850  1
  Te  Te79  1  0.04299610  0.78619876  0.42001609  1
  Te  Te80  1  0.09020942  0.73684831  0.74991135  1
  Te  Te81  1  0.43433808  0.06726082  0.11033056  1
  Te  Te82  1  0.40462332  0.07672867  0.41302730  1
  Te  Te83  1  0.40768707  0.08979729  0.77457535  1
  Te  Te84  1  0.46386010  0.43218114  0.11769271  1
  Te  Te85  1  0.40255841  0.40361653  0.40250254  1
  Te  Te86  1  0.42368483  0.42762802  0.73597740  1
  Te  Te87  1  0.41764889  0.75235774  0.10012352  1
  Te  Te88  1  0.43677194  0.76999733  0.42065813  1
  Te  Te89  1  0.44757235  0.74928883  0.75728447  1
  Te  Te90  1  0.77736982  0.10257883  0.10111309  1
  Te  Te91  1  0.80030440  0.07759006  0.45573411  1
  Te  Te92  1  0.73373566  0.08733400  0.74222699  1
  Te  Te93  1  0.73862061  0.43674776  0.10425098  1
  Te  Te94  1  0.74940860  0.42506605  0.43503281  1
  Te  Te95  1  0.73333278  0.41209793  0.76434307  1
  Te  Te96  1  0.71071901  0.72181295  0.06680927  1
  Te  Te97  1  0.76133212  0.73080158  0.38681873  1
  Te  Te98  1  0.75403618  0.75273636  0.73794956  1
  Te  Te99  1  0.07458008  0.27110271  0.27617936  1
  Te  Te100  1  0.03726706  0.23758797  0.56394035  1
  Te  Te101  1  0.08150531  0.26591720  0.90769925  1
  Te  Te102  1  0.09705750  0.61556199  0.25954725  1
  Te  Te103  1  0.08284602  0.58255403  0.57609453  1
  Te  Te104  1  0.09491133  0.58922895  0.89969822  1
  Te  Te105  1  0.08969153  0.92105180  0.26094858  1
  Te  Te106  1  0.10015862  0.85526572  0.56414058  1
  Te  Te107  1  0.09856642  0.92663075  0.93066308  1
  Te  Te108  1  0.42045526  0.24543212  0.23384694  1
  Te  Te109  1  0.43978627  0.25138493  0.58024089  1
  Te  Te110  1  0.42762560  0.25210395  0.91108724  1
  Te  Te111  1  0.40517077  0.58595899  0.25385425  1
  Te  Te112  1  0.41346363  0.61850724  0.60716763  1
  Te  Te113  1  0.43431209  0.58125923  0.92793036  1
  Te  Te114  1  0.43049344  0.89722006  0.26847904  1
  Te  Te115  1  0.42831334  0.91423204  0.60421942  1
  Te  Te116  1  0.37770367  0.92454533  0.94817020  1
  Te  Te117  1  0.77440403  0.25546120  0.25612105  1
  Te  Te118  1  0.72027365  0.30181055  0.53852320  1
  Te  Te119  1  0.75065796  0.25337361  0.93424719  1
  Te  Te120  1  0.72713532  0.55560771  0.22286568  1
  Te  Te121  1  0.73068521  0.60433046  0.59854800  1
  Te  Te122  1  0.73789534  0.57442724  0.89180580  1
  Te  Te123  1  0.74795474  0.93635613  0.25263537  1
  Te  Te124  1  0.71720718  0.89813798  0.51354915  1
  Te  Te125  1  0.76359875  0.91813754  0.91657927  1
  Te  Te126  1  0.28261610  0.27497288  0.07536230  1
  Te  Te127  1  0.22964495  0.25109737  0.43672110  1
  Te  Te128  1  0.21834088  0.24037622  0.73025411  1
  Te  Te129  1  0.26436550  0.57404536  0.08630195  1
  Te  Te130  1  0.25779143  0.58480373  0.43346287  1
  Te  Te131  1  0.25660383  0.60247332  0.74525495  1
  Te  Te132  1  0.28442473  0.91974569  0.07597127  1
  Te  Te133  1  0.23958492  0.92310116  0.42451724  1
  Te  Te134  1  0.24620928  0.91252874  0.74162213  1
  Te  Te135  1  0.58130476  0.24451116  0.07562756  1
  Te  Te136  1  0.60190938  0.25436975  0.43384799  1
  Te  Te137  1  0.59926628  0.25048205  0.72570806  1
  Te  Te138  1  0.54253612  0.54701014  0.05374534  1
  Te  Te139  1  0.57014475  0.59362295  0.43844584  1
  Te  Te140  1  0.60430728  0.62391916  0.79042492  1
  Te  Te141  1  0.59115611  0.91123617  0.07709046  1
  Te  Te142  1  0.61507704  0.91516888  0.40189667  1
  Te  Te143  1  0.59525256  0.91670896  0.72941736  1
  Te  Te144  1  0.99840100  0.20888355  0.07504039  1
  Te  Te145  1  0.87330008  0.21462907  0.39803767  1
  Te  Te146  1  0.90505236  0.24087498  0.74538635  1
  Te  Te147  1  0.91229368  0.59000358  0.09343323  1
  Te  Te148  1  0.92637078  0.59219041  0.38544080  1
  Te  Te149  1  0.91385581  0.56881478  0.73408574  1
  Te  Te150  1  0.90859253  0.92725530  0.08225354  1
  Te  Te151  1  0.95738926  0.91468019  0.39718695  1
  Te  Te152  1  0.91416789  0.89292415  0.73982937  1
  Te  Te153  1  0.22905561  0.10230614  0.27262715  1
  Te  Te154  1  0.23238725  0.06701855  0.56716312  1
  Te  Te155  1  0.24383828  0.09291448  0.94927427  1
  Te  Te156  1  0.25206334  0.41720530  0.23458211  1
  Te  Te157  1  0.27009840  0.41205696  0.58051107  1
  Te  Te158  1  0.26664120  0.40353636  0.90556020  1
  Te  Te159  1  0.24429667  0.77508955  0.27273005  1
  Te  Te160  1  0.26843468  0.73068928  0.58823871  1
  Te  Te161  1  0.24231761  0.74645378  0.91057449  1
  Te  Te162  1  0.59806483  0.09692445  0.28576375  1
  Te  Te163  1  0.57434162  0.07614990  0.55136076  1
  Te  Te164  1  0.58273765  0.05302928  0.90843403  1
  Te  Te165  1  0.57003358  0.40345767  0.24495892  1
  Te  Te166  1  0.58684046  0.45212471  0.59988707  1
  Te  Te167  1  0.57445143  0.43504494  0.91291905  1
  Te  Te168  1  0.57664804  0.74688941  0.25631386  1
  Te  Te169  1  0.61363284  0.70437452  0.55864199  1
  Te  Te170  1  0.57477765  0.73137567  0.90263435  1
  Te  Te171  1  0.94146305  0.10841037  0.29682479  1
  Te  Te172  1  0.88702258  0.06086959  0.58691217  1
  Te  Te173  1  0.90240667  0.09701651  0.91641306  1
  Te  Te174  1  0.91982169  0.41481764  0.24430840  1
  Te  Te175  1  0.89990149  0.39864443  0.57573765  1
  Te  Te176  1  0.91806959  0.40342538  0.95167253  1
  Te  Te177  1  0.89627612  0.74932034  0.21951858  1
  Te  Te178  1  0.90211451  0.75977476  0.55945670  1
  Te  Te179  1  0.92435347  0.75407539  0.92759559  1
