# generated using pymatgen
data_In2Te3
_symmetry_space_group_name_H-M   'P 1'
_cell_length_a   18.98175707
_cell_length_b   18.95644014
_cell_length_c   18.97250038
_cell_angle_alpha   89.90373920
_cell_angle_beta   90.15331170
_cell_angle_gamma   89.88137349
_symmetry_Int_Tables_number   1
_chemical_formula_structural   In2Te3
_chemical_formula_sum   'In72 Te108'
_cell_volume   6826.76042983
_cell_formula_units_Z   36
loop_
 _symmetry_equiv_pos_site_id
 _symmetry_equiv_pos_as_xyz
  1  'x, y, z'
loop_
 _atom_site_type_symbol
 _atom_site_label
 _atom_site_symmetry_multiplicity
 _atom_site_fract_x
 _atom_site_fract_y
 _atom_site_fract_z
 _atom_site_occupancy
  In  In0  1  -0.02855668  -0.01085859  0.35823161  1
  In  In1  1  -0.02377597  0.51332425  0.50127241  1
  In  In2  1  -0.01531943  0.66213967  0.00640988  1
  In  In3  1  0.32790950  0.37017665  0.67766090  1
  In  In4  1  0.81290861  0.34805830  0.17338997  1
  In  In5  1  0.17199700  0.01073341  0.17727999  1
  In  In6  1  0.78299207  0.35700630  0.80201272  1
  In  In7  1  0.19314767  0.16851323  0.35000849  1
  In  In8  1  0.01388298  0.35452052  0.63569960  1
  In  In9  1  0.49050218  0.36336615  0.50537913  1
  In  In10  1  0.16543532  0.50691721  0.00231153  1
  In  In11  1  0.17139242  0.16811024  0.01502789  1
  In  In12  1  -0.00222953  0.83367317  0.83438490  1
  In  In13  1  0.82098046  0.15649971  0.02225842  1
  In  In14  1  0.66606951  0.32051209  -0.01501411  1
  In  In15  1  0.18111744  0.35311268  0.14860869  1
  In  In16  1  0.74866306  0.80677623  0.38054458  1
  In  In17  1  0.17078616  0.65738949  0.83025014  1
  In  In18  1  0.48622443  0.63299539  0.19907436  1
  In  In19  1  0.16634003  0.67139341  0.17451856  1
  In  In20  1  0.65803955  0.35224026  0.33307723  1
  In  In21  1  0.33664352  -0.02292215  0.65088589  1
  In  In22  1  0.80509575  0.66399678  0.21091802  1
  In  In23  1  0.16051783  0.16961174  0.67535020  1
  In  In24  1  0.33986482  0.17067265  0.84753941  1
  In  In25  1  0.77751141  0.82214909  0.61114404  1
  In  In26  1  0.55286751  0.22451733  0.67060555  1
  In  In27  1  0.35298310  0.66429152  0.01385971  1
  In  In28  1  0.34084604  0.50824661  0.47496181  1
  In  In29  1  -0.00303679  0.15511737  0.53039075  1
  In  In30  1  0.51457057  0.50075289  0.00000328  1
  In  In31  1  0.54757059  -0.00793920  0.48525710  1
  In  In32  1  0.53017257  0.80034343  0.64618999  1
  In  In33  1  -0.01232754  0.17054891  0.19962701  1
  In  In34  1  0.32896253  0.00776390  0.03790774  1
  In  In35  1  -0.02584871  0.02446595  0.68392648  1
  In  In36  1  0.50265235  -0.03896803  0.21991002  1
  In  In37  1  0.00659238  0.18804416  0.83917463  1
  In  In38  1  0.49757870  0.64897977  0.81431904  1
  In  In39  1  0.16973163  -0.02970376  0.49261720  1
  In  In40  1  0.33647964  0.34587095  0.00088496  1
  In  In41  1  0.48208347  0.80991258  0.01714143  1
  In  In42  1  0.82096376  0.00506382  0.82974985  1
  In  In43  1  0.17259578  0.50252949  0.33012279  1
  In  In44  1  0.84643974  0.50368205  -0.00904092  1
  In  In45  1  0.64649440  0.00606525  -0.00829047  1
  In  In46  1  0.65065308  0.80036355  0.19193500  1
  In  In47  1  0.51063553  0.63570951  0.47293814  1
  In  In48  1  0.86020436  0.63416743  0.80517269  1
  In  In49  1  0.69238501  0.82255769  0.81511338  1
  In  In50  1  0.34346921  0.17799482  0.49784960  1
  In  In51  1  0.48797223  0.15183413  0.00482548  1
  In  In52  1  -0.01411517  0.82537727  0.15364649  1
  In  In53  1  0.33807690  0.82802763  0.83654079  1
  In  In54  1  0.33412598  0.82640000  0.47876051  1
  In  In55  1  0.82535364  0.18650250  0.34865559  1
  In  In56  1  0.81794110  0.17047936  0.67229062  1
  In  In57  1  0.67460073  0.68996986  -0.01484837  1
  In  In58  1  0.50934277  0.32993890  0.17618576  1
  In  In59  1  -0.02452355  0.82757314  0.49813837  1
  In  In60  1  0.85788363  0.36980106  0.51917413  1
  In  In61  1  0.17740379  0.83912094  0.65259463  1
  In  In62  1  0.66610644  0.16903348  0.50206166  1
  In  In63  1  -0.00741453  0.35457623  0.31821857  1
  In  In64  1  0.50223572  0.15521315  0.31749851  1
  In  In65  1  0.50255560  -0.00737156  0.82270253  1
  In  In66  1  -0.00043449  -0.02645122  -0.00311390  1
  In  In67  1  0.03023304  0.66568716  0.35030325  1
  In  In68  1  0.51461559  0.48644491  0.64985600  1
  In  In69  1  -0.00869310  0.34484055  -0.01774787  1
  In  In70  1  0.17487353  0.83469177  0.32142745  1
  In  In71  1  0.16032340  0.50240425  0.65608586  1
  Te  Te72  1  0.06294257  0.09274820  0.09023939  1
  Te  Te73  1  0.07955023  0.07961824  0.41759094  1
  Te  Te74  1  0.08716219  0.07748091  0.77039486  1
  Te  Te75  1  0.06331238  0.42795499  0.08631090  1
  Te  Te76  1  0.07582635  0.42705094  0.41974203  1
  Te  Te77  1  0.09649019  0.40311187  0.74419620  1
  Te  Te78  1  0.08847550  0.75182075  0.07081885  1
  Te  Te79  1  0.09957627  0.76816410  0.43782823  1
  Te  Te80  1  0.08995455  0.75447278  0.74345136  1
  Te  Te81  1  0.44008817  0.06656037  0.11988196  1
  Te  Te82  1  0.43034503  0.07878089  0.42807685  1
  Te  Te83  1  0.40439271  0.07753685  0.74388983  1
  Te  Te84  1  0.42315984  0.42702708  0.09404840  1
  Te  Te85  1  0.44293229  0.44180393  0.38562380  1
  Te  Te86  1  0.44063760  0.41579530  0.75622683  1
  Te  Te87  1  0.40406824  0.74929057  0.12855273  1
  Te  Te88  1  0.43396053  0.74659792  0.40096647  1
  Te  Te89  1  0.41434856  0.74935003  0.73379332  1
  Te  Te90  1  0.72726174  0.07312723  0.09445454  1
  Te  Te91  1  0.73362007  0.08441075  0.40217455  1
  Te  Te92  1  0.72875062  0.08358871  0.74785287  1
  Te  Te93  1  0.74052124  0.42718790  0.06724423  1
  Te  Te94  1  0.78097490  0.41022712  0.39402838  1
  Te  Te95  1  0.70768132  0.45870954  0.72380200  1
  Te  Te96  1  0.75915816  0.75207830  0.09166736  1
  Te  Te97  1  0.71747507  0.67773416  0.44644817  1
  Te  Te98  1  0.75851240  0.72134552  0.72630385  1
  Te  Te99  1  0.09858746  0.26131131  0.24941679  1
  Te  Te100  1  0.10668124  0.25452977  0.56238675  1
  Te  Te101  1  0.10673032  0.26778652  0.92025094  1
  Te  Te102  1  0.07149492  0.57291346  0.23864629  1
  Te  Te103  1  0.06535496  0.59675928  0.58868145  1
  Te  Te104  1  0.06628673  0.57797009  0.91152206  1
  Te  Te105  1  0.06488032  0.92187851  0.25703087  1
  Te  Te106  1  0.06067860  0.93137545  0.59141134  1
  Te  Te107  1  0.09673525  0.90629639  0.91506894  1
  Te  Te108  1  0.41557087  0.26422349  0.26886672  1
  Te  Te109  1  0.42011300  0.25791570  0.60462741  1
  Te  Te110  1  0.43512582  0.26468382  0.91713581  1
  Te  Te111  1  0.39862486  0.54442095  0.27746278  1
  Te  Te112  1  0.41802378  0.58389358  0.58052691  1
  Te  Te113  1  0.41096349  0.57103548  0.91026554  1
  Te  Te114  1  0.40881467  0.90195024  0.31500931  1
  Te  Te115  1  0.43996518  0.90601616  0.56736266  1
  Te  Te116  1  0.41865920  0.92692889  0.93178751  1
  Te  Te117  1  0.73109215  0.24542336  0.24547210  1
  Te  Te118  1  0.75735632  0.26814451  0.57374663  1
  Te  Te119  1  0.77341525  0.24425423  0.90944741  1
  Te  Te120  1  0.69537646  0.57329028  0.25092673  1
  Te  Te121  1  0.83009232  0.55452680  0.54019551  1
  Te  Te122  1  0.75138898  0.58761095  0.90608201  1
  Te  Te123  1  0.75234745  0.88404963  0.25569985  1
  Te  Te124  1  0.68092794  0.91830503  0.54941999  1
  Te  Te125  1  0.74729713  0.91261001  0.92404917  1
  Te  Te126  1  0.27373657  0.24368302  0.09510779  1
  Te  Te127  1  0.28469926  0.27185314  0.40099300  1
  Te  Te128  1  0.25478544  0.25569386  0.75475893  1
  Te  Te129  1  0.25885200  0.57938101  0.09647270  1
  Te  Te130  1  0.24500800  0.60361514  0.41152041  1
  Te  Te131  1  0.25369203  0.57599762  0.74330119  1
  Te  Te132  1  0.25204628  0.90789324  0.11099211  1
  Te  Te133  1  0.27185725  0.94077699  0.38380605  1
  Te  Te134  1  0.24677439  0.92212883  0.75942718  1
  Te  Te135  1  0.58670714  0.23659536  0.08350687  1
  Te  Te136  1  0.56972082  0.25596207  0.42066197  1
  Te  Te137  1  0.64516078  0.30964083  0.74713199  1
  Te  Te138  1  0.57843506  0.61549588  0.07457659  1
  Te  Te139  1  0.61819098  0.57427126  0.38648269  1
  Te  Te140  1  0.60088584  0.57970724  0.73473310  1
  Te  Te141  1  0.58167906  0.89874256  0.08790379  1
  Te  Te142  1  0.61486099  0.87846075  0.41561988  1
  Te  Te143  1  0.59312843  0.90680117  0.73621257  1
  Te  Te144  1  0.91874564  0.26233702  0.09179554  1
  Te  Te145  1  0.93651054  0.25462553  0.42662001  1
  Te  Te146  1  0.93464158  0.25232047  0.72329056  1
  Te  Te147  1  0.89482872  0.59108022  0.10408525  1
  Te  Te148  1  0.90544052  0.60363889  0.40395257  1
  Te  Te149  1  0.96818218  0.57797208  0.71975522  1
  Te  Te150  1  0.89772583  0.91804478  0.08254382  1
  Te  Te151  1  0.86832281  0.90171439  0.42279311  1
  Te  Te152  1  0.89805314  0.90714392  0.74182214  1
  Te  Te153  1  0.26660092  0.09739306  0.24656949  1
  Te  Te154  1  0.24319196  0.07886200  0.57623500  1
  Te  Te155  1  0.25068391  0.07576404  0.92572102  1
  Te  Te156  1  0.26737018  0.43573572  0.23719050  1
  Te  Te157  1  0.25188310  0.41858603  0.55849814  1
  Te  Te158  1  0.24735539  0.42338030  0.91524641  1
  Te  Te159  1  0.25559657  0.71599246  0.28506530  1
  Te  Te160  1  0.26392641  0.74800466  0.57960734  1
  Te  Te161  1  0.25535235  0.74412243  0.92927832  1
  Te  Te162  1  0.60218386  0.05645870  0.27223995  1
  Te  Te163  1  0.57704455  0.09413966  0.60000078  1
  Te  Te164  1  0.58040370  0.10207096  0.89379258  1
  Te  Te165  1  0.60295551  0.43803120  0.22371744  1
  Te  Te166  1  0.61079781  0.43209042  0.55126258  1
  Te  Te167  1  0.59464245  0.42249473  0.90628056  1
  Te  Te168  1  0.55270082  0.73693743  0.28420222  1
  Te  Te169  1  0.61012199  0.70527060  0.56478018  1
  Te  Te170  1  0.56923040  0.76330330  0.89489990  1
  Te  Te171  1  0.89197734  0.07338933  0.25950439  1
  Te  Te172  1  0.88132384  0.06914730  0.57163276  1
  Te  Te173  1  0.91849838  0.08835132  0.91399872  1
  Te  Te174  1  0.88418929  0.44029909  0.26537252  1
  Te  Te175  1  0.89140922  0.46407751  0.64892111  1
  Te  Te176  1  0.90276814  0.41536302  0.88142154  1
  Te  Te177  1  0.92690715  0.74367908  0.26386873  1
  Te  Te178  1  0.89670399  0.74118980  0.58481008  1
  Te  Te179  1  0.90209058  0.74203038  0.90743310  1
