# generated using pymatgen
data_In2Te3
_symmetry_space_group_name_H-M   'P 1'
_cell_length_a   18.97121102
_cell_length_b   18.96624497
_cell_length_c   18.95731560
_cell_angle_alpha   90.06764165
_cell_angle_beta   89.79512939
_cell_angle_gamma   89.92543619
_symmetry_Int_Tables_number   1
_chemical_formula_structural   In2Te3
_chemical_formula_sum   'In72 Te108'
_cell_volume   6821.02751711
_cell_formula_units_Z   36
loop_
 _symmetry_equiv_pos_site_id
 _symmetry_equiv_pos_as_xyz
  1  'x, y, z'
loop_
 _atom_site_type_symbol
 _atom_site_label
 _atom_site_symmetry_multiplicity
 _atom_site_fract_x
 _atom_site_fract_y
 _atom_site_fract_z
 _atom_site_occupancy
  In  In0  1  0.17047911  0.84479340  0.63877215  1
  In  In1  1  0.83392297  0.50036451  0.32385404  1
  In  In2  1  0.86872354  0.57053882  0.62014834  1
  In  In3  1  0.32972016  0.82470853  0.49624106  1
  In  In4  1  0.35319393  -0.00528197  0.35868620  1
  In  In5  1  -0.03069933  0.67067570  -0.01037836  1
  In  In6  1  0.18815995  -0.00864768  0.16592085  1
  In  In7  1  0.84246887  0.02175938  0.17170032  1
  In  In8  1  0.66548887  0.49842149  0.83335557  1
  In  In9  1  0.67756434  0.67659631  0.33865297  1
  In  In10  1  0.64731332  0.35185046  -0.00600310  1
  In  In11  1  0.13150569  0.15603983  -0.00447109  1
  In  In12  1  0.13736051  0.15903156  0.65860492  1
  In  In13  1  0.49302427  0.18721506  0.33722257  1
  In  In14  1  0.15275015  0.50758004  0.02358774  1
  In  In15  1  -0.01276781  -0.00095931  -0.00730863  1
  In  In16  1  0.36033557  0.17278656  0.16192604  1
  In  In17  1  -0.00163805  0.32477294  0.67390393  1
  In  In18  1  0.65483528  0.51528817  0.52677329  1
  In  In19  1  0.65770713  0.84991342  0.81241345  1
  In  In20  1  0.00558193  0.47937990  0.16986194  1
  In  In21  1  0.47933868  0.48871556  0.32881054  1
  In  In22  1  0.82377633  0.83259828  -0.02545455  1
  In  In23  1  0.00430697  -0.01882774  0.33785171  1
  In  In24  1  0.49371473  0.47239460  0.66313810  1
  In  In25  1  0.68431050  0.87157974  0.50346959  1
  In  In26  1  0.32165621  0.18156931  0.52517671  1
  In  In27  1  0.33511151  0.64086825  0.02206852  1
  In  In28  1  0.51162873  0.82172075  0.35313767  1
  In  In29  1  0.47737329  0.15442872  -0.03641814  1
  In  In30  1  0.49854623  0.66955472  0.52470597  1
  In  In31  1  0.33340691  0.34150748  0.03054374  1
  In  In32  1  0.34448629  0.02142052  0.65931229  1
  In  In33  1  0.49025108  0.00346928  0.80887150  1
  In  In34  1  0.17540654  0.36323923  0.22672210  1
  In  In35  1  0.68256365  0.18091942  0.12979002  1
  In  In36  1  0.50366184  -0.02114132  0.19150565  1
  In  In37  1  0.68267889  0.16651152  0.81177432  1
  In  In38  1  0.67302697  0.00059924  0.31966299  1
  In  In39  1  0.66899833  0.68016074  0.68533185  1
  In  In40  1  0.16076092  0.35086535  0.47203026  1
  In  In41  1  0.85655494  0.01080578  0.82471820  1
  In  In42  1  0.30228869  0.82849029  0.82339331  1
  In  In43  1  0.16894921  0.50596350  0.64606875  1
  In  In44  1  0.67475871  0.32607412  0.66579058  1
  In  In45  1  0.01233114  0.50850088  0.47909386  1
  In  In46  1  0.85052777  0.31244454  0.13014517  1
  In  In47  1  0.18685012  0.67220111  0.19223496  1
  In  In48  1  0.15307990  0.83801433  -0.00285955  1
  In  In49  1  0.32368875  0.50748951  0.46935592  1
  In  In50  1  0.03151308  0.68953197  0.36077005  1
  In  In51  1  0.84436453  0.67671722  0.17786024  1
  In  In52  1  0.00285213  -0.00301913  0.64179555  1
  In  In53  1  0.84879955  -0.00589857  0.50144157  1
  In  In54  1  0.71097301  0.31372885  0.36084971  1
  In  In55  1  0.79959651  0.49112109  -0.00560778  1
  In  In56  1  0.32012800  0.15378538  0.82443400  1
  In  In57  1  0.47515817  0.68441639  0.83428073  1
  In  In58  1  0.48075875  0.80401428  0.01288271  1
  In  In59  1  -0.02536936  0.49405960  0.80511768  1
  In  In60  1  0.15559271  0.15774554  0.34289427  1
  In  In61  1  0.31263171  -0.01796221  -0.00666246  1
  In  In62  1  0.14458980  0.66862801  0.81361262  1
  In  In63  1  0.34323621  0.48806585  0.81356840  1
  In  In64  1  0.16830541  0.31634418  0.85853964  1
  In  In65  1  0.63732524  0.62574893  0.01174629  1
  In  In66  1  0.69534654  0.14311240  0.52160289  1
  In  In67  1  0.81209811  0.34116432  0.82444901  1
  In  In68  1  0.52990850  0.34207586  0.18540679  1
  In  In69  1  0.49920070  0.86141584  0.69113779  1
  In  In70  1  0.02515398  0.84165664  0.17019778  1
  In  In71  1  0.68652951  0.84621221  0.15790559  1
  Te  Te72  1  0.07384084  0.06426215  0.10178069  1
  Te  Te73  1  0.07078649  0.07831350  0.43386103  1
  Te  Te74  1  0.05246193  0.08382508  0.74984822  1
  Te  Te75  1  0.09580038  0.38628272  0.09223244  1
  Te  Te76  1  0.06419622  0.41162885  0.37886577  1
  Te  Te77  1  0.09881876  0.41910417  0.75587081  1
  Te  Te78  1  0.08186820  0.72493865  0.08087216  1
  Te  Te79  1  0.11293057  0.76847224  0.45814824  1
  Te  Te80  1  0.08744087  0.78227429  0.74366664  1
  Te  Te81  1  0.41893053  0.05683887  0.07422404  1
  Te  Te82  1  0.42451326  0.09964179  0.43942013  1
  Te  Te83  1  0.44131545  0.12724445  0.72606671  1
  Te  Te84  1  0.44287844  0.42150375  0.09060011  1
  Te  Te85  1  0.42091548  0.40364865  0.43145645  1
  Te  Te86  1  0.39625996  0.38027755  0.72674377  1
  Te  Te87  1  0.41648792  0.72135020  0.11621615  1
  Te  Te88  1  0.41301948  0.72142100  0.41061066  1
  Te  Te89  1  0.39485989  0.75445684  0.72794475  1
  Te  Te90  1  0.73179436  0.05295946  0.08161953  1
  Te  Te91  1  0.76932216  0.08082940  0.40330720  1
  Te  Te92  1  0.79861799  0.11506829  0.73462882  1
  Te  Te93  1  0.73343348  0.41039845  0.10226857  1
  Te  Te94  1  0.76388081  0.44084125  0.44997826  1
  Te  Te95  1  0.75481446  0.44473671  0.72495177  1
  Te  Te96  1  0.74897691  0.73402445  0.07230963  1
  Te  Te97  1  0.75295400  0.77797096  0.41222120  1
  Te  Te98  1  0.76253585  0.76174948  0.76121282  1
  Te  Te99  1  0.09474716  0.24268975  0.23992622  1
  Te  Te100  1  0.07559261  0.25943506  0.56158599  1
  Te  Te101  1  0.05131030  0.25211560  0.91818405  1
  Te  Te102  1  0.06912146  0.59019937  0.24724662  1
  Te  Te103  1  0.07371136  0.60328496  0.58328434  1
  Te  Te104  1  0.07099768  0.57373098  0.91457866  1
  Te  Te105  1  0.12160024  0.90091664  0.26800130  1
  Te  Te106  1  0.05178177  0.88103431  0.54380377  1
  Te  Te107  1  0.07665529  0.92028762  0.90496669  1
  Te  Te108  1  0.40678628  0.28150408  0.25506309  1
  Te  Te109  1  0.41662428  0.23847079  0.61995426  1
  Te  Te110  1  0.38825187  0.26115212  0.90869522  1
  Te  Te111  1  0.45536857  0.58284743  0.21845237  1
  Te  Te112  1  0.40621146  0.57059332  0.58787133  1
  Te  Te113  1  0.42211827  0.57151338  0.91843756  1
  Te  Te114  1  0.40597248  0.88981273  0.26087709  1
  Te  Te115  1  0.42108455  0.92171587  0.57657196  1
  Te  Te116  1  0.41633195  0.90377453  0.90482644  1
  Te  Te117  1  0.76726104  0.23687700  0.23730027  1
  Te  Te118  1  0.77832663  0.25489325  0.58223151  1
  Te  Te119  1  0.74126375  0.25506236  0.92706106  1
  Te  Te120  1  0.74057972  0.58230180  0.23615297  1
  Te  Te121  1  0.74317285  0.63308823  0.56187348  1
  Te  Te122  1  0.74975186  0.60114517  0.90524797  1
  Te  Te123  1  0.77666266  0.90871468  0.25951866  1
  Te  Te124  1  0.78367046  0.91034045  0.60692699  1
  Te  Te125  1  0.74317469  0.93636558  0.90307845  1
  Te  Te126  1  0.25126895  0.22174516  0.07054737  1
  Te  Te127  1  0.25573996  0.25014876  0.40731676  1
  Te  Te128  1  0.23264171  0.24515427  0.74143307  1
  Te  Te129  1  0.25725545  0.55530694  0.12106264  1
  Te  Te130  1  0.20999363  0.58069703  0.40529427  1
  Te  Te131  1  0.25324670  0.58846869  0.74300276  1
  Te  Te132  1  0.26286050  0.87926865  0.09325155  1
  Te  Te133  1  0.24643846  0.92553358  0.42961737  1
  Te  Te134  1  0.24500105  0.93842857  0.74047545  1
  Te  Te135  1  0.55574941  0.23837326  0.06666048  1
  Te  Te136  1  0.60283912  0.23020023  0.42969150  1
  Te  Te137  1  0.59136363  0.27786233  0.77846753  1
  Te  Te138  1  0.55657636  0.54822033  0.10595075  1
  Te  Te139  1  0.57617391  0.58754890  0.41800786  1
  Te  Te140  1  0.56344306  0.58865179  0.74509052  1
  Te  Te141  1  0.57400539  0.90799582  0.07624490  1
  Te  Te142  1  0.57656620  0.94087144  0.42009311  1
  Te  Te143  1  0.61250173  0.96612037  0.71321782  1
  Te  Te144  1  0.91954342  0.21246911  0.04954313  1
  Te  Te145  1  0.83569439  0.29967837  0.44417723  1
  Te  Te146  1  0.90602982  0.24546709  0.75818217  1
  Te  Te147  1  0.90759265  0.56327335  0.08495695  1
  Te  Te148  1  0.91287522  0.59991404  0.40455914  1
  Te  Te149  1  0.92067173  0.62057952  0.75352204  1
  Te  Te150  1  0.91219872  0.89764100  0.08615643  1
  Te  Te151  1  0.93110771  0.89029031  0.43128421  1
  Te  Te152  1  0.90695308  0.91450683  0.72235692  1
  Te  Te153  1  0.27580194  0.08324936  0.25130192  1
  Te  Te154  1  0.22960247  0.07177846  0.57378054  1
  Te  Te155  1  0.22558331  0.06969167  0.90837125  1
  Te  Te156  1  0.24457910  0.45780786  0.31522495  1
  Te  Te157  1  0.25597420  0.40897372  0.57278027  1
  Te  Te158  1  0.25001993  0.43160291  0.92736002  1
  Te  Te159  1  0.25232339  0.70101587  0.31950267  1
  Te  Te160  1  0.23703161  0.73159032  0.56661198  1
  Te  Te161  1  0.24829738  0.72865999  0.92550898  1
  Te  Te162  1  0.57912087  0.10026866  0.24296462  1
  Te  Te163  1  0.59879144  0.08124765  0.61026974  1
  Te  Te164  1  0.58788086  0.07620161  0.90055766  1
  Te  Te165  1  0.60765281  0.40914425  0.29298164  1
  Te  Te166  1  0.57815497  0.39170295  0.56609079  1
  Te  Te167  1  0.56069714  0.41556371  0.89408785  1
  Te  Te168  1  0.59368579  0.75829318  0.24166445  1
  Te  Te169  1  0.58448382  0.77608880  0.58931996  1
  Te  Te170  1  0.58714217  0.74789303  0.91546184  1
  Te  Te171  1  0.93674503  0.08704589  0.26061606  1
  Te  Te172  1  0.94989402  0.09591547  0.54149029  1
  Te  Te173  1  0.89022973  0.10166704  0.94434448  1
  Te  Te174  1  0.91009199  0.39296516  0.24860581  1
  Te  Te175  1  0.93609296  0.43518244  0.59064070  1
  Te  Te176  1  0.90827702  0.41741524  0.91811918  1
  Te  Te177  1  0.93419821  0.76105289  0.26210386  1
  Te  Te178  1  0.95035490  0.69433242  0.60497107  1
  Te  Te179  1  0.94141808  0.78300723  0.90079925  1
