# generated using pymatgen
data_In2Te3
_symmetry_space_group_name_H-M   'P 1'
_cell_length_a   18.92358068
_cell_length_b   18.92276066
_cell_length_c   18.95843396
_cell_angle_alpha   90.09868946
_cell_angle_beta   90.00024923
_cell_angle_gamma   89.98789171
_symmetry_Int_Tables_number   1
_chemical_formula_structural   In2Te3
_chemical_formula_sum   'In72 Te108'
_cell_volume   6788.74691534
_cell_formula_units_Z   36
loop_
 _symmetry_equiv_pos_site_id
 _symmetry_equiv_pos_as_xyz
  1  'x, y, z'
loop_
 _atom_site_type_symbol
 _atom_site_label
 _atom_site_symmetry_multiplicity
 _atom_site_fract_x
 _atom_site_fract_y
 _atom_site_fract_z
 _atom_site_occupancy
  In  In0  1  0.69191304  0.19305782  0.14566065  1
  In  In1  1  0.18469352  0.83140033  0.67932921  1
  In  In2  1  0.84208043  0.17070076  0.00327404  1
  In  In3  1  0.48338647  0.69217637  0.16379007  1
  In  In4  1  0.47263260  0.16286505  0.32346642  1
  In  In5  1  0.84441413  0.33893737  0.49694700  1
  In  In6  1  0.18132211  0.36765600  0.46853714  1
  In  In7  1  0.66321183  0.32446039  0.35708391  1
  In  In8  1  0.03143411  0.16514931  0.15492649  1
  In  In9  1  0.29677517  0.15723418  0.85302746  1
  In  In10  1  0.33849869  0.16032546  0.15671857  1
  In  In11  1  0.48839410  0.83471677  -0.02020451  1
  In  In12  1  0.01998245  0.00594454  0.69026055  1
  In  In13  1  0.61003167  0.34071971  0.66981074  1
  In  In14  1  -0.00800988  0.80491595  0.49512356  1
  In  In15  1  0.01452856  0.64539356  0.32878877  1
  In  In16  1  0.46429789  0.35881799  0.51435390  1
  In  In17  1  0.41311700  0.60710928  0.79702937  1
  In  In18  1  0.64400384  0.63483385  0.37590085  1
  In  In19  1  0.62521426  0.83748374  0.52477053  1
  In  In20  1  0.01739361  0.32082637  0.69607178  1
  In  In21  1  0.86236489  0.51970617  0.01565096  1
  In  In22  1  0.17091465  0.51402111  -0.00041101  1
  In  In23  1  0.85043017  0.64653503  0.45909672  1
  In  In24  1  0.67806625  0.82798094  0.17340637  1
  In  In25  1  0.31717949  0.65218110  0.32792976  1
  In  In26  1  0.86947551  0.67004612  0.16702587  1
  In  In27  1  0.49002684  0.17750500  0.66459950  1
  In  In28  1  0.32874759  0.00975945  0.33033636  1
  In  In29  1  0.17976346  0.85579869  0.00446293  1
  In  In30  1  0.51990094  0.31852072  0.17241057  1
  In  In31  1  0.32416174  -0.00908881  0.66545875  1
  In  In32  1  0.17904764  0.16666545  0.67470520  1
  In  In33  1  0.86227332  0.50716562  0.32582580  1
  In  In34  1  0.31258325  0.82998807  0.16173435  1
  In  In35  1  0.65346316  0.15776288  0.51118452  1
  In  In36  1  0.51010832  0.51471500  -0.01119463  1
  In  In37  1  0.82555430  0.50035770  0.67579543  1
  In  In38  1  -0.00243417  0.19270785  0.49085130  1
  In  In39  1  0.66049682  0.65837504  0.63852855  1
  In  In40  1  0.82684258  0.00999387  0.51310361  1
  In  In41  1  0.48349416  0.50733688  0.63934092  1
  In  In42  1  0.93531530  0.02693393  0.08572953  1
  In  In43  1  0.15845335  0.31946774  0.86675696  1
  In  In44  1  0.64015995  0.32901135  -0.00770253  1
  In  In45  1  0.03001775  -0.00196392  0.27691609  1
  In  In46  1  0.65021468  0.49473361  0.84829263  1
  In  In47  1  0.17006700  0.62422208  0.49800613  1
  In  In48  1  0.19016824  0.64842075  0.80512630  1
  In  In49  1  0.02343881  0.81953727  0.85945700  1
  In  In50  1  0.17197043  0.35921952  0.15291219  1
  In  In51  1  0.68463979  0.68026772  0.00472193  1
  In  In52  1  0.84589715  0.34573704  0.85481134  1
  In  In53  1  0.48308668  0.82640575  0.35067418  1
  In  In54  1  0.51254122  0.02036354  0.16605611  1
  In  In55  1  0.66459407  0.84877864  0.85042914  1
  In  In56  1  0.31150576  0.83366793  0.49483230  1
  In  In57  1  0.32109822  0.50829538  0.15559887  1
  In  In58  1  0.66384099  0.00621861  -0.02274579  1
  In  In59  1  0.85661943  0.68350754  0.81636099  1
  In  In60  1  0.33539961  0.83277253  0.82948710  1
  In  In61  1  0.68021513  0.01108941  0.35765508  1
  In  In62  1  0.84593353  0.36613897  0.16084869  1
  In  In63  1  0.67467596  0.49594800  0.19029913  1
  In  In64  1  0.84311068  0.84405505  0.67184102  1
  In  In65  1  0.01087597  0.62419406  0.65279157  1
  In  In66  1  0.62731076  0.03972375  0.76018467  1
  In  In67  1  0.16257502  -0.01464784  0.48315315  1
  In  In68  1  0.34204183  0.31849299  0.00837410  1
  In  In69  1  0.80330968  0.16035702  0.67074082  1
  In  In70  1  0.18173794  0.18196078  0.33829034  1
  In  In71  1  0.82184992  0.82488353  0.34365060  1
  Te  Te72  1  0.08693273  0.06202743  0.05870934  1
  Te  Te73  1  0.06998687  0.07964713  0.40659323  1
  Te  Te74  1  0.07836256  0.11528643  0.77334398  1
  Te  Te75  1  0.07884929  0.40569245  0.04768601  1
  Te  Te76  1  0.04997745  0.41190601  0.41908728  1
  Te  Te77  1  0.09454373  0.41557067  0.77524741  1
  Te  Te78  1  0.08355715  0.77824802  0.08878054  1
  Te  Te79  1  0.09934683  0.73791591  0.41624906  1
  Te  Te80  1  0.07179215  0.74197877  0.73020498  1
  Te  Te81  1  0.41002143  0.06382393  0.06847010  1
  Te  Te82  1  0.41155378  0.08094641  0.42741266  1
  Te  Te83  1  0.39508652  0.09363947  0.75003012  1
  Te  Te84  1  0.43712201  0.41886294  0.09133162  1
  Te  Te85  1  0.40875123  0.46904900  0.43077994  1
  Te  Te86  1  0.41467340  0.45161510  0.75791571  1
  Te  Te87  1  0.39310531  0.74456043  0.05699231  1
  Te  Te88  1  0.40351293  0.72722639  0.42864847  1
  Te  Te89  1  0.40069102  0.74213009  0.73457473  1
  Te  Te90  1  0.75246216  0.06987184  0.08801180  1
  Te  Te91  1  0.77093243  0.11665182  0.42009593  1
  Te  Te92  1  0.77389313  0.05696610  0.76793767  1
  Te  Te93  1  0.73432558  0.42415713  0.06651394  1
  Te  Te94  1  0.75954163  0.43045200  0.40930957  1
  Te  Te95  1  0.73531226  0.40605865  0.75566493  1
  Te  Te96  1  0.78227547  0.76557359  0.08317113  1
  Te  Te97  1  0.72979970  0.75503919  0.44067348  1
  Te  Te98  1  0.73989259  0.74766180  0.74320652  1
  Te  Te99  1  0.09364699  0.26635008  0.25015057  1
  Te  Te100  1  0.10262647  0.25952736  0.57642205  1
  Te  Te101  1  0.06731227  0.20682017  0.90351516  1
  Te  Te102  1  0.05949116  0.56083567  0.21724718  1
  Te  Te103  1  0.12175862  0.53519501  0.60899875  1
  Te  Te104  1  0.09405332  0.59083766  0.89919573  1
  Te  Te105  1  0.09841070  0.90330010  0.18730754  1
  Te  Te106  1  0.07682164  0.90588484  0.58239635  1
  Te  Te107  1  0.10204995  0.93451423  0.90559359  1
  Te  Te108  1  0.39630963  0.26894294  0.24768994  1
  Te  Te109  1  0.39148865  0.26582441  0.59953387  1
  Te  Te110  1  0.41008882  0.23021354  0.91399013  1
  Te  Te111  1  0.42544753  0.58110984  0.24457410  1
  Te  Te112  1  0.36327604  0.55014643  0.55828748  1
  Te  Te113  1  0.39652844  0.59361813  0.94447674  1
  Te  Te114  1  0.42404528  0.91452916  0.24212230  1
  Te  Te115  1  0.40628526  0.90991389  0.57567701  1
  Te  Te116  1  0.43871471  0.92924999  0.87811508  1
  Te  Te117  1  0.76264748  0.27416072  0.25047524  1
  Te  Te118  1  0.73445748  0.26628571  0.58370680  1
  Te  Te119  1  0.74478133  0.24936618  0.91591674  1
  Te  Te120  1  0.75831915  0.60480520  0.25715397  1
  Te  Te121  1  0.75934133  0.57331875  0.56164474  1
  Te  Te122  1  0.75877781  0.58148202  0.91290151  1
  Te  Te123  1  0.75796522  0.92957047  0.25442461  1
  Te  Te124  1  0.73747036  0.91976461  0.59388599  1
  Te  Te125  1  0.76780322  0.91474606  0.92926669  1
  Te  Te126  1  0.23221610  0.23925126  0.07757659  1
  Te  Te127  1  0.27253784  0.26265048  0.41889358  1
  Te  Te128  1  0.25417308  0.26881980  0.75577434  1
  Te  Te129  1  0.22402542  0.60776939  0.10438914  1
  Te  Te130  1  0.21703137  0.55118471  0.37689065  1
  Te  Te131  1  0.28235789  0.54065161  0.75743012  1
  Te  Te132  1  0.29092585  0.93753271  0.06199180  1
  Te  Te133  1  0.23496470  0.90056488  0.38059496  1
  Te  Te134  1  0.22926758  0.93966034  0.77238300  1
  Te  Te135  1  0.56542554  0.21967014  0.06669886  1
  Te  Te136  1  0.55545308  0.24719840  0.43355836  1
  Te  Te137  1  0.58990537  0.22965636  0.76352001  1
  Te  Te138  1  0.59538634  0.59714482  0.09779165  1
  Te  Te139  1  0.54158103  0.55341324  0.43780431  1
  Te  Te140  1  0.58185003  0.57904328  0.74422350  1
  Te  Te141  1  0.58139762  0.90377570  0.08431453  1
  Te  Te142  1  0.56703298  0.93375321  0.42188689  1
  Te  Te143  1  0.56229395  0.90539173  0.76088076  1
  Te  Te144  1  0.92804838  0.26100357  0.08914787  1
  Te  Te145  1  0.93868655  0.28748995  0.39269171  1
  Te  Te146  1  0.90159165  0.24333229  0.75705597  1
  Te  Te147  1  0.97010574  0.59807848  0.08381222  1
  Te  Te148  1  0.96595453  0.54289978  0.44181819  1
  Te  Te149  1  0.93108661  0.56076393  0.76689531  1
  Te  Te150  1  0.96898302  0.88360841  0.09633620  1
  Te  Te151  1  0.91217332  0.91703301  0.42740262  1
  Te  Te152  1  0.93014461  0.91489811  0.77082308  1
  Te  Te153  1  0.23496441  0.08133832  0.23644007  1
  Te  Te154  1  0.24478199  0.07861614  0.56692121  1
  Te  Te155  1  0.19059322  0.12460700  0.95564675  1
  Te  Te156  1  0.24430664  0.43359481  0.25942246  1
  Te  Te157  1  0.25628510  0.43933578  0.57542123  1
  Te  Te158  1  0.26369140  0.41537854  0.92565167  1
  Te  Te159  1  0.23180443  0.72436195  0.22807431  1
  Te  Te160  1  0.24438060  0.73088388  0.58550341  1
  Te  Te161  1  0.23761831  0.74797908  0.90726643  1
  Te  Te162  1  0.60202699  0.10460974  0.25894783  1
  Te  Te163  1  0.58435658  0.07048182  0.60852590  1
  Te  Te164  1  0.58610256  0.09486431  0.89222663  1
  Te  Te165  1  0.57537643  0.41820178  0.27425154  1
  Te  Te166  1  0.59554181  0.43734291  0.55628078  1
  Te  Te167  1  0.54419761  0.39726739  0.89693901  1
  Te  Te168  1  0.58893840  0.74892910  0.26869396  1
  Te  Te169  1  0.54500821  0.73201646  0.58595963  1
  Te  Te170  1  0.58003546  0.73386199  0.91065814  1
  Te  Te171  1  0.92139356  0.08923663  0.23223432  1
  Te  Te172  1  0.93110640  0.09112682  0.59177257  1
  Te  Te173  1  0.94259167  0.07733046  0.94495227  1
  Te  Te174  1  0.95614441  0.44390080  0.22667004  1
  Te  Te175  1  0.92299767  0.40676570  0.60649794  1
  Te  Te176  1  0.94103817  0.41537262  0.94386695  1
  Te  Te177  1  0.93636282  0.76293817  0.26700204  1
  Te  Te178  1  0.90242099  0.72671803  0.59019497  1
  Te  Te179  1  0.92400574  0.73994359  0.93202142  1
