# generated using pymatgen
data_In2Te3
_symmetry_space_group_name_H-M   'P 1'
_cell_length_a   18.83052979
_cell_length_b   18.82771441
_cell_length_c   18.83125641
_cell_angle_alpha   89.95630103
_cell_angle_beta   90.06824584
_cell_angle_gamma   89.97928287
_symmetry_Int_Tables_number   1
_chemical_formula_structural   In2Te3
_chemical_formula_sum   'In72 Te108'
_cell_volume   6676.34813898
_cell_formula_units_Z   36
loop_
 _symmetry_equiv_pos_site_id
 _symmetry_equiv_pos_as_xyz
  1  'x, y, z'
loop_
 _atom_site_type_symbol
 _atom_site_label
 _atom_site_symmetry_multiplicity
 _atom_site_fract_x
 _atom_site_fract_y
 _atom_site_fract_z
 _atom_site_occupancy
  In  In0  1  0.33838345  0.67500073  0.30721296  1
  In  In1  1  0.51688078  0.00164963  0.50679198  1
  In  In2  1  0.51605816  -0.00039011  0.15115481  1
  In  In3  1  0.81329392  0.17010456  0.64599286  1
  In  In4  1  0.14918429  0.67119200  0.52379773  1
  In  In5  1  0.18260847  0.82420578  -0.03173336  1
  In  In6  1  0.35537569  0.47281413  0.15821690  1
  In  In7  1  0.62507553  0.15913248  0.81743072  1
  In  In8  1  0.34209369  -0.00349788  0.34619688  1
  In  In9  1  0.33181871  0.00094822  -0.03155979  1
  In  In10  1  0.32856345  0.14795220  0.83328342  1
  In  In11  1  0.67166008  0.81255145  0.81863790  1
  In  In12  1  0.69725614  0.84561522  0.51649012  1
  In  In13  1  -0.01498611  0.48815065  0.16368503  1
  In  In14  1  0.85623443  0.51775495  0.67443218  1
  In  In15  1  0.30059999  -0.01084683  0.69115629  1
  In  In16  1  0.48534424  0.83151648  -0.01646416  1
  In  In17  1  0.16155639  0.18101276  0.64694419  1
  In  In18  1  0.00746357  0.80509075  0.85738969  1
  In  In19  1  0.34399969  0.33656854  0.32721048  1
  In  In20  1  0.63656372  0.47884155  0.84130883  1
  In  In21  1  0.49542141  0.17117660  0.32590517  1
  In  In22  1  0.00670623  0.16698634  0.82222100  1
  In  In23  1  -0.00239827  -0.00478588  0.66718736  1
  In  In24  1  0.13109701  0.80746923  0.35172310  1
  In  In25  1  0.34215044  0.32165287  -0.00693936  1
  In  In26  1  0.18577061  0.49432177  -0.00768244  1
  In  In27  1  0.13119408  -0.00408689  0.16655788  1
  In  In28  1  0.66124614  0.49486862  0.17187384  1
  In  In29  1  0.66271382  0.47770556  0.52019484  1
  In  In30  1  -0.01786076  0.30616774  0.34097168  1
  In  In31  1  0.49929534  0.65356099  0.49064111  1
  In  In32  1  0.67221982  0.65727662  0.32226303  1
  In  In33  1  -0.01474720  0.84084711  0.17680646  1
  In  In34  1  0.67001836  0.34102084  0.34224884  1
  In  In35  1  0.85459506  -0.01294762  0.82762245  1
  In  In36  1  0.20081820  0.49919138  0.33240704  1
  In  In37  1  0.48696432  0.18886735  0.65473797  1
  In  In38  1  0.15387067  0.18014916  0.33592048  1
  In  In39  1  0.81932827  0.49674430  0.00001855  1
  In  In40  1  0.67144478  0.66547645  0.00306710  1
  In  In41  1  0.67100450  0.17291152  0.48761510  1
  In  In42  1  0.51622589  0.18861352  0.01854420  1
  In  In43  1  0.03441425  -0.01355665  0.00908761  1
  In  In44  1  0.32469544  0.48239861  0.50168849  1
  In  In45  1  0.82315958  0.18643454  -0.00481347  1
  In  In46  1  0.81880177  0.34620058  0.84724293  1
  In  In47  1  -0.00687785  0.66554398  -0.00610526  1
  In  In48  1  0.01246088  0.33600830  0.66464207  1
  In  In49  1  0.52233716  0.64876041  0.17832334  1
  In  In50  1  0.50465346  0.83546418  0.67780690  1
  In  In51  1  0.67192127  0.01526956  0.00178273  1
  In  In52  1  0.36026435  0.36919285  0.68607904  1
  In  In53  1  -0.02354758  0.34067732  -0.00339741  1
  In  In54  1  0.84066421  0.80745872  0.00487100  1
  In  In55  1  0.18784048  0.67751483  0.82041903  1
  In  In56  1  0.15134254  0.00772021  0.50389952  1
  In  In57  1  -0.00171548  0.66422194  0.34898409  1
  In  In58  1  0.81525505  0.34400877  0.18553204  1
  In  In59  1  -0.00080809  0.50750559  0.50557484  1
  In  In60  1  0.16914099  0.64784383  0.13745706  1
  In  In61  1  0.33569020  0.80630854  0.50314728  1
  In  In62  1  0.32435107  0.18170762  0.17525856  1
  In  In63  1  0.66431046  0.64125614  0.67650739  1
  In  In64  1  0.32801601  0.64617012  0.65386578  1
  In  In65  1  0.67663820  0.01330732  0.33358984  1
  In  In66  1  0.69092048  -0.03341082  0.66517869  1
  In  In67  1  0.34732328  0.84186144  0.15852440  1
  In  In68  1  0.84365584  0.84999199  0.35021089  1
  In  In69  1  0.17458005  0.33238400  0.51049628  1
  In  In70  1  0.16606723  0.34958116  0.83137003  1
  In  In71  1  0.86122823  0.03164042  0.20462021  1
  Te  Te72  1  0.06020390  0.10280608  0.09490796  1
  Te  Te73  1  0.06558235  0.08713555  0.41171373  1
  Te  Te74  1  0.10462395  0.08149518  0.74704790  1
  Te  Te75  1  0.08583020  0.41516360  0.07698696  1
  Te  Te76  1  0.09654603  0.42345848  0.41421034  1
  Te  Te77  1  0.06860534  0.43340762  0.75868881  1
  Te  Te78  1  0.07892469  0.76748382  0.07920469  1
  Te  Te79  1  0.03821031  0.76336653  0.46690272  1
  Te  Te80  1  0.06633640  0.72589859  0.74478336  1
  Te  Te81  1  0.40729463  0.08143003  0.08298215  1
  Te  Te82  1  0.41904402  0.09378968  0.43397364  1
  Te  Te83  1  0.41931888  0.07500646  0.73492378  1
  Te  Te84  1  0.44622596  0.40700862  0.05973331  1
  Te  Te85  1  0.42600577  0.42329089  0.41420582  1
  Te  Te86  1  0.45543242  0.43800488  0.77906271  1
  Te  Te87  1  0.42870872  0.73667132  0.08922383  1
  Te  Te88  1  0.43271999  0.75520734  0.39683182  1
  Te  Te89  1  0.41320406  0.73483588  0.74541408  1
  Te  Te90  1  0.76132098  0.09082068  0.09732660  1
  Te  Te91  1  0.77037119  0.07683420  0.42982106  1
  Te  Te92  1  0.75393616  0.08313783  0.76495751  1
  Te  Te93  1  0.72853840  0.38962334  0.06177046  1
  Te  Te94  1  0.76199842  0.41607498  0.42949514  1
  Te  Te95  1  0.74948774  0.43125637  0.74366723  1
  Te  Te96  1  0.74735562  0.74658619  0.09987902  1
  Te  Te97  1  0.75619824  0.74326264  0.41753763  1
  Te  Te98  1  0.75687633  0.75715446  0.70989652  1
  Te  Te99  1  0.08649896  0.27296151  0.24367000  1
  Te  Te100  1  0.05796306  0.24188763  0.55170669  1
  Te  Te101  1  0.08050326  0.25799209  0.91922170  1
  Te  Te102  1  0.08898232  0.57820764  0.25081938  1
  Te  Te103  1  0.05866106  0.59362609  0.61179728  1
  Te  Te104  1  0.09583556  0.58916700  0.91467031  1
  Te  Te105  1  0.05852155  0.92418409  0.28047215  1
  Te  Te106  1  0.10623268  0.91338247  0.60756089  1
  Te  Te107  1  0.09917768  0.92616541  0.88635313  1
  Te  Te108  1  0.43867947  0.26921062  0.22362581  1
  Te  Te109  1  0.39892865  0.27795566  0.57761138  1
  Te  Te110  1  0.43232715  0.23948032  0.89852158  1
  Te  Te111  1  0.42626019  0.56132718  0.26124923  1
  Te  Te112  1  0.43218145  0.55655880  0.58547454  1
  Te  Te113  1  0.41013631  0.64851621  0.87386001  1
  Te  Te114  1  0.43686049  0.91880256  0.25560044  1
  Te  Te115  1  0.41143076  0.91526150  0.58171524  1
  Te  Te116  1  0.39895889  0.89968403  0.87911074  1
  Te  Te117  1  0.74989126  0.23554074  0.26736328  1
  Te  Te118  1  0.72914238  0.27558184  0.58193997  1
  Te  Te119  1  0.71437033  0.25017154  0.90695049  1
  Te  Te120  1  0.76356083  0.57094056  0.24354832  1
  Te  Te121  1  0.76035608  0.58534799  0.57382946  1
  Te  Te122  1  0.73897292  0.57762480  0.89814816  1
  Te  Te123  1  0.76054336  0.92317802  0.24259663  1
  Te  Te124  1  0.80349269  0.95411610  0.56165079  1
  Te  Te125  1  0.75298671  0.90937628  0.91265799  1
  Te  Te126  1  0.24385748  0.23783357  0.06562240  1
  Te  Te127  1  0.26197982  0.24651063  0.41995256  1
  Te  Te128  1  0.25615633  0.25602354  0.74276220  1
  Te  Te129  1  0.28730817  0.57863453  0.07097166  1
  Te  Te130  1  0.25408258  0.61182272  0.42721343  1
  Te  Te131  1  0.24784278  0.56357729  0.74606734  1
  Te  Te132  1  0.24462698  0.92160502  0.07759660  1
  Te  Te133  1  0.24528560  0.89830276  0.41356849  1
  Te  Te134  1  0.26311895  0.89566136  0.79832637  1
  Te  Te135  1  0.63363537  0.26217244  0.06659289  1
  Te  Te136  1  0.56340572  0.26060949  0.42729010  1
  Te  Te137  1  0.58829922  0.27548990  0.72709401  1
  Te  Te138  1  0.57617337  0.56285093  0.06344132  1
  Te  Te139  1  0.59036990  0.56363779  0.41097343  1
  Te  Te140  1  0.55641054  0.57433016  0.75486273  1
  Te  Te141  1  0.59405043  0.89881559  0.06843602  1
  Te  Te142  1  0.59471328  0.91267752  0.41457730  1
  Te  Te143  1  0.58312308  0.92802676  0.76919737  1
  Te  Te144  1  0.90897802  0.25475357  0.10202441  1
  Te  Te145  1  0.86186091  0.22854517  0.38321372  1
  Te  Te146  1  0.90235448  0.25511648  0.75385536  1
  Te  Te147  1  0.90007200  0.59092342  0.08980059  1
  Te  Te148  1  0.90160245  0.59034915  0.43053075  1
  Te  Te149  1  0.90998035  0.62907696  0.75564778  1
  Te  Te150  1  0.90676444  0.92653933  0.07768188  1
  Te  Te151  1  0.93345079  0.89310003  0.45994829  1
  Te  Te152  1  0.92763130  0.88460785  0.74786005  1
  Te  Te153  1  0.24750133  0.07060940  0.25114100  1
  Te  Te154  1  0.26019725  0.08512545  0.57913104  1
  Te  Te155  1  0.22995587  0.10220304  0.93364451  1
  Te  Te156  1  0.24241995  0.39799011  0.22796385  1
  Te  Te157  1  0.23291809  0.43053981  0.60973151  1
  Te  Te158  1  0.28121184  0.42659859  0.89669714  1
  Te  Te159  1  0.23378746  0.76261447  0.23749769  1
  Te  Te160  1  0.23531949  0.76569264  0.60806313  1
  Te  Te161  1  0.28535850  0.71696841  0.93304289  1
  Te  Te162  1  0.59452400  0.09887646  0.23585372  1
  Te  Te163  1  0.60272642  0.08311138  0.60136174  1
  Te  Te164  1  0.55605661  0.07245199  0.92233289  1
  Te  Te165  1  0.57452423  0.40328834  0.24702275  1
  Te  Te166  1  0.59392682  0.37695085  0.60630303  1
  Te  Te167  1  0.53138549  0.39717225  0.90909910  1
  Te  Te168  1  0.58875770  0.75702700  0.25133949  1
  Te  Te169  1  0.58431591  0.74844611  0.57909287  1
  Te  Te170  1  0.57366785  0.73404256  0.90417877  1
  Te  Te171  1  0.93725109  0.12401994  0.29187534  1
  Te  Te172  1  0.93359789  0.10578374  0.58948662  1
  Te  Te173  1  0.92251441  0.08595895  0.92441967  1
  Te  Te174  1  0.90810328  0.42618128  0.27764649  1
  Te  Te175  1  0.91019151  0.40501541  0.57648093  1
  Te  Te176  1  0.92371108  0.44565569  0.90026870  1
  Te  Te177  1  0.90543672  0.74061962  0.25348402  1
  Te  Te178  1  0.84122099  0.80592058  0.57387488  1
  Te  Te179  1  0.88303662  0.71172835  0.89032455  1
