# generated using pymatgen
data_In2Te3
_symmetry_space_group_name_H-M   'P 1'
_cell_length_a   19.00445936
_cell_length_b   19.02221578
_cell_length_c   19.01665366
_cell_angle_alpha   90.00475406
_cell_angle_beta   90.13429717
_cell_angle_gamma   89.64855140
_symmetry_Int_Tables_number   1
_chemical_formula_structural   In2Te3
_chemical_formula_sum   'In72 Te108'
_cell_volume   6874.50379073
_cell_formula_units_Z   36
loop_
 _symmetry_equiv_pos_site_id
 _symmetry_equiv_pos_as_xyz
  1  'x, y, z'
loop_
 _atom_site_type_symbol
 _atom_site_label
 _atom_site_symmetry_multiplicity
 _atom_site_fract_x
 _atom_site_fract_y
 _atom_site_fract_z
 _atom_site_occupancy
  In  In0  1  0.50593325  0.66666531  0.50983596  1
  In  In1  1  0.18264026  0.70706070  0.15790052  1
  In  In2  1  0.33709579  0.02320519  0.32518741  1
  In  In3  1  -0.01740305  0.81992977  0.50712244  1
  In  In4  1  0.50347171  0.15526493  0.66942577  1
  In  In5  1  -0.01104266  0.16106742  0.49160677  1
  In  In6  1  0.65932536  0.84551274  0.16241220  1
  In  In7  1  0.02150946  0.65904656  0.33369350  1
  In  In8  1  0.16950223  0.47396871  0.31831958  1
  In  In9  1  0.33307831  0.49869720  0.82727679  1
  In  In10  1  0.66324541  0.83060187  0.49898023  1
  In  In11  1  0.83871226  0.83754123  -0.00428703  1
  In  In12  1  0.83819503  0.16545551  0.32635701  1
  In  In13  1  0.35021303  0.64247852  0.36780656  1
  In  In14  1  0.19531616  0.85639815  0.33812596  1
  In  In15  1  0.19815244  -0.00263595  0.83808743  1
  In  In16  1  0.67693249  0.00842597  0.01351896  1
  In  In17  1  -0.00441488  0.87041967  0.14920405  1
  In  In18  1  0.17612021  0.50677422  0.02914831  1
  In  In19  1  0.82066504  0.30967939  0.83951004  1
  In  In20  1  0.35396949  0.30783688  0.33307339  1
  In  In21  1  0.82536033  0.66505851  0.84104795  1
  In  In22  1  0.33351179  0.33326248  0.02094772  1
  In  In23  1  0.00593065  -0.02373980  0.66303973  1
  In  In24  1  0.83153684  0.00946344  0.49085733  1
  In  In25  1  0.50901044  0.00011992  0.48977533  1
  In  In26  1  0.33028167  0.51107320  0.18374922  1
  In  In27  1  0.14559156  -0.01704696  0.50472988  1
  In  In28  1  0.34443871  0.31891392  0.69304070  1
  In  In29  1  0.34566031  -0.00516147  0.65832563  1
  In  In30  1  0.01666396  0.52968894  0.83606098  1
  In  In31  1  0.19373969  0.67365297  0.51834970  1
  In  In32  1  0.62911441  0.83727743  0.82318563  1
  In  In33  1  0.33672128  0.68103443  0.67389967  1
  In  In34  1  0.34958077  -0.04714212  0.00177017  1
  In  In35  1  0.16844704  0.01359620  0.16028195  1
  In  In36  1  0.66545067  0.17082562  0.84069773  1
  In  In37  1  0.63832657  0.48868146  0.51979221  1
  In  In38  1  0.48726565  0.34814169  0.86653869  1
  In  In39  1  0.82361719  0.68972297  0.18365001  1
  In  In40  1  0.81896062  0.48718361  0.66765206  1
  In  In41  1  0.83657058  0.48754359  -0.00041939  1
  In  In42  1  0.64589843  0.68479981  0.32718543  1
  In  In43  1  0.67694712  0.48883894  0.82464171  1
  In  In44  1  0.84586741  0.48156832  0.32340318  1
  In  In45  1  0.48352405  -0.00743642  0.82482553  1
  In  In46  1  -0.02479249  0.49435043  0.18860475  1
  In  In47  1  0.51152334  0.65388229  0.82548944  1
  In  In48  1  0.73126365  0.28699945  0.50447264  1
  In  In49  1  0.82845373  0.83436609  0.66819922  1
  In  In50  1  -0.00156156  0.34193016  0.69641120  1
  In  In51  1  0.68107443  0.33796705  0.33573135  1
  In  In52  1  0.66359009  0.50009464  0.14176385  1
  In  In53  1  -0.00039826  0.14927184  0.16604251  1
  In  In54  1  0.16012888  0.81280116  0.82080075  1
  In  In55  1  0.82431048  0.84876460  0.34175229  1
  In  In56  1  0.67094320  -0.00971660  0.31166690  1
  In  In57  1  -0.01356149  0.15253871  0.85211380  1
  In  In58  1  0.53889690  0.31525173  0.13883364  1
  In  In59  1  -0.02510536  0.30545810  -0.00733458  1
  In  In60  1  0.17419007  0.18693677  0.69657386  1
  In  In61  1  0.02478389  0.50578235  0.49716613  1
  In  In62  1  0.50278063  -0.01163971  0.15772194  1
  In  In63  1  0.36280069  0.47321568  0.49990136  1
  In  In64  1  0.18174776  0.51970639  0.65439976  1
  In  In65  1  0.12798847  0.31767433  0.15269359  1
  In  In66  1  0.33062723  0.15645205  0.14878059  1
  In  In67  1  0.15457665  0.33619333  0.48796625  1
  In  In68  1  0.33904241  0.14349291  0.50543096  1
  In  In69  1  0.50946757  0.51573562  -0.00580488  1
  In  In70  1  0.83152266  0.01192240  0.82004888  1
  In  In71  1  0.01812076  0.68553350  0.02313036  1
  Te  Te72  1  0.08238876  0.08080104  0.06482085  1
  Te  Te73  1  0.08482112  0.08119313  0.41615257  1
  Te  Te74  1  0.07941051  0.07953327  0.74853495  1
  Te  Te75  1  0.05353478  0.42739842  0.06822090  1
  Te  Te76  1  0.05805180  0.40155671  0.39025812  1
  Te  Te77  1  0.10238383  0.43436473  0.75441662  1
  Te  Te78  1  0.10529065  0.80044912  0.06767987  1
  Te  Te79  1  0.10230010  0.75496404  0.41771831  1
  Te  Te80  1  0.09613122  0.74849122  0.70592403  1
  Te  Te81  1  0.42500096  0.07733245  0.06333054  1
  Te  Te82  1  0.44058268  0.10380614  0.40060107  1
  Te  Te83  1  0.39443495  0.09677018  0.75786327  1
  Te  Te84  1  0.42939007  0.42644410  0.09465324  1
  Te  Te85  1  0.43513478  0.41493873  0.38896995  1
  Te  Te86  1  0.43630058  0.42719512  0.74398912  1
  Te  Te87  1  0.35536213  0.80937796  0.05179685  1
  Te  Te88  1  0.41422977  0.75667902  0.43478424  1
  Te  Te89  1  0.43120580  0.76101525  0.75467285  1
  Te  Te90  1  0.69480111  0.10966960  0.12213343  1
  Te  Te91  1  0.73216715  0.08625413  0.40935908  1
  Te  Te92  1  0.73759125  0.09110576  0.73503048  1
  Te  Te93  1  0.77041290  0.40575005  0.10053120  1
  Te  Te94  1  0.76051555  0.43219296  0.43766387  1
  Te  Te95  1  0.73615775  0.38077786  0.73530406  1
  Te  Te96  1  0.74279271  0.75066225  0.07334511  1
  Te  Te97  1  0.75817646  0.73878780  0.41457328  1
  Te  Te98  1  0.73707109  0.74989986  0.75397005  1
  Te  Te99  1  0.06475022  0.24458130  0.25944780  1
  Te  Te100  1  0.07704149  0.25567920  0.59036657  1
  Te  Te101  1  0.07675088  0.25626789  0.90203602  1
  Te  Te102  1  0.10160194  0.58284373  0.22864815  1
  Te  Te103  1  0.07523462  0.61252401  0.59457693  1
  Te  Te104  1  0.10744442  0.60498092  0.93079222  1
  Te  Te105  1  0.08905759  0.92622882  0.25735955  1
  Te  Te106  1  0.09573194  0.86661213  0.60422540  1
  Te  Te107  1  0.08343818  0.91944017  0.88524727  1
  Te  Te108  1  0.43269719  0.24159460  0.22240858  1
  Te  Te109  1  0.41574277  0.24881915  0.57989111  1
  Te  Te110  1  0.42391476  0.24567083  0.94705361  1
  Te  Te111  1  0.42848642  0.58928290  0.25627434  1
  Te  Te112  1  0.41614802  0.57441572  0.59352273  1
  Te  Te113  1  0.40420319  0.59431614  0.91896206  1
  Te  Te114  1  0.40792752  0.91813872  0.24873874  1
  Te  Te115  1  0.45997819  0.91810709  0.60315676  1
  Te  Te116  1  0.39853226  0.87574290  0.86613247  1
  Te  Te117  1  0.72903641  0.22985414  0.24719986  1
  Te  Te118  1  0.71812776  0.18407901  0.61013383  1
  Te  Te119  1  0.74410451  0.24197816  0.94556085  1
  Te  Te120  1  0.74849022  0.58135159  0.25497840  1
  Te  Te121  1  0.71951839  0.57760215  0.60477012  1
  Te  Te122  1  0.73898354  0.58027265  0.93002360  1
  Te  Te123  1  0.77533837  0.92371754  0.22182235  1
  Te  Te124  1  0.74452910  0.92774245  0.58228803  1
  Te  Te125  1  0.74142555  0.91511134  0.90361197  1
  Te  Te126  1  0.22630560  0.23822458  0.06990353  1
  Te  Te127  1  0.25153032  0.24137822  0.42180478  1
  Te  Te128  1  0.25835601  0.25672537  0.79214214  1
  Te  Te129  1  0.27240433  0.60989562  0.08264535  1
  Te  Te130  1  0.23586684  0.55177565  0.42880604  1
  Te  Te131  1  0.24324676  0.60394773  0.76375787  1
  Te  Te132  1  0.28141440  0.91529493  0.13735800  1
  Te  Te133  1  0.27396770  0.93775764  0.43717219  1
  Te  Te134  1  0.24878907  0.90752395  0.72905483  1
  Te  Te135  1  0.61682799  0.22462918  0.05289179  1
  Te  Te136  1  0.59129096  0.27367822  0.43556947  1
  Te  Te137  1  0.56164804  0.25380519  0.76826518  1
  Te  Te138  1  0.57375069  0.60355833  0.09155812  1
  Te  Te139  1  0.57919222  0.57873089  0.41031910  1
  Te  Te140  1  0.59910640  0.57538819  0.73454090  1
  Te  Te141  1  0.57332685  0.90478855  0.05196718  1
  Te  Te142  1  0.57983854  0.90415298  0.39573291  1
  Te  Te143  1  0.57681506  0.93547090  0.72459114  1
  Te  Te144  1  0.90026233  0.23174596  0.08994819  1
  Te  Te145  1  0.87897536  0.25105233  0.44454605  1
  Te  Te146  1  0.90856515  0.23192480  0.74469759  1
  Te  Te147  1  0.91058278  0.59819610  0.08718056  1
  Te  Te148  1  0.92182290  0.58205891  0.41315246  1
  Te  Te149  1  0.91029231  0.58590844  0.74418055  1
  Te  Te150  1  0.91763131  0.94889111  0.05116408  1
  Te  Te151  1  0.93222015  0.92642801  0.41222744  1
  Te  Te152  1  0.92246133  0.90283033  0.76491984  1
  Te  Te153  1  0.23570848  0.11112747  0.25688557  1
  Te  Te154  1  0.22691709  0.08803126  0.59257869  1
  Te  Te155  1  0.26584072  0.06344952  0.94882366  1
  Te  Te156  1  0.25285988  0.38337523  0.23164018  1
  Te  Te157  1  0.25114403  0.39958507  0.58902923  1
  Te  Te158  1  0.25008719  0.42212033  0.92860655  1
  Te  Te159  1  0.26842615  0.73943256  0.27560469  1
  Te  Te160  1  0.29698360  0.76819183  0.55996542  1
  Te  Te161  1  0.27574634  0.79229405  0.91650502  1
  Te  Te162  1  0.58131094  0.08519488  0.23885741  1
  Te  Te163  1  0.59463524  0.09983682  0.56449729  1
  Te  Te164  1  0.58007268  0.07022572  0.91339632  1
  Te  Te165  1  0.58869286  0.41437446  0.24182273  1
  Te  Te166  1  0.60442535  0.35228125  0.56731556  1
  Te  Te167  1  0.60486552  0.41421887  0.93448280  1
  Te  Te168  1  0.56406762  0.76385782  0.23660051  1
  Te  Te169  1  0.59619583  0.74434506  0.59399687  1
  Te  Te170  1  0.57226894  0.74680798  0.92170127  1
  Te  Te171  1  0.90799136  0.06508435  0.24615219  1
  Te  Te172  1  0.91643089  0.07848402  0.59549486  1
  Te  Te173  1  0.88997020  0.08030705  0.93684355  1
  Te  Te174  1  0.89145163  0.38030144  0.22651490  1
  Te  Te175  1  0.93288024  0.42421513  0.58758922  1
  Te  Te176  1  0.91391749  0.42376080  0.88656481  1
  Te  Te177  1  0.94222362  0.75814388  0.24802919  1
  Te  Te178  1  0.88944373  0.73571421  0.57792514  1
  Te  Te179  1  0.93009234  0.74683075  0.91506078  1
