# generated using pymatgen
data_In2Te3
_symmetry_space_group_name_H-M   'P 1'
_cell_length_a   18.97222822
_cell_length_b   18.95305782
_cell_length_c   18.95673128
_cell_angle_alpha   89.95047760
_cell_angle_beta   89.99470476
_cell_angle_gamma   90.10788212
_symmetry_Int_Tables_number   1
_chemical_formula_structural   In2Te3
_chemical_formula_sum   'In72 Te108'
_cell_volume   6816.47972568
_cell_formula_units_Z   36
loop_
 _symmetry_equiv_pos_site_id
 _symmetry_equiv_pos_as_xyz
  1  'x, y, z'
loop_
 _atom_site_type_symbol
 _atom_site_label
 _atom_site_symmetry_multiplicity
 _atom_site_fract_x
 _atom_site_fract_y
 _atom_site_fract_z
 _atom_site_occupancy
  In  In0  1  0.63279292  0.48940556  0.50274073  1
  In  In1  1  0.64939536  0.01918399  0.66719784  1
  In  In2  1  0.66034041  0.66609212  0.67533720  1
  In  In3  1  0.48899552  0.00128907  0.50648082  1
  In  In4  1  0.14745724  0.35000537  0.82245960  1
  In  In5  1  0.14744935  0.00404416  0.16270548  1
  In  In6  1  0.68547123  0.49418324  0.15181923  1
  In  In7  1  0.31338806  0.49455870  0.80796444  1
  In  In8  1  0.67157693  0.00603483  0.31733841  1
  In  In9  1  0.50422054  0.01043812  0.13797177  1
  In  In10  1  0.47050049  0.50660693  0.34237924  1
  In  In11  1  0.82492768  0.16129961  0.31835807  1
  In  In12  1  0.84982624  0.00945913  0.83007470  1
  In  In13  1  0.63345654  0.80455098  0.20816302  1
  In  In14  1  0.52415682  0.84067783  0.00281751  1
  In  In15  1  0.14894860  0.85332263  -0.00489324  1
  In  In16  1  0.84516886  0.66487421  0.51355259  1
  In  In17  1  0.67338759  0.48433215  0.81575785  1
  In  In18  1  0.67111288  0.83212517  0.49590286  1
  In  In19  1  0.02421883  0.79080308  0.53421376  1
  In  In20  1  0.34335058  0.65696975  0.01038679  1
  In  In21  1  0.49807170  0.33120213  0.15203934  1
  In  In22  1  0.85356323  0.65221111  0.83403556  1
  In  In23  1  0.82128461  0.32331219  0.50113467  1
  In  In24  1  0.17509182  0.65886067  0.82273508  1
  In  In25  1  0.16142444  0.32923976  0.15664831  1
  In  In26  1  0.15350140  0.48414527  0.34665863  1
  In  In27  1  0.86845283  0.42940515  -0.01642795  1
  In  In28  1  0.19395630  0.65278817  0.18375501  1
  In  In29  1  0.01376590  0.64056785  -0.00009688  1
  In  In30  1  0.85482515  0.82598743  0.63185315  1
  In  In31  1  0.34252579  0.03382066  -0.02359120  1
  In  In32  1  0.01007211  0.01718432  -0.02222373  1
  In  In33  1  0.83926221  0.19940788  0.69726908  1
  In  In34  1  0.82879404  0.04386785  0.12940849  1
  In  In35  1  0.50206735  0.49665392  -0.01224495  1
  In  In36  1  0.32077148  0.48794429  0.52035659  1
  In  In37  1  0.15514085  0.16990696  0.66653993  1
  In  In38  1  0.85409834  0.49408112  0.68724461  1
  In  In39  1  0.33073716  -0.00446023  0.33184385  1
  In  In40  1  0.83827730  0.01352883  0.47655345  1
  In  In41  1  0.82650915  0.81682613  0.00773590  1
  In  In42  1  0.34341189  0.83887449  0.16718231  1
  In  In43  1  0.82646919  0.22186912  -0.01466215  1
  In  In44  1  -0.02056673  0.47343311  0.15254521  1
  In  In45  1  0.82758658  0.82445082  0.32395791  1
  In  In46  1  0.32367628  0.83372887  0.81762207  1
  In  In47  1  -0.02308602  0.00132365  0.32588628  1
  In  In48  1  -0.00110424  0.83464879  0.17163932  1
  In  In49  1  0.17781227  0.18635958  -0.02042503  1
  In  In50  1  0.35298300  0.48246603  0.14564394  1
  In  In51  1  0.50542405  0.16995377  0.33079236  1
  In  In52  1  0.17120431  0.18063394  0.33223329  1
  In  In53  1  0.84358709  0.49968399  0.30925536  1
  In  In54  1  0.67267174  0.82680240  0.84586538  1
  In  In55  1  0.01417282  0.67603461  0.33173168  1
  In  In56  1  0.33735581  0.82776048  0.50720206  1
  In  In57  1  0.47855386  0.80739175  0.67150302  1
  In  In58  1  0.66445389  0.32977156  0.32152954  1
  In  In59  1  0.17849627  0.02825432  0.51138014  1
  In  In60  1  0.48554341  0.47689350  0.67247547  1
  In  In61  1  0.50922586  0.01869424  0.82951081  1
  In  In62  1  0.32919756  0.33067620  0.35589491  1
  In  In63  1  0.34081312  0.67429258  0.34832440  1
  In  In64  1  0.66282552  0.67162228  0.00275839  1
  In  In65  1  0.01178187  0.01325748  0.68778289  1
  In  In66  1  0.50685197  0.17461934  -0.02686502  1
  In  In67  1  0.17503333  0.81927330  0.66978335  1
  In  In68  1  0.04058186  0.49549194  0.52635698  1
  In  In69  1  0.32893811  0.33878717  0.67552102  1
  In  In70  1  -0.00006426  0.17801824  0.52760400  1
  In  In71  1  0.50557751  0.20028146  0.71846587  1
  Te  Te72  1  0.08079233  0.10659159  0.07670906  1
  Te  Te73  1  0.06565328  0.08529509  0.41628792  1
  Te  Te74  1  0.04717421  0.13432248  0.76524694  1
  Te  Te75  1  0.07718509  0.40706740  0.06287347  1
  Te  Te76  1  0.04924276  0.40567058  0.41022876  1
  Te  Te77  1  0.04069971  0.41345467  0.74015693  1
  Te  Te78  1  0.09442527  0.74292295  0.09538634  1
  Te  Te79  1  0.10553121  0.74116841  0.42444483  1
  Te  Te80  1  0.08469387  0.76039639  0.76909001  1
  Te  Te81  1  0.40952050  0.11390191  0.08305730  1
  Te  Te82  1  0.40578499  0.09350924  0.41934550  1
  Te  Te83  1  0.40711669  0.09207621  0.75659331  1
  Te  Te84  1  0.40772044  0.38824198  0.04150545  1
  Te  Te85  1  0.42615850  0.40472172  0.44504117  1
  Te  Te86  1  0.42770956  0.39830048  0.78798183  1
  Te  Te87  1  0.43610212  0.74937183  0.08842078  1
  Te  Te88  1  0.43527699  0.77362688  0.40669769  1
  Te  Te89  1  0.37883529  0.72237999  0.73775739  1
  Te  Te90  1  0.73537545  0.12046733  0.04696571  1
  Te  Te91  1  0.72771331  0.09946191  0.42405611  1
  Te  Te92  1  0.74357683  0.09148520  0.75947226  1
  Te  Te93  1  0.74048033  0.39612947  0.05743072  1
  Te  Te94  1  0.74954951  0.43167788  0.41337237  1
  Te  Te95  1  0.77407181  0.38911028  0.75814152  1
  Te  Te96  1  0.73975724  0.74682971  0.10952723  1
  Te  Te97  1  0.74926458  0.73123098  0.41492920  1
  Te  Te98  1  0.76464888  0.75369464  0.74789059  1
  Te  Te99  1  0.07876979  0.26776063  0.26109573  1
  Te  Te100  1  0.10361741  0.27439986  0.57207712  1
  Te  Te101  1  0.06883049  0.28289234  0.93814717  1
  Te  Te102  1  0.07704729  0.56750991  0.23343776  1
  Te  Te103  1  0.11133348  0.59445109  0.60398696  1
  Te  Te104  1  0.10070392  0.56373876  0.91053571  1
  Te  Te105  1  0.08615064  0.91186128  0.26760907  1
  Te  Te106  1  0.07321702  0.93181548  0.57563132  1
  Te  Te107  1  0.07646144  0.92174754  0.88861635  1
  Te  Te108  1  0.40842015  0.25544840  0.25143939  1
  Te  Te109  1  0.43911471  0.27264442  0.60576574  1
  Te  Te110  1  0.43512945  0.23355388  0.85506320  1
  Te  Te111  1  0.40580477  0.59319834  0.23544124  1
  Te  Te112  1  0.41484642  0.57534175  0.59078138  1
  Te  Te113  1  0.40759248  0.57820904  0.90133350  1
  Te  Te114  1  0.43673653  0.92739150  0.24705243  1
  Te  Te115  1  0.40511228  0.92258993  0.60519732  1
  Te  Te116  1  0.41876221  0.91192060  0.91973787  1
  Te  Te117  1  0.74479915  0.24708439  0.23237875  1
  Te  Te118  1  0.74197954  0.24993964  0.59992054  1
  Te  Te119  1  0.74595697  0.27071742  0.86580802  1
  Te  Te120  1  0.74793848  0.58879204  0.24449905  1
  Te  Te121  1  0.75108767  0.57490454  0.59491861  1
  Te  Te122  1  0.74560191  0.58284889  0.91286410  1
  Te  Te123  1  0.78127696  0.94018427  0.23788348  1
  Te  Te124  1  0.74613912  0.92997495  0.58722884  1
  Te  Te125  1  0.75973705  0.92284405  0.92243760  1
  Te  Te126  1  0.26077967  0.25234736  0.08117796  1
  Te  Te127  1  0.24521709  0.24541785  0.44153180  1
  Te  Te128  1  0.24327370  0.24991665  0.76314219  1
  Te  Te129  1  0.24372022  0.56179681  0.07424345  1
  Te  Te130  1  0.24654894  0.57716740  0.42006625  1
  Te  Te131  1  0.21422510  0.55958738  0.71377126  1
  Te  Te132  1  0.25677897  0.92870442  0.07936908  1
  Te  Te133  1  0.24316150  0.91885984  0.42808760  1
  Te  Te134  1  0.23825502  0.92745305  0.74647043  1
  Te  Te135  1  0.58802690  0.24843140  0.07267783  1
  Te  Te136  1  0.58400149  0.25638169  0.41876571  1
  Te  Te137  1  0.60000465  0.24777523  0.83272653  1
  Te  Te138  1  0.57602244  0.58242239  0.08878203  1
  Te  Te139  1  0.56989885  0.58971411  0.41554286  1
  Te  Te140  1  0.57085774  0.57991798  0.75722395  1
  Te  Te141  1  0.61490841  0.91163711  0.10040260  1
  Te  Te142  1  0.58549331  0.92700198  0.41476311  1
  Te  Te143  1  0.58350175  0.90102645  0.74575083  1
  Te  Te144  1  0.90066216  0.31079946  0.08012125  1
  Te  Te145  1  0.91279348  0.23792627  0.41613797  1
  Te  Te146  1  0.96273571  0.27630506  0.73672105  1
  Te  Te147  1  0.89890496  0.56366144  0.06049871  1
  Te  Te148  1  0.92653590  0.58377980  0.41492587  1
  Te  Te149  1  0.94814633  0.54488178  0.79221729  1
  Te  Te150  1  0.92494834  0.92432619  0.07470109  1
  Te  Te151  1  0.91754821  0.89382477  0.42517497  1
  Te  Te152  1  0.92092899  0.90564713  0.74598797  1
  Te  Te153  1  0.24847373  0.08579712  0.24187267  1
  Te  Te154  1  0.26749322  0.10496350  0.59603290  1
  Te  Te155  1  0.23122722  0.07790930  0.89496742  1
  Te  Te156  1  0.25955244  0.42400092  0.25392628  1
  Te  Te157  1  0.22594356  0.38888969  0.57906005  1
  Te  Te158  1  0.23404369  0.42849292  0.91265451  1
  Te  Te159  1  0.24992812  0.76775559  0.26281613  1
  Te  Te160  1  0.26436400  0.73184712  0.59241558  1
  Te  Te161  1  0.25007573  0.75237230  0.93673394  1
  Te  Te162  1  0.59193721  0.09751147  0.22808092  1
  Te  Te163  1  0.55491938  0.10552228  0.59363929  1
  Te  Te164  1  0.59458159  0.05880922  0.93996220  1
  Te  Te165  1  0.56783120  0.42986847  0.24697982  1
  Te  Te166  1  0.60222166  0.40517330  0.61695187  1
  Te  Te167  1  0.59995663  0.40830898  0.92047714  1
  Te  Te168  1  0.55240949  0.72932527  0.29988774  1
  Te  Te169  1  0.57687586  0.74259102  0.57460207  1
  Te  Te170  1  0.56699997  0.73445042  0.90245647  1
  Te  Te171  1  0.93235467  0.10357908  0.22332428  1
  Te  Te172  1  0.89971669  0.08385787  0.59760126  1
  Te  Te173  1  0.91555417  0.11563974  0.91433236  1
  Te  Te174  1  0.89272860  0.38296222  0.23308045  1
  Te  Te175  1  0.91819296  0.41673172  0.57446344  1
  Te  Te176  1  0.93724309  0.34446655  0.87683847  1
  Te  Te177  1  0.90942290  0.73090587  0.23563660  1
  Te  Te178  1  0.94297009  0.70181720  0.62472255  1
  Te  Te179  1  0.93046384  0.74744725  0.92421862  1
