# generated using pymatgen
data_In2Te3
_symmetry_space_group_name_H-M   'P 1'
_cell_length_a   18.91762861
_cell_length_b   18.88847212
_cell_length_c   18.90206730
_cell_angle_alpha   90.01622507
_cell_angle_beta   90.10583142
_cell_angle_gamma   89.95122639
_symmetry_Int_Tables_number   1
_chemical_formula_structural   In2Te3
_chemical_formula_sum   'In72 Te108'
_cell_volume   6754.16886401
_cell_formula_units_Z   36
loop_
 _symmetry_equiv_pos_site_id
 _symmetry_equiv_pos_as_xyz
  1  'x, y, z'
loop_
 _atom_site_type_symbol
 _atom_site_label
 _atom_site_symmetry_multiplicity
 _atom_site_fract_x
 _atom_site_fract_y
 _atom_site_fract_z
 _atom_site_occupancy
  In  In0  1  0.84215048  0.16696520  0.67643774  1
  In  In1  1  0.50091722  0.68168534  0.15872086  1
  In  In2  1  -0.05344118  0.79057902  0.53811582  1
  In  In3  1  0.69158678  -0.01551397  0.65953672  1
  In  In4  1  0.34826979  0.84033070  0.52652968  1
  In  In5  1  0.69751995  0.34087796  0.00798747  1
  In  In6  1  0.16283656  0.63764711  0.13531024  1
  In  In7  1  0.31770485  0.33975171  -0.00379674  1
  In  In8  1  0.32590622  0.49626968  0.15493047  1
  In  In9  1  -0.01497110  0.47533908  0.85414280  1
  In  In10  1  0.68575312  0.17809799  0.15528788  1
  In  In11  1  0.50031939  0.35344306  0.83120112  1
  In  In12  1  0.67224952  0.19436256  0.85469957  1
  In  In13  1  0.33579970  0.33374244  0.34327231  1
  In  In14  1  0.15500072  0.83936588  0.68035578  1
  In  In15  1  0.82487508  0.15962890  0.34456387  1
  In  In16  1  -0.03373248  0.51737716  0.52261720  1
  In  In17  1  0.83527963  -0.00002755  0.16855424  1
  In  In18  1  0.17590572  0.18078305  0.65877136  1
  In  In19  1  0.48571030  0.18021984  0.67660032  1
  In  In20  1  -0.01524319  0.80428942  0.17901356  1
  In  In21  1  0.16953292  0.00722592  0.52339069  1
  In  In22  1  0.53932423  0.36679528  0.19286816  1
  In  In23  1  0.00591415  0.17643356  0.14363017  1
  In  In24  1  -0.00613200  0.50275090  0.17689936  1
  In  In25  1  0.36167124  0.84067097  0.15047751  1
  In  In26  1  0.15623947  0.50185731  0.35819469  1
  In  In27  1  0.51617799  -0.03001012  0.49439703  1
  In  In28  1  0.33946467  0.83593461  0.82439482  1
  In  In29  1  -0.03980125  0.65572892  0.34944583  1
  In  In30  1  -0.01894223  0.01409481  0.00891797  1
  In  In31  1  0.66907014  0.66320812  -0.02309248  1
  In  In32  1  0.17570836  0.51391268  -0.01494266  1
  In  In33  1  0.70120137  0.50208181  0.80188224  1
  In  In34  1  -0.02634627  0.63516651  0.00186774  1
  In  In35  1  0.50673223  -0.00323516  0.81075819  1
  In  In36  1  0.81556050  0.17546685  -0.03626058  1
  In  In37  1  -0.02929896  0.82547963  0.80620025  1
  In  In38  1  0.67874638  0.81088831  0.16176577  1
  In  In39  1  0.17887482  0.83506287  -0.02607557  1
  In  In40  1  0.15665941  0.19526264  0.32310756  1
  In  In41  1  0.53077633  0.69789971  0.53460289  1
  In  In42  1  0.14157117  0.02764486  0.15657379  1
  In  In43  1  0.52230010  -0.01192782  0.15427950  1
  In  In44  1  0.35094891  0.48908111  0.50440131  1
  In  In45  1  0.15887080  0.82153173  0.32297143  1
  In  In46  1  0.01069814  0.18972607  0.85200453  1
  In  In47  1  0.52071571  0.35596341  0.51151527  1
  In  In48  1  0.48334781  0.15567984  0.00031978  1
  In  In49  1  0.00235123  0.15496904  0.52158219  1
  In  In50  1  0.64640217  -0.00964479  0.35452538  1
  In  In51  1  0.33197544  0.34742251  0.67977515  1
  In  In52  1  0.15908877  0.00148347  0.83037296  1
  In  In53  1  0.31152545  0.63683989  0.68266055  1
  In  In54  1  0.69580720  0.66048035  0.35290481  1
  In  In55  1  0.68499572  0.51612523  0.52135338  1
  In  In56  1  0.15740767  0.33742454  0.48967160  1
  In  In57  1  0.14204419  0.65007979  0.50744818  1
  In  In58  1  0.35614900  0.67921645  0.32242414  1
  In  In59  1  0.81184893  0.66727321  0.82034722  1
  In  In60  1  0.15519431  0.32734122  0.12494439  1
  In  In61  1  0.32734079  -0.00265550  -0.01492390  1
  In  In62  1  0.52220433  0.66324308  0.81367528  1
  In  In63  1  0.66165797  0.15264216  0.49317551  1
  In  In64  1  0.84893037  0.35056721  0.17691913  1
  In  In65  1  0.49947456  0.52233289  -0.02032985  1
  In  In66  1  -0.02362432  -0.02435795  0.37031105  1
  In  In67  1  0.33450785  -0.00697707  0.31931063  1
  In  In68  1  0.83072464  0.33807532  0.50369087  1
  In  In69  1  0.48260428  0.17170189  0.33582877  1
  In  In70  1  -0.02175002  -0.02769568  0.68427835  1
  In  In71  1  0.69539640  -0.04236234  -0.04317836  1
  Te  Te72  1  0.10050427  0.11435549  0.03303783  1
  Te  Te73  1  0.08905053  0.08356187  0.41038735  1
  Te  Te74  1  0.07394867  0.08116006  0.73242839  1
  Te  Te75  1  0.07059431  0.43491744  0.06381182  1
  Te  Te76  1  0.04876757  0.42349715  0.42670144  1
  Te  Te77  1  0.11428813  0.43195598  0.79123970  1
  Te  Te78  1  0.08464488  0.75208721  0.07408532  1
  Te  Te79  1  0.06545387  0.75121273  0.42202407  1
  Te  Te80  1  0.07552770  0.73941444  0.75000744  1
  Te  Te81  1  0.40717623  0.06986024  0.09897417  1
  Te  Te82  1  0.41678319  0.06905680  0.42324334  1
  Te  Te83  1  0.40940302  0.10054282  0.77328036  1
  Te  Te84  1  0.43012594  0.42045921  0.07263786  1
  Te  Te85  1  0.44054189  0.42827023  0.39969646  1
  Te  Te86  1  0.42023775  0.44644614  0.74795756  1
  Te  Te87  1  0.42686069  0.75409407  0.05328920  1
  Te  Te88  1  0.43026260  0.75816462  0.42838616  1
  Te  Te89  1  0.41311752  0.74060481  0.73329988  1
  Te  Te90  1  0.74804610  0.07225922  0.06463303  1
  Te  Te91  1  0.76096574  0.05456071  0.43282774  1
  Te  Te92  1  0.73825848  0.09292584  0.75824380  1
  Te  Te93  1  0.74776654  0.43560333  0.10838530  1
  Te  Te94  1  0.72906018  0.41140273  0.42204656  1
  Te  Te95  1  0.78299806  0.40283240  0.73112923  1
  Te  Te96  1  0.76154066  0.73660623  0.06703363  1
  Te  Te97  1  0.74653816  0.77094276  0.44450920  1
  Te  Te98  1  0.71385179  0.70490698  0.70932579  1
  Te  Te99  1  0.06459131  0.28073087  0.23931438  1
  Te  Te100  1  0.06770047  0.27222958  0.59321774  1
  Te  Te101  1  0.09785029  0.24866269  0.95341834  1
  Te  Te102  1  0.08877484  0.60383296  0.26425533  1
  Te  Te103  1  0.07459862  0.57045934  0.60970762  1
  Te  Te104  1  0.07910012  0.59842824  0.90457022  1
  Te  Te105  1  0.06842502  0.92216344  0.24718419  1
  Te  Te106  1  0.06618472  0.90545571  0.57128371  1
  Te  Te107  1  0.06210529  0.91595951  0.91352690  1
  Te  Te108  1  0.42322362  0.26922238  0.23685788  1
  Te  Te109  1  0.41471625  0.26727685  0.57487550  1
  Te  Te110  1  0.41394472  0.25608262  0.91004053  1
  Te  Te111  1  0.42660625  0.57313571  0.24094336  1
  Te  Te112  1  0.41987697  0.59721590  0.58206181  1
  Te  Te113  1  0.41602759  0.57127838  0.86789485  1
  Te  Te114  1  0.44507880  0.90664612  0.25886238  1
  Te  Te115  1  0.43544092  0.92398778  0.60825751  1
  Te  Te116  1  0.43233573  0.91285054  0.91670976  1
  Te  Te117  1  0.75036743  0.26188810  0.26159488  1
  Te  Te118  1  0.74323637  0.24192869  0.58439006  1
  Te  Te119  1  0.79096330  0.30388237  0.87322527  1
  Te  Te120  1  0.73302528  0.55622090  0.25340286  1
  Te  Te121  1  0.77327156  0.61925293  0.59220703  1
  Te  Te122  1  0.76930933  0.56013121  0.92315105  1
  Te  Te123  1  0.73975082  0.92096943  0.25212574  1
  Te  Te124  1  0.72176627  0.87481270  0.55976668  1
  Te  Te125  1  0.80093159  0.89531258  0.87842816  1
  Te  Te126  1  0.26769486  0.24112918  0.09352145  1
  Te  Te127  1  0.25609921  0.23792579  0.43056229  1
  Te  Te128  1  0.23741915  0.26784276  0.75928913  1
  Te  Te129  1  0.28402612  0.60214270  0.05348234  1
  Te  Te130  1  0.26269571  0.59682586  0.41466317  1
  Te  Te131  1  0.21509878  0.53825633  0.73520564  1
  Te  Te132  1  0.23501104  0.92179393  0.09286057  1
  Te  Te133  1  0.24706262  0.90872424  0.41428752  1
  Te  Te134  1  0.25901508  0.93195771  0.73715542  1
  Te  Te135  1  0.58419204  0.25343587  0.07061935  1
  Te  Te136  1  0.58352696  0.25435069  0.41274611  1
  Te  Te137  1  0.59106775  0.26520427  0.74612765  1
  Te  Te138  1  0.59036797  0.58501807  0.08323086  1
  Te  Te139  1  0.58406185  0.59603993  0.43594826  1
  Te  Te140  1  0.59631883  0.57053368  0.72040093  1
  Te  Te141  1  0.59985433  0.89812170  0.06188508  1
  Te  Te142  1  0.60767868  0.86730453  0.43173021  1
  Te  Te143  1  0.61232396  0.90402999  0.75938127  1
  Te  Te144  1  0.90040916  0.25257965  0.06625778  1
  Te  Te145  1  0.92406915  0.24222268  0.42381541  1
  Te  Te146  1  0.94232658  0.25579979  0.73969314  1
  Te  Te147  1  0.89862692  0.60394978  0.12347635  1
  Te  Te148  1  0.86433995  0.59105876  0.44229989  1
  Te  Te149  1  0.91635299  0.57507219  0.76271159  1
  Te  Te150  1  0.91022895  0.90149479  0.08189646  1
  Te  Te151  1  0.88663381  0.86771220  0.42009926  1
  Te  Te152  1  0.85807909  0.89346195  0.73206216  1
  Te  Te153  1  0.24469317  0.09557766  0.24773961  1
  Te  Te154  1  0.26908647  0.08840968  0.59094487  1
  Te  Te155  1  0.25696919  0.09016212  0.89650626  1
  Te  Te156  1  0.24006755  0.42107847  0.25876012  1
  Te  Te157  1  0.23747228  0.42818892  0.58113457  1
  Te  Te158  1  0.24986121  0.42267744  0.89245117  1
  Te  Te159  1  0.25581628  0.74836858  0.22964425  1
  Te  Te160  1  0.24074803  0.74693127  0.58352648  1
  Te  Te161  1  0.24322919  0.74087819  0.88349194  1
  Te  Te162  1  0.59133586  0.09582683  0.24959552  1
  Te  Te163  1  0.57819447  0.07779671  0.59638196  1
  Te  Te164  1  0.58922765  0.08107809  0.91992425  1
  Te  Te165  1  0.63470607  0.44688469  0.28166445  1
  Te  Te166  1  0.59660268  0.43411263  0.61119743  1
  Te  Te167  1  0.60598201  0.42535197  0.91719925  1
  Te  Te168  1  0.59262896  0.73994384  0.26294159  1
  Te  Te169  1  0.60306794  0.78708087  0.63317995  1
  Te  Te170  1  0.60667737  0.76139790  0.88534626  1
  Te  Te171  1  0.92577478  0.09219064  0.24884652  1
  Te  Te172  1  0.90299981  0.05877294  0.58231473  1
  Te  Te173  1  0.91009246  0.07964991  0.89234015  1
  Te  Te174  1  0.91695375  0.43212058  0.27959821  1
  Te  Te175  1  0.88221856  0.42878498  0.61347070  1
  Te  Te176  1  0.90064530  0.39064860  0.94029947  1
  Te  Te177  1  0.87936552  0.73881521  0.25705260  1
  Te  Te178  1  0.90297736  0.69162674  0.64199976  1
  Te  Te179  1  0.90693314  0.74415502  0.91902744  1
