# generated using pymatgen
data_In2Te3
_symmetry_space_group_name_H-M   'P 1'
_cell_length_a   18.95085431
_cell_length_b   18.95546388
_cell_length_c   18.94752837
_cell_angle_alpha   90.01279473
_cell_angle_beta   89.98968474
_cell_angle_gamma   90.03554435
_symmetry_Int_Tables_number   1
_chemical_formula_structural   In2Te3
_chemical_formula_sum   'In72 Te108'
_cell_volume   6806.37188780
_cell_formula_units_Z   36
loop_
 _symmetry_equiv_pos_site_id
 _symmetry_equiv_pos_as_xyz
  1  'x, y, z'
loop_
 _atom_site_type_symbol
 _atom_site_label
 _atom_site_symmetry_multiplicity
 _atom_site_fract_x
 _atom_site_fract_y
 _atom_site_fract_z
 _atom_site_occupancy
  In  In0  1  0.83071664  0.33032818  0.84274868  1
  In  In1  1  0.01678112  -0.00137709  -0.03115509  1
  In  In2  1  -0.00313905  0.15387599  0.80819955  1
  In  In3  1  0.31975211  0.49436927  0.85151682  1
  In  In4  1  0.16559580  0.67435217  0.16113558  1
  In  In5  1  0.16706639  0.34265232  0.83329112  1
  In  In6  1  0.81991548  0.01164787  0.16414878  1
  In  In7  1  -0.01068674  0.81020713  0.17892186  1
  In  In8  1  0.68959303  0.68797342  0.01694122  1
  In  In9  1  0.01205566  0.67337670  0.63204698  1
  In  In10  1  0.64221836  0.00142514  0.65950193  1
  In  In11  1  0.65776057  0.16579813  0.84150012  1
  In  In12  1  0.32933004  0.16275605  0.18445318  1
  In  In13  1  0.18256238  0.66397409  0.84258131  1
  In  In14  1  0.32054523  0.34113074  0.65894131  1
  In  In15  1  0.81976576  0.34736258  0.16690332  1
  In  In16  1  0.47689069  -0.00878440  0.16495495  1
  In  In17  1  -0.00482192  0.33975453  0.34256855  1
  In  In18  1  0.49654879  0.66720428  0.19098656  1
  In  In19  1  0.34185266  0.50712528  0.17864549  1
  In  In20  1  0.33547090  0.16197985  0.49833951  1
  In  In21  1  0.00170404  0.34779786  0.00992375  1
  In  In22  1  0.68766594  0.52845421  0.19422160  1
  In  In23  1  0.65929107  0.17848090  0.17589203  1
  In  In24  1  0.88937970  0.82558333  0.65450633  1
  In  In25  1  0.00443218  -0.03022001  0.31784186  1
  In  In26  1  0.65733953  0.51908963  0.47990830  1
  In  In27  1  -0.01460381  0.54969291  0.17143073  1
  In  In28  1  0.31162915  0.82059156  0.81040748  1
  In  In29  1  0.47262955  0.82935556  0.64082386  1
  In  In30  1  0.85124589  0.79963593  0.31244803  1
  In  In31  1  0.83737271  0.17132524  0.65753899  1
  In  In32  1  0.64655103  0.34530883  0.03369067  1
  In  In33  1  0.02788353  0.50425359  0.83438753  1
  In  In34  1  0.50712074  0.85991801  -0.00775719  1
  In  In35  1  0.15866175  0.15224852  0.33920128  1
  In  In36  1  0.49964316  0.50187899  -0.00619745  1
  In  In37  1  0.47998883  -0.00403905  0.81523141  1
  In  In38  1  0.17249897  0.15902739  -0.00847844  1
  In  In39  1  0.47535562  -0.00261130  0.50496636  1
  In  In40  1  0.17299000  0.34997542  0.50765128  1
  In  In41  1  0.32756293  0.16692762  0.84943817  1
  In  In42  1  0.84911168  -0.02168796  0.82286911  1
  In  In43  1  0.84634132  0.82478008  0.01440124  1
  In  In44  1  0.16114749  0.13386268  0.64567695  1
  In  In45  1  0.46388324  0.69962769  0.48063776  1
  In  In46  1  0.33491524  0.67618132  0.01346354  1
  In  In47  1  -0.03063271  0.17440589  0.17154707  1
  In  In48  1  0.85701629  0.67098117  0.85916567  1
  In  In49  1  -0.00280213  0.52675953  0.47234035  1
  In  In50  1  0.66043964  -0.00536618  0.33775608  1
  In  In51  1  0.65058646  0.34939100  0.32625581  1
  In  In52  1  0.70035598  0.82837688  0.49679440  1
  In  In53  1  0.17767685  0.34349361  0.15519820  1
  In  In54  1  0.00873633  0.14449769  0.48669230  1
  In  In55  1  0.16543961  0.00577741  0.17823463  1
  In  In56  1  0.49894610  0.48620205  0.68524496  1
  In  In57  1  0.49742446  0.16089050  0.67569123  1
  In  In58  1  0.82891719  0.01717097  0.49752298  1
  In  In59  1  0.34508411  0.64186755  0.67607092  1
  In  In60  1  0.20429226  0.68210983  0.46031185  1
  In  In61  1  0.48429616  0.37117664  0.47270372  1
  In  In62  1  0.67147270  0.65013064  0.66852948  1
  In  In63  1  0.48665131  0.34572937  0.18538578  1
  In  In64  1  0.67826480  0.78095896  0.17462489  1
  In  In65  1  0.84404585  0.49751430  0.65561139  1
  In  In66  1  0.68375008  0.32753215  0.67568911  1
  In  In67  1  0.32418646  0.84428383  0.18942612  1
  In  In68  1  0.83536630  0.34153932  0.50624220  1
  In  In69  1  0.15875048  0.83354886  0.64089054  1
  In  In70  1  0.63932517  0.01355779  0.00033869  1
  In  In71  1  0.68751132  0.81189983  0.84167172  1
  Te  Te72  1  0.07122544  0.09225546  0.09252320  1
  Te  Te73  1  0.09556454  0.03925867  0.41973899  1
  Te  Te74  1  0.09415531  0.05838543  0.75448348  1
  Te  Te75  1  0.07597767  0.44022002  0.10057313  1
  Te  Te76  1  0.09861406  0.43026427  0.40164389  1
  Te  Te77  1  0.09092709  0.41780478  0.73442098  1
  Te  Te78  1  0.07511977  0.75291032  0.07255886  1
  Te  Te79  1  0.08676564  0.78514044  0.44690008  1
  Te  Te80  1  0.09294828  0.73770968  0.74238521  1
  Te  Te81  1  0.38060265  0.06460861  0.08318245  1
  Te  Te82  1  0.40827461  0.07727805  0.40165609  1
  Te  Te83  1  0.38724206  0.07769474  0.73050548  1
  Te  Te84  1  0.40782970  0.41399670  0.07509635  1
  Te  Te85  1  0.37195216  0.43213065  0.39896994  1
  Te  Te86  1  0.40653018  0.39988705  0.76941981  1
  Te  Te87  1  0.43001718  0.76653003  0.09196652  1
  Te  Te88  1  0.39126048  0.80535433  0.40653281  1
  Te  Te89  1  0.42960457  0.74192639  0.75542780  1
  Te  Te90  1  0.74077154  0.10205850  0.07207437  1
  Te  Te91  1  0.73606326  0.09365407  0.41519528  1
  Te  Te92  1  0.75057118  0.08484069  0.75121874  1
  Te  Te93  1  0.75026430  0.44875372  0.08018770  1
  Te  Te94  1  0.75467541  0.42497591  0.40915349  1
  Te  Te95  1  0.75316055  0.43278292  0.75842112  1
  Te  Te96  1  0.81087044  0.70978968  0.11743312  1
  Te  Te97  1  0.74404562  0.73023099  0.39276082  1
  Te  Te98  1  0.77623605  0.74941318  0.73739760  1
  Te  Te99  1  0.08238271  0.24866590  0.24465567  1
  Te  Te100  1  0.08362537  0.24299813  0.57401236  1
  Te  Te101  1  0.06770599  0.24413718  0.91680144  1
  Te  Te102  1  0.09679883  0.58923486  0.26185041  1
  Te  Te103  1  0.10834930  0.59259902  0.54982772  1
  Te  Te104  1  0.08935272  0.59396145  0.93079216  1
  Te  Te105  1  0.10693070  0.88457024  0.24701976  1
  Te  Te106  1  0.05931677  0.88940629  0.54828148  1
  Te  Te107  1  0.07172499  0.86753592  0.94229510  1
  Te  Te108  1  0.41876784  0.24533641  0.26903723  1
  Te  Te109  1  0.42800521  0.26618651  0.58068339  1
  Te  Te110  1  0.44316228  0.22226317  0.91503098  1
  Te  Te111  1  0.38763758  0.61151250  0.27670436  1
  Te  Te112  1  0.44475152  0.58150579  0.58020785  1
  Te  Te113  1  0.41373778  0.59729032  0.91106714  1
  Te  Te114  1  0.43510471  0.89815859  0.27342892  1
  Te  Te115  1  0.37487712  0.91991888  0.58144290  1
  Te  Te116  1  0.39530715  0.91258881  0.90823217  1
  Te  Te117  1  0.75435908  0.25370152  0.26561390  1
  Te  Te118  1  0.73857697  0.23956686  0.56539032  1
  Te  Te119  1  0.73306322  0.25823530  0.93292745  1
  Te  Te120  1  0.77209295  0.60100107  0.29182321  1
  Te  Te121  1  0.76397094  0.58896416  0.56467942  1
  Te  Te122  1  0.74238564  0.59947865  0.91275195  1
  Te  Te123  1  0.75071894  0.90505942  0.24749388  1
  Te  Te124  1  0.76035955  0.92393586  0.60441893  1
  Te  Te125  1  0.74819209  0.92059229  0.93101635  1
  Te  Te126  1  0.26256129  0.24756991  0.07445568  1
  Te  Te127  1  0.24387206  0.25112793  0.41515080  1
  Te  Te128  1  0.23573724  0.24247617  0.73795844  1
  Te  Te129  1  0.24743696  0.57432865  0.07940377  1
  Te  Te130  1  0.29335086  0.55873293  0.43891983  1
  Te  Te131  1  0.23723170  0.56065844  0.74356384  1
  Te  Te132  1  0.26141136  0.93468121  0.08983335  1
  Te  Te133  1  0.23718959  0.82295321  0.40273728  1
  Te  Te134  1  0.22828366  0.91812415  0.74091637  1
  Te  Te135  1  0.55171137  0.24187650  0.09203028  1
  Te  Te136  1  0.55450761  0.26479708  0.39855972  1
  Te  Te137  1  0.57502624  0.26174131  0.75834235  1
  Te  Te138  1  0.58380609  0.58894579  0.08866093  1
  Te  Te139  1  0.55767119  0.60490949  0.41373040  1
  Te  Te140  1  0.58339988  0.57989762  0.76101132  1
  Te  Te141  1  0.60796846  0.90212219  0.09976877  1
  Te  Te142  1  0.58734464  0.91102958  0.44022773  1
  Te  Te143  1  0.58930821  0.90297274  0.76172410  1
  Te  Te144  1  0.89517824  0.25693031  0.07044813  1
  Te  Te145  1  0.91166394  0.24050182  0.41948165  1
  Te  Te146  1  0.92146221  0.26759326  0.73846049  1
  Te  Te147  1  0.90634319  0.60429069  0.06239076  1
  Te  Te148  1  0.90353303  0.58824251  0.37470682  1
  Te  Te149  1  0.92562338  0.59190343  0.74211209  1
  Te  Te150  1  0.92755932  0.93203292  0.09309218  1
  Te  Te151  1  0.89412857  0.91338314  0.40500632  1
  Te  Te152  1  0.95766942  0.91499848  0.74840363  1
  Te  Te153  1  0.26392670  0.05995121  0.28023936  1
  Te  Te154  1  0.24675037  0.05748620  0.55425334  1
  Te  Te155  1  0.23977872  0.06315838  0.90550770  1
  Te  Te156  1  0.26262501  0.40801560  0.25665026  1
  Te  Te157  1  0.27569081  0.44585458  0.56192414  1
  Te  Te158  1  0.24173639  0.40767065  0.93999290  1
  Te  Te159  1  0.26948009  0.72360572  0.26053131  1
  Te  Te160  1  0.26711031  0.73711044  0.59081349  1
  Te  Te161  1  0.24334654  0.76843661  0.93756662  1
  Te  Te162  1  0.57100578  0.07862765  0.24761161  1
  Te  Te163  1  0.58051389  0.09840514  0.56559165  1
  Te  Te164  1  0.53808077  0.09880072  0.92117608  1
  Te  Te165  1  0.56795783  0.45391323  0.25545051  1
  Te  Te166  1  0.59683230  0.41386957  0.58288801  1
  Te  Te167  1  0.58627651  0.41162932  0.91805463  1
  Te  Te168  1  0.58435998  0.74420923  0.28147605  1
  Te  Te169  1  0.59163313  0.75417024  0.58407853  1
  Te  Te170  1  0.57983919  0.74565558  0.92438366  1
  Te  Te171  1  0.90495919  0.08107712  0.26927592  1
  Te  Te172  1  0.93209687  0.07122595  0.59614760  1
  Te  Te173  1  0.90676360  0.08617718  0.91414130  1
  Te  Te174  1  0.91980460  0.42727509  0.24574338  1
  Te  Te175  1  0.94478270  0.42021047  0.57336285  1
  Te  Te176  1  0.91724048  0.43070658  0.91593163  1
  Te  Te177  1  0.97598387  0.71544425  0.29838434  1
  Te  Te178  1  0.91074355  0.73401964  0.54364359  1
  Te  Te179  1  0.94122366  0.78587767  0.90353171  1
