# generated using pymatgen
data_In2Te3
_symmetry_space_group_name_H-M   'P 1'
_cell_length_a   18.76600419
_cell_length_b   18.76520992
_cell_length_c   18.77189743
_cell_angle_alpha   90.00469723
_cell_angle_beta   90.03253134
_cell_angle_gamma   89.99661903
_symmetry_Int_Tables_number   1
_chemical_formula_structural   In2Te3
_chemical_formula_sum   'In72 Te108'
_cell_volume   6610.48518693
_cell_formula_units_Z   36
loop_
 _symmetry_equiv_pos_site_id
 _symmetry_equiv_pos_as_xyz
  1  'x, y, z'
loop_
 _atom_site_type_symbol
 _atom_site_label
 _atom_site_symmetry_multiplicity
 _atom_site_fract_x
 _atom_site_fract_y
 _atom_site_fract_z
 _atom_site_occupancy
  In  In0  1  0.83720100  0.14983720  0.32609797  1
  In  In1  1  -0.00455813  0.65336791  0.30127544  1
  In  In2  1  0.83438605  0.16321916  -0.00319729  1
  In  In3  1  0.31926286  0.52072174  0.14120912  1
  In  In4  1  0.66678932  0.18467583  0.50782100  1
  In  In5  1  0.50443714  0.34458328  0.52398330  1
  In  In6  1  0.17386911  0.00600032  0.13883648  1
  In  In7  1  0.63873174  -0.02082683  0.30780403  1
  In  In8  1  0.66560488  0.65378904  0.67878228  1
  In  In9  1  0.34492080  -0.01182087  -0.00523585  1
  In  In10  1  -0.00678847  0.00144218  0.68400612  1
  In  In11  1  0.47944897  0.86920125  0.64929232  1
  In  In12  1  0.65613490  0.64351611  0.34509629  1
  In  In13  1  0.85015116  0.33692598  0.15950476  1
  In  In14  1  0.16636618  0.33805445  0.16797999  1
  In  In15  1  0.83005789  0.17928481  0.68284925  1
  In  In16  1  0.34728363  0.15532564  0.17105470  1
  In  In17  1  0.65681590  0.00073222  -0.01569251  1
  In  In18  1  0.14962369  0.46950126  0.70369956  1
  In  In19  1  0.65767431  0.84295425  0.49355984  1
  In  In20  1  0.33192646  0.49686720  0.50129952  1
  In  In21  1  0.86540974  -0.02416751  0.13269226  1
  In  In22  1  0.17985465  0.01476425  0.50879534  1
  In  In23  1  0.33289159  0.66675628  0.66577644  1
  In  In24  1  0.48651574  0.17697042  0.68204364  1
  In  In25  1  0.00216359  0.47863852  0.47980441  1
  In  In26  1  0.65937409  0.18087630  0.82828076  1
  In  In27  1  0.84997327  0.67170293  0.84930958  1
  In  In28  1  0.14313713  0.49352056  0.32792143  1
  In  In29  1  0.34042907  0.00502348  0.34275524  1
  In  In30  1  0.02477720  0.00493943  0.34561907  1
  In  In31  1  0.67108507  0.48446693  0.84287268  1
  In  In32  1  0.48128409  0.66766489  0.14278540  1
  In  In33  1  -0.00290530  0.16363641  0.84216941  1
  In  In34  1  0.18895264  0.83073577  0.29757837  1
  In  In35  1  0.01850432  0.17431202  0.52198880  1
  In  In36  1  0.50401697  0.00409575  0.16156127  1
  In  In37  1  0.64477878  0.51656234  0.17162145  1
  In  In38  1  0.66600257  0.01972561  0.68861238  1
  In  In39  1  0.17597188  0.67925889  0.51728993  1
  In  In40  1  0.14757521  0.80486354  -0.00503580  1
  In  In41  1  0.34545514  0.67465788  0.31680720  1
  In  In42  1  0.33896360  0.33834732  0.67729712  1
  In  In43  1  0.00444441  0.85175337  0.84080614  1
  In  In44  1  0.16372878  0.15787369  0.00757705  1
  In  In45  1  0.84175961  0.64690006  0.54130908  1
  In  In46  1  0.32176162  0.30007939  0.35536496  1
  In  In47  1  0.65767561  0.35358004  0.34120003  1
  In  In48  1  0.32040514  0.83906574  0.84533470  1
  In  In49  1  0.01300598  0.31812629  0.31783651  1
  In  In50  1  0.65177852  0.32279766  -0.01256288  1
  In  In51  1  0.83056842  0.51977474  0.68972731  1
  In  In52  1  0.83851849  0.79307753  0.31719408  1
  In  In53  1  0.65946675  0.83016366  0.84375218  1
  In  In54  1  0.49730654  0.65903973  0.85054765  1
  In  In55  1  -0.00123584  0.50125554  0.16281163  1
  In  In56  1  0.17735563  0.17272731  0.65942397  1
  In  In57  1  0.49032523  0.82448217  0.32784024  1
  In  In58  1  0.81164131  -0.01839007  0.50432824  1
  In  In59  1  0.33520220  0.51259155  0.83083935  1
  In  In60  1  0.68195675  0.84204675  0.15109015  1
  In  In61  1  0.83445226  0.49465384  -0.01478855  1
  In  In62  1  0.00148738  0.81242781  0.49199287  1
  In  In63  1  0.64206585  0.17253655  0.16076894  1
  In  In64  1  0.50178004  0.64769064  0.49330476  1
  In  In65  1  0.81864931  0.33895012  0.51016286  1
  In  In66  1  0.00812750  0.68129049  0.66611422  1
  In  In67  1  0.16241579  0.83825869  0.69537601  1
  In  In68  1  0.34361917  0.35529988  -0.02096536  1
  In  In69  1  0.83038651  0.66050831  0.14108583  1
  In  In70  1  0.33971199  0.17009587  0.83932651  1
  In  In71  1  -0.00431019  0.33830586  -0.00526481  1
  Te  Te72  1  0.06309148  0.05611289  0.05131005  1
  Te  Te73  1  0.11004036  0.11892511  0.40976344  1
  Te  Te74  1  0.09789703  0.08052567  0.75570515  1
  Te  Te75  1  0.09846807  0.43148252  0.06612274  1
  Te  Te76  1  0.10691328  0.37969016  0.42406680  1
  Te  Te77  1  0.04412434  0.40863049  0.78454360  1
  Te  Te78  1  0.05898806  0.74821011  0.09959236  1
  Te  Te79  1  0.09356752  0.74141042  0.39249676  1
  Te  Te80  1  0.09112861  0.73652095  0.78199757  1
  Te  Te81  1  0.43281824  0.09499053  0.06067443  1
  Te  Te82  1  0.40878377  0.07415115  0.45262116  1
  Te  Te83  1  0.41101896  0.07107653  0.75332720  1
  Te  Te84  1  0.42061334  0.43143576  0.08107539  1
  Te  Te85  1  0.41507428  0.41001683  0.41127451  1
  Te  Te86  1  0.42887887  0.42055087  0.76046429  1
  Te  Te87  1  0.38338934  0.77179717  0.11084440  1
  Te  Te88  1  0.40594610  0.75213103  0.43409167  1
  Te  Te89  1  0.42584441  0.75655366  0.74842200  1
  Te  Te90  1  0.74586713  0.07718260  0.09892896  1
  Te  Te91  1  0.73193692  0.07775852  0.41441726  1
  Te  Te92  1  0.76913956  0.08124209  0.78176820  1
  Te  Te93  1  0.74582342  0.41775545  0.08330198  1
  Te  Te94  1  0.76775746  0.42841358  0.40439302  1
  Te  Te95  1  0.76151918  0.40703599  0.75456958  1
  Te  Te96  1  0.75453297  0.75543436  0.05701869  1
  Te  Te97  1  0.75123474  0.73834868  0.43293760  1
  Te  Te98  1  0.75756636  0.74778983  0.75482752  1
  Te  Te99  1  0.08389757  0.22919471  0.22435107  1
  Te  Te100  1  0.07509824  0.27329085  0.61504513  1
  Te  Te101  1  0.09735127  0.25759101  0.91335212  1
  Te  Te102  1  0.11020400  0.59407153  0.21816913  1
  Te  Te103  1  0.07996574  0.57725610  0.57713441  1
  Te  Te104  1  0.14091326  0.54941289  0.94656119  1
  Te  Te105  1  0.08437633  0.91989158  0.23342227  1
  Te  Te106  1  0.07763484  0.91592013  0.57693771  1
  Te  Te107  1  0.10133205  0.92845228  0.92416108  1
  Te  Te108  1  0.41937805  0.25209125  0.25550127  1
  Te  Te109  1  0.40048735  0.24624891  0.57259399  1
  Te  Te110  1  0.43452433  0.26164080  0.90806296  1
  Te  Te111  1  0.42861024  0.56991631  0.24712428  1
  Te  Te112  1  0.42585325  0.56589059  0.59958477  1
  Te  Te113  1  0.39734611  0.59422569  0.94224529  1
  Te  Te114  1  0.40527486  0.91350409  0.23660137  1
  Te  Te115  1  0.40376144  0.96167136  0.55840486  1
  Te  Te116  1  0.43503677  0.89821726  0.91875443  1
  Te  Te117  1  0.75356260  0.25093664  0.24520164  1
  Te  Te118  1  0.72825289  0.27281444  0.61552737  1
  Te  Te119  1  0.76861441  0.26547669  0.90755322  1
  Te  Te120  1  0.76157908  0.58025551  0.25036970  1
  Te  Te121  1  0.72050867  0.55604009  0.57264150  1
  Te  Te122  1  0.73972459  0.59666233  0.92261168  1
  Te  Te123  1  0.77035913  0.92180120  0.25656389  1
  Te  Te124  1  0.73495451  0.90489915  0.61037807  1
  Te  Te125  1  0.75639917  0.91443271  0.91932155  1
  Te  Te126  1  0.26294372  0.25450575  0.07925839  1
  Te  Te127  1  0.22138007  0.23026691  0.43325866  1
  Te  Te128  1  0.24153909  0.26293937  0.76619672  1
  Te  Te129  1  0.25127825  0.60396790  0.03162310  1
  Te  Te130  1  0.24471312  0.58798837  0.41020963  1
  Te  Te131  1  0.22878345  0.59270458  0.74780063  1
  Te  Te132  1  0.25423779  0.89482186  0.07415655  1
  Te  Te133  1  0.24433915  0.90831963  0.41638762  1
  Te  Te134  1  0.26247820  0.93320802  0.74609283  1
  Te  Te135  1  0.55498006  0.26085220  0.08216771  1
  Te  Te136  1  0.56908667  0.25290400  0.41497492  1
  Te  Te137  1  0.57959295  0.27411846  0.74442293  1
  Te  Te138  1  0.58974435  0.60377144  0.06546097  1
  Te  Te139  1  0.57270489  0.54096026  0.41522632  1
  Te  Te140  1  0.57039490  0.56479163  0.75476817  1
  Te  Te141  1  0.56921665  0.90311893  0.06864314  1
  Te  Te142  1  0.55329049  0.92893472  0.42379887  1
  Te  Te143  1  0.56884045  0.92563293  0.75969852  1
  Te  Te144  1  0.93621678  0.23349668  0.08965661  1
  Te  Te145  1  0.91379810  0.24380104  0.42107778  1
  Te  Te146  1  0.94196821  0.25967997  0.73964401  1
  Te  Te147  1  0.93479829  0.58751181  0.05458130  1
  Te  Te148  1  0.91772113  0.59093139  0.41871552  1
  Te  Te149  1  0.94610341  0.58530252  0.76946678  1
  Te  Te150  1  0.93609822  0.87202166  0.05461533  1
  Te  Te151  1  0.91449687  0.91351981  0.41102197  1
  Te  Te152  1  0.90041297  0.91154355  0.75298356  1
  Te  Te153  1  0.24185984  0.08301858  0.25205949  1
  Te  Te154  1  0.28033466  0.07851188  0.59942790  1
  Te  Te155  1  0.24644384  0.07139755  0.91292001  1
  Te  Te156  1  0.25917783  0.42397374  0.25391008  1
  Te  Te157  1  0.23823886  0.41539725  0.58951273  1
  Te  Te158  1  0.23134831  0.42731368  0.90565201  1
  Te  Te159  1  0.26352070  0.73644460  0.20535202  1
  Te  Te160  1  0.26179636  0.77956849  0.59029375  1
  Te  Te161  1  0.25526665  0.72707445  0.92054940  1
  Te  Te162  1  0.55776710  0.10099607  0.26885029  1
  Te  Te163  1  0.57899539  0.08878470  0.58652028  1
  Te  Te164  1  0.57196988  0.10067603  0.91686049  1
  Te  Te165  1  0.57311986  0.40147307  0.22980386  1
  Te  Te166  1  0.60171139  0.44975064  0.55866330  1
  Te  Te167  1  0.56317107  0.42301716  0.92441432  1
  Te  Te168  1  0.59776635  0.74892112  0.24893774  1
  Te  Te169  1  0.57569010  0.74994047  0.58944084  1
  Te  Te170  1  0.57792792  0.74754864  0.93818756  1
  Te  Te171  1  0.93383508  0.07187947  0.23933078  1
  Te  Te172  1  0.90217845  0.08349852  0.57570267  1
  Te  Te173  1  0.92015321  0.06630294  0.92437864  1
  Te  Te174  1  0.91611987  0.42480049  0.26656963  1
  Te  Te175  1  0.91406385  0.42644755  0.59172437  1
  Te  Te176  1  0.92575675  0.42176323  0.88949386  1
  Te  Te177  1  0.94217935  0.76622300  0.20715138  1
  Te  Te178  1  0.90367807  0.77321942  0.60245917  1
  Te  Te179  1  0.93020522  0.76179542  0.94041955  1
