# generated using pymatgen
data_In2Te3
_symmetry_space_group_name_H-M   'P 1'
_cell_length_a   18.81242784
_cell_length_b   18.80137101
_cell_length_c   18.80350653
_cell_angle_alpha   89.97819000
_cell_angle_beta   90.03083978
_cell_angle_gamma   89.96796802
_symmetry_Int_Tables_number   1
_chemical_formula_structural   In2Te3
_chemical_formula_sum   'In72 Te108'
_cell_volume   6650.78715588
_cell_formula_units_Z   36
loop_
 _symmetry_equiv_pos_site_id
 _symmetry_equiv_pos_as_xyz
  1  'x, y, z'
loop_
 _atom_site_type_symbol
 _atom_site_label
 _atom_site_symmetry_multiplicity
 _atom_site_fract_x
 _atom_site_fract_y
 _atom_site_fract_z
 _atom_site_occupancy
  In  In0  1  0.50797212  0.82873772  0.01497839  1
  In  In1  1  0.00210300  0.83003498  0.47260837  1
  In  In2  1  0.51736270  0.81252228  0.31732942  1
  In  In3  1  0.16025070  0.34330562  0.81820206  1
  In  In4  1  0.67035102  0.18299882  0.17028849  1
  In  In5  1  0.51833562  0.33630779  0.84537904  1
  In  In6  1  0.81055517  -0.00794187  0.85271629  1
  In  In7  1  0.15310939  0.51083171  0.33238587  1
  In  In8  1  0.82808257  0.33820747  0.82060896  1
  In  In9  1  0.00156660  0.17204136  0.80863698  1
  In  In10  1  0.33101274  0.51770276  0.50692198  1
  In  In11  1  0.83526848  0.34891725  0.49254653  1
  In  In12  1  -0.01495333  0.64212996  0.31954461  1
  In  In13  1  0.81459083  0.84254809  -0.01250346  1
  In  In14  1  0.79578904  0.48880338  0.04233777  1
  In  In15  1  0.34661370  0.13790480  0.82123216  1
  In  In16  1  0.36564106  0.55732436  0.82742891  1
  In  In17  1  0.33437434  0.32978946  0.65183948  1
  In  In18  1  0.16871839  0.33608262  0.16403311  1
  In  In19  1  0.14492769  0.15873592  0.35741826  1
  In  In20  1  0.17943655  0.51527575  0.01937084  1
  In  In21  1  0.66078176  0.67392754  0.00640612  1
  In  In22  1  0.32961039  0.30729632  0.33236454  1
  In  In23  1  0.34290565  -0.02526100  0.31044643  1
  In  In24  1  0.82362454  0.16608551  0.01035708  1
  In  In25  1  0.51224596  0.50435561  0.68583396  1
  In  In26  1  0.17582204  -0.02141131  0.18215815  1
  In  In27  1  0.84687125  0.66573196  0.84252804  1
  In  In28  1  0.17696965  -0.00760239  0.49097334  1
  In  In29  1  0.51446793  0.66685954  0.48666052  1
  In  In30  1  0.82586508  0.17642325  0.31343493  1
  In  In31  1  0.50194889  0.16383032  0.33929973  1
  In  In32  1  0.01100320  0.00197978  0.66156350  1
  In  In33  1  0.18299135  0.66812654  0.85002783  1
  In  In34  1  -0.00476823  0.33682505  0.01224598  1
  In  In35  1  0.34837006  0.53102774  0.16341803  1
  In  In36  1  0.66001249  0.81844819  0.49643603  1
  In  In37  1  0.34980463  0.36555802  -0.00349015  1
  In  In38  1  -0.02580756  0.36437266  0.33511848  1
  In  In39  1  0.49290579  -0.02323575  0.82899814  1
  In  In40  1  0.85954511  -0.00069240  0.50352475  1
  In  In41  1  0.00703236  0.50852717  0.82000887  1
  In  In42  1  0.65969574  0.33494405  0.67105680  1
  In  In43  1  0.65280709  0.15992876  0.51610371  1
  In  In44  1  0.51343306  0.51611166  0.00265392  1
  In  In45  1  0.81071719  0.00889612  0.18061882  1
  In  In46  1  -0.01125782  0.82250752  0.84306456  1
  In  In47  1  0.01606439  0.82965759  0.17576410  1
  In  In48  1  0.67908821  0.17810268  0.82136693  1
  In  In49  1  0.17373746  0.83313931  0.00387643  1
  In  In50  1  0.52399433  0.50344319  0.31770630  1
  In  In51  1  0.81394759  0.51109859  0.31592380  1
  In  In52  1  0.64470351  -0.00054740  0.68552238  1
  In  In53  1  0.51255695  0.15773112  0.01212267  1
  In  In54  1  0.31916500  0.15115692  0.50214683  1
  In  In55  1  0.50280108  0.33252238  0.49419484  1
  In  In56  1  0.33477897  0.80806546  0.17818298  1
  In  In57  1  0.01798984  -0.01001099  0.00413322  1
  In  In58  1  0.20157193  0.15435337  -0.02640279  1
  In  In59  1  0.82000140  0.66554216  0.15633945  1
  In  In60  1  0.13650369  0.17813168  0.64051179  1
  In  In61  1  0.17948818  0.67679962  0.49796286  1
  In  In62  1  0.80218033  0.65574890  0.48093383  1
  In  In63  1  0.82102376  0.81529991  0.65938740  1
  In  In64  1  0.65840696  0.66866885  0.66972690  1
  In  In65  1  -0.01410353  0.16685419  0.15401484  1
  In  In66  1  0.36093478  0.15016914  0.16198974  1
  In  In67  1  0.65366004  -0.00298122  0.33342369  1
  In  In68  1  0.14362186  0.49379800  0.68277192  1
  In  In69  1  0.36407481  0.85897070  0.50928734  1
  In  In70  1  0.00793518  0.65221096  0.67136036  1
  In  In71  1  0.20974392  0.85594038  0.68934850  1
  Te  Te72  1  0.10170001  0.09079322  0.08568591  1
  Te  Te73  1  0.06226539  0.07757846  0.44907906  1
  Te  Te74  1  0.10465164  0.07478572  0.75760486  1
  Te  Te75  1  0.07441384  0.43495999  0.09815015  1
  Te  Te76  1  0.08867979  0.40928190  0.41610617  1
  Te  Te77  1  0.04021612  0.38581766  0.72868528  1
  Te  Te78  1  0.09489871  0.74129925  0.08911153  1
  Te  Te79  1  0.08929892  0.73763896  0.38985068  1
  Te  Te80  1  0.09196457  0.75331357  0.74920552  1
  Te  Te81  1  0.41612406  0.05835699  0.06190080  1
  Te  Te82  1  0.41004298  0.06745721  0.41276596  1
  Te  Te83  1  0.42669927  0.06208535  0.71884717  1
  Te  Te84  1  0.43868208  0.42206288  0.10268441  1
  Te  Te85  1  0.40796460  0.41987262  0.41234306  1
  Te  Te86  1  0.40459300  0.41377598  0.75877439  1
  Te  Te87  1  0.44306680  0.73272129  0.11057042  1
  Te  Te88  1  0.41271924  0.75156826  0.41102458  1
  Te  Te89  1  0.38851664  0.67855741  0.74354451  1
  Te  Te90  1  0.72378881  0.06880882  0.06968049  1
  Te  Te91  1  0.75020737  0.08615603  0.41447281  1
  Te  Te92  1  0.76303709  0.08137365  0.73758873  1
  Te  Te93  1  0.69940966  0.41044565  0.12204816  1
  Te  Te94  1  0.73694131  0.42876911  0.41419303  1
  Te  Te95  1  0.73676017  0.43124061  0.75084437  1
  Te  Te96  1  0.73122088  0.77704502  0.09688195  1
  Te  Te97  1  0.73607095  0.75011942  0.38617498  1
  Te  Te98  1  0.74485473  0.75592649  0.77376972  1
  Te  Te99  1  0.07535497  0.25092634  0.24953396  1
  Te  Te100  1  0.05480446  0.28617815  0.58361530  1
  Te  Te101  1  0.08339173  0.24800723  0.92441397  1
  Te  Te102  1  0.09141031  0.59404848  0.22790154  1
  Te  Te103  1  0.08475447  0.57682201  0.56420099  1
  Te  Te104  1  0.07716450  0.58982064  0.92654057  1
  Te  Te105  1  0.06765550  0.93251454  0.26891162  1
  Te  Te106  1  0.08867632  0.89391069  0.58394419  1
  Te  Te107  1  0.09621620  0.91643877  0.89771613  1
  Te  Te108  1  0.43851199  0.25923302  0.23663188  1
  Te  Te109  1  0.42561998  0.23192013  0.57900552  1
  Te  Te110  1  0.40711187  0.24949545  0.91473004  1
  Te  Te111  1  0.43327738  0.60573679  0.25947859  1
  Te  Te112  1  0.42286452  0.59745966  0.59816333  1
  Te  Te113  1  0.42932548  0.62651022  0.94294038  1
  Te  Te114  1  0.44816695  0.91147535  0.22411923  1
  Te  Te115  1  0.42338506  0.95084169  0.60772306  1
  Te  Te116  1  0.40664155  0.87525138  0.90447958  1
  Te  Te117  1  0.74494082  0.28628349  0.25176426  1
  Te  Te118  1  0.75213960  0.25057879  0.58405892  1
  Te  Te119  1  0.74291491  0.26589051  0.92781411  1
  Te  Te120  1  0.71047453  0.59308718  0.23482301  1
  Te  Te121  1  0.75099761  0.58031141  0.59584701  1
  Te  Te122  1  0.75202239  0.57932738  0.92642363  1
  Te  Te123  1  0.73633647  0.90475945  0.25315734  1
  Te  Te124  1  0.74603409  0.92207633  0.57948170  1
  Te  Te125  1  0.69955264  0.91153442  0.91530130  1
  Te  Te126  1  0.26553319  0.25479803  0.07871217  1
  Te  Te127  1  0.23055226  0.25785773  0.43767723  1
  Te  Te128  1  0.24971316  0.24141684  0.74642282  1
  Te  Te129  1  0.25947276  0.61947330  0.08522824  1
  Te  Te130  1  0.26334666  0.59776161  0.39680285  1
  Te  Te131  1  0.24916597  0.59823250  0.72639597  1
  Te  Te132  1  0.27196347  0.91843615  0.08518356  1
  Te  Te133  1  0.24478324  0.89230523  0.39661746  1
  Te  Te134  1  0.30947103  0.90869235  0.78351870  1
  Te  Te135  1  0.59487953  0.26539334  0.07053381  1
  Te  Te136  1  0.60196632  0.25561725  0.40800831  1
  Te  Te137  1  0.56393569  0.23724488  0.73825739  1
  Te  Te138  1  0.58805962  0.59221635  0.10913900  1
  Te  Te139  1  0.60367648  0.56437394  0.42873231  1
  Te  Te140  1  0.58105834  0.59846561  0.77618046  1
  Te  Te141  1  0.61494694  0.92619805  0.04617376  1
  Te  Te142  1  0.56429211  0.91336077  0.42364039  1
  Te  Te143  1  0.57709931  0.88397606  0.74777834  1
  Te  Te144  1  0.88895334  0.27160009  0.10032947  1
  Te  Te145  1  0.91828224  0.24482241  0.41204400  1
  Te  Te146  1  0.89032195  0.23328763  0.73523016  1
  Te  Te147  1  0.91013429  0.57067854  0.08658620  1
  Te  Te148  1  0.91246756  0.56565348  0.42830237  1
  Te  Te149  1  0.89560198  0.57018383  0.73301081  1
  Te  Te150  1  0.90773349  0.92503354  0.08489049  1
  Te  Te151  1  0.89520656  0.90086802  0.40112135  1
  Te  Te152  1  0.90948357  0.91559263  0.75043478  1
  Te  Te153  1  0.25282127  0.09953216  0.26151400  1
  Te  Te154  1  0.24231288  0.06923569  0.60420355  1
  Te  Te155  1  0.27053883  0.04246564  0.90731556  1
  Te  Te156  1  0.26531977  0.41920578  0.24749304  1
  Te  Te157  1  0.23796542  0.42185184  0.58066107  1
  Te  Te158  1  0.24759636  0.43609058  0.90607878  1
  Te  Te159  1  0.22748297  0.79178390  0.27608700  1
  Te  Te160  1  0.27260877  0.76265898  0.58569874  1
  Te  Te161  1  0.27550881  0.76121429  0.91923876  1
  Te  Te162  1  0.57428180  0.08130810  0.23318888  1
  Te  Te163  1  0.56421819  0.05358475  0.57017184  1
  Te  Te164  1  0.57987486  0.08881125  0.89438795  1
  Te  Te165  1  0.61779043  0.40424912  0.25581474  1
  Te  Te166  1  0.58656947  0.43034265  0.57502112  1
  Te  Te167  1  0.60122813  0.43541402  0.91339833  1
  Te  Te168  1  0.62106269  0.71696784  0.27133619  1
  Te  Te169  1  0.56059007  0.76315125  0.59790976  1
  Te  Te170  1  0.55892424  0.73012064  0.91034384  1
  Te  Te171  1  0.92635840  0.07385034  0.25862476  1
  Te  Te172  1  0.92870706  0.09951720  0.58632809  1
  Te  Te173  1  0.92099065  0.08570111  0.92124350  1
  Te  Te174  1  0.91060827  0.44134647  0.22659022  1
  Te  Te175  1  0.94408036  0.39780584  0.58067690  1
  Te  Te176  1  0.91671504  0.42329076  0.91531192  1
  Te  Te177  1  0.90616291  0.75200938  0.24930530  1
  Te  Te178  1  0.92236797  0.73942906  0.57485537  1
  Te  Te179  1  0.92410172  0.74025067  0.95255932  1
