# generated using pymatgen
data_In2Te3
_symmetry_space_group_name_H-M   'P 1'
_cell_length_a   18.77526901
_cell_length_b   18.77749130
_cell_length_c   18.77361925
_cell_angle_alpha   89.94610268
_cell_angle_beta   90.01644482
_cell_angle_gamma   89.93833965
_symmetry_Int_Tables_number   1
_chemical_formula_structural   In2Te3
_chemical_formula_sum   'In72 Te108'
_cell_volume   6618.67843509
_cell_formula_units_Z   36
loop_
 _symmetry_equiv_pos_site_id
 _symmetry_equiv_pos_as_xyz
  1  'x, y, z'
loop_
 _atom_site_type_symbol
 _atom_site_label
 _atom_site_symmetry_multiplicity
 _atom_site_fract_x
 _atom_site_fract_y
 _atom_site_fract_z
 _atom_site_occupancy
  In  In0  1  -0.00807928  0.80039114  0.50891414  1
  In  In1  1  0.84131570  0.51225039  0.33385280  1
  In  In2  1  0.30964987  0.82626836  0.50234165  1
  In  In3  1  0.33699287  0.36036037  0.32814639  1
  In  In4  1  0.31439732  -0.00054915  0.67643123  1
  In  In5  1  0.67566461  0.83607132  0.83003749  1
  In  In6  1  0.50897214  0.65757299  0.50413127  1
  In  In7  1  0.35222772  0.15862829  0.16091299  1
  In  In8  1  0.83619858  0.19151327  0.31113352  1
  In  In9  1  0.48489094  -0.00821885  0.49062992  1
  In  In10  1  0.33978817  -0.01227360  0.00125700  1
  In  In11  1  0.68963670  0.34303765  0.32698038  1
  In  In12  1  0.16424358  0.15838817  0.02071790  1
  In  In13  1  0.12990935  0.54274948  0.64162094  1
  In  In14  1  -0.00362545  0.33866594  -0.00367522  1
  In  In15  1  0.18098125  0.33373993  0.84389028  1
  In  In16  1  0.81304993  0.34866692  0.16364661  1
  In  In17  1  0.65770164  0.00373660  0.31273136  1
  In  In18  1  0.16116656  0.34507061  0.51416749  1
  In  In19  1  0.69795551  0.79290679  0.47624166  1
  In  In20  1  0.31232191  0.35618087  0.67451053  1
  In  In21  1  0.18269475  0.17038564  0.64933518  1
  In  In22  1  0.32131961  0.17616355  0.52484396  1
  In  In23  1  -0.00458113  0.35677967  0.65748865  1
  In  In24  1  0.33640696  -0.02672740  0.33716139  1
  In  In25  1  0.50018670  0.81665067  0.01018121  1
  In  In26  1  0.15678927  0.67661846  0.84044876  1
  In  In27  1  -0.02469789  0.50134048  0.82906926  1
  In  In28  1  0.00732758  0.66788166  0.33877399  1
  In  In29  1  0.82033300  0.51015165  0.65234165  1
  In  In30  1  0.67629015  0.18977573  0.50845809  1
  In  In31  1  0.81877268  0.34354540  0.82250999  1
  In  In32  1  0.52825309  0.13689928  0.31346469  1
  In  In33  1  0.38693377  0.18342336  0.88546948  1
  In  In34  1  0.51546822  0.17315057  0.68617838  1
  In  In35  1  -0.00737316  0.17562102  0.16343004  1
  In  In36  1  0.67227274  0.81725760  0.15790806  1
  In  In37  1  0.17188131  -0.02937386  0.84665421  1
  In  In38  1  0.50929949  0.52428431  0.67900275  1
  In  In39  1  0.67839587  0.64443537  -0.00926717  1
  In  In40  1  0.16746367  0.14245958  0.33996820  1
  In  In41  1  0.15234155  0.80844717  -0.00334826  1
  In  In42  1  0.82369332  0.64969684  0.15733342  1
  In  In43  1  0.47791206  0.78532837  0.70186542  1
  In  In44  1  0.18193485  0.33419004  0.16146104  1
  In  In45  1  0.68628579  -0.01700808  0.66097941  1
  In  In46  1  0.67547992  0.66899943  0.67992661  1
  In  In47  1  -0.01247904  0.12494559  0.82538596  1
  In  In48  1  0.82717632  -0.01112511  0.50159653  1
  In  In49  1  0.16147362  0.81451598  0.65433333  1
  In  In50  1  -0.01246936  0.83598649  0.18138954  1
  In  In51  1  0.17032295  0.67026745  0.16660522  1
  In  In52  1  0.33506248  0.65763137  0.33176312  1
  In  In53  1  0.81590471  0.16032060  0.67627359  1
  In  In54  1  0.51294750  0.82548973  0.30391794  1
  In  In55  1  0.01219420  -0.01860586  0.33928087  1
  In  In56  1  -0.02297262  0.34254119  0.34382390  1
  In  In57  1  0.50450749  0.36439404  0.49681043  1
  In  In58  1  0.82345882  -0.00391960  0.84322789  1
  In  In59  1  0.52395625  0.00715259  0.86369576  1
  In  In60  1  0.50369759  0.50991039  0.00543138  1
  In  In61  1  0.50370040  0.52004447  0.33062564  1
  In  In62  1  0.65351543  0.34503154  0.68877077  1
  In  In63  1  0.50727221  0.34491654  0.14936794  1
  In  In64  1  0.00685996  -0.00436674  -0.00406803  1
  In  In65  1  -0.02174416  -0.02617618  0.67955565  1
  In  In66  1  0.81013850  -0.00480415  0.14580761  1
  In  In67  1  0.67330969  0.34259461  0.00183756  1
  In  In68  1  0.33668643  0.83203599  0.15906091  1
  In  In69  1  0.16634557  0.51156838  0.32944336  1
  In  In70  1  0.17938569  0.51310419  -0.00723468  1
  In  In71  1  0.34771337  0.50643079  0.82786187  1
  Te  Te72  1  0.08401712  0.06511761  0.10948745  1
  Te  Te73  1  0.05773282  0.09386293  0.42356583  1
  Te  Te74  1  0.10217532  0.06826189  0.74159850  1
  Te  Te75  1  0.08678832  0.42504516  0.08201661  1
  Te  Te76  1  0.07401754  0.43101993  0.42257348  1
  Te  Te77  1  0.09539368  0.42354313  0.75349176  1
  Te  Te78  1  0.05441612  0.73428248  0.08739312  1
  Te  Te79  1  0.10293536  0.74083387  0.42616006  1
  Te  Te80  1  0.05893925  0.74227171  0.74251570  1
  Te  Te81  1  0.43228175  0.09083087  0.05506075  1
  Te  Te82  1  0.40636519  0.09783463  0.41224518  1
  Te  Te83  1  0.41634711  0.07909759  0.75882015  1
  Te  Te84  1  0.40562408  0.43114887  0.08663179  1
  Te  Te85  1  0.40191633  0.45376050  0.42865430  1
  Te  Te86  1  0.43273850  0.40539087  0.75103318  1
  Te  Te87  1  0.41885879  0.72530913  0.09678711  1
  Te  Te88  1  0.42611399  0.76419641  0.41410922  1
  Te  Te89  1  0.39379088  0.70675203  0.79320663  1
  Te  Te90  1  0.71592984  0.06611196  0.05569342  1
  Te  Te91  1  0.74521340  0.08815027  0.41541191  1
  Te  Te92  1  0.72217590  0.08682688  0.76813887  1
  Te  Te93  1  0.72645682  0.44623067  0.09410147  1
  Te  Te94  1  0.77410698  0.41241030  0.42398975  1
  Te  Te95  1  0.73093001  0.45328444  0.76598118  1
  Te  Te96  1  0.76869571  0.75377073  0.05767513  1
  Te  Te97  1  0.78920603  0.72277427  0.38400234  1
  Te  Te98  1  0.77185165  0.73893118  0.77103606  1
  Te  Te99  1  0.08605034  0.25726307  0.25360977  1
  Te  Te100  1  0.06868226  0.24335373  0.57898507  1
  Te  Te101  1  0.08063490  0.23795524  0.91387113  1
  Te  Te102  1  0.06766828  0.57611016  0.23177329  1
  Te  Te103  1  0.03861585  0.63006880  0.55617724  1
  Te  Te104  1  0.06033441  0.58517496  0.92633794  1
  Te  Te105  1  0.09908038  0.90458920  0.24927981  1
  Te  Te106  1  0.07282966  0.91359546  0.57739510  1
  Te  Te107  1  0.04910534  0.88953229  0.89158728  1
  Te  Te108  1  0.42380293  0.25601630  0.25714577  1
  Te  Te109  1  0.42886697  0.26635748  0.58999458  1
  Te  Te110  1  0.47156051  0.29359087  0.93886526  1
  Te  Te111  1  0.42399059  0.59738726  0.23059510  1
  Te  Te112  1  0.41014243  0.59847365  0.59696298  1
  Te  Te113  1  0.42956004  0.60448335  0.90661241  1
  Te  Te114  1  0.43365469  0.93111066  0.22773461  1
  Te  Te115  1  0.41121958  0.90965279  0.59576983  1
  Te  Te116  1  0.42008958  0.90302143  0.90501739  1
  Te  Te117  1  0.72273383  0.23615326  0.22188134  1
  Te  Te118  1  0.76082387  0.27858622  0.59759825  1
  Te  Te119  1  0.75766982  0.25112382  0.91918232  1
  Te  Te120  1  0.73575873  0.60036616  0.27006742  1
  Te  Te121  1  0.73640730  0.59835510  0.56447935  1
  Te  Te122  1  0.80563948  0.60237444  0.92495919  1
  Te  Te123  1  0.75649223  0.90374122  0.25593210  1
  Te  Te124  1  0.76861577  0.87806925  0.58894346  1
  Te  Te125  1  0.73736767  0.91966485  0.93714522  1
  Te  Te126  1  0.27278513  0.25418270  0.06858804  1
  Te  Te127  1  0.24603773  0.26595450  0.41104393  1
  Te  Te128  1  0.26791101  0.23630641  0.75987262  1
  Te  Te129  1  0.26230052  0.61022769  0.06684231  1
  Te  Te130  1  0.23648802  0.59937284  0.42554056  1
  Te  Te131  1  0.23291433  0.57543384  0.75312689  1
  Te  Te132  1  0.23277712  0.91208431  0.07830994  1
  Te  Te133  1  0.22728731  0.91557144  0.41716815  1
  Te  Te134  1  0.25764578  0.88307110  0.75751568  1
  Te  Te135  1  0.56132477  0.23953409  0.05538499  1
  Te  Te136  1  0.57461337  0.25619780  0.41273289  1
  Te  Te137  1  0.59937457  0.24436409  0.78375996  1
  Te  Te138  1  0.58653750  0.59531492  0.09595587  1
  Te  Te139  1  0.60510339  0.58499144  0.41888694  1
  Te  Te140  1  0.59253409  0.59489301  0.77899506  1
  Te  Te141  1  0.58610534  0.91315463  0.08281217  1
  Te  Te142  1  0.59456201  0.91101587  0.42054633  1
  Te  Te143  1  0.57219964  0.91916193  0.74130389  1
  Te  Te144  1  0.89672966  0.25223900  0.07526458  1
  Te  Te145  1  0.90323358  0.24754409  0.42885317  1
  Te  Te146  1  0.93014820  0.24780302  0.75425443  1
  Te  Te147  1  0.89154370  0.57841943  0.04519041  1
  Te  Te148  1  0.91966764  0.59236372  0.43643430  1
  Te  Te149  1  0.91664797  0.59762791  0.73074767  1
  Te  Te150  1  0.90812910  0.90468655  0.06970475  1
  Te  Te151  1  0.91191310  0.89572451  0.41569037  1
  Te  Te152  1  0.88774477  0.88972159  0.75924918  1
  Te  Te153  1  0.25627802  0.07013551  0.24135907  1
  Te  Te154  1  0.23458645  0.05577740  0.55832521  1
  Te  Te155  1  0.24864175  0.08557626  0.91267767  1
  Te  Te156  1  0.26211049  0.44650333  0.22725975  1
  Te  Te157  1  0.24556995  0.45217191  0.58047543  1
  Te  Te158  1  0.27703475  0.41279230  0.92927145  1
  Te  Te159  1  0.24717164  0.76199958  0.26122404  1
  Te  Te160  1  0.25852539  0.72007654  0.59206869  1
  Te  Te161  1  0.26337249  0.74500127  0.92068902  1
  Te  Te162  1  0.59392166  0.07236819  0.19644876  1
  Te  Te163  1  0.58327958  0.08085816  0.57593104  1
  Te  Te164  1  0.59953296  0.09591346  0.95363295  1
  Te  Te165  1  0.59289907  0.42738819  0.24514668  1
  Te  Te166  1  0.60072560  0.44225100  0.58149538  1
  Te  Te167  1  0.57782201  0.41719736  0.91131867  1
  Te  Te168  1  0.59919670  0.72029881  0.24651305  1
  Te  Te169  1  0.58146155  0.76526833  0.58604829  1
  Te  Te170  1  0.58700748  0.74017112  0.90988487  1
  Te  Te171  1  0.90847613  0.07371377  0.24435446  1
  Te  Te172  1  0.91267384  0.08059918  0.58980745  1
  Te  Te173  1  0.90027484  0.09224222  0.94327345  1
  Te  Te174  1  0.92262708  0.42985991  0.23138120  1
  Te  Te175  1  0.91368845  0.43275272  0.56326801  1
  Te  Te176  1  0.88980223  0.42732676  0.93169463  1
  Te  Te177  1  0.89416375  0.74602905  0.26395500  1
  Te  Te178  1  0.91400334  0.70925318  0.60011367  1
  Te  Te179  1  0.99606972  0.74087246  0.88450006  1
