# generated using pymatgen
data_In2Te3
_symmetry_space_group_name_H-M   'P 1'
_cell_length_a   18.77517167
_cell_length_b   18.78456740
_cell_length_c   18.77935320
_cell_angle_alpha   89.97118604
_cell_angle_beta   90.07827584
_cell_angle_gamma   90.04180810
_symmetry_Int_Tables_number   1
_chemical_formula_structural   In2Te3
_chemical_formula_sum   'In72 Te108'
_cell_volume   6623.15881666
_cell_formula_units_Z   36
loop_
 _symmetry_equiv_pos_site_id
 _symmetry_equiv_pos_as_xyz
  1  'x, y, z'
loop_
 _atom_site_type_symbol
 _atom_site_label
 _atom_site_symmetry_multiplicity
 _atom_site_fract_x
 _atom_site_fract_y
 _atom_site_fract_z
 _atom_site_occupancy
  In  In0  1  0.34640827  0.29105972  0.65675018  1
  In  In1  1  0.14941178  0.69002701  0.13625514  1
  In  In2  1  0.68819281  0.31607006  0.31085859  1
  In  In3  1  0.16683888  -0.01581543  0.82264889  1
  In  In4  1  0.50042418  0.81537917  0.32437180  1
  In  In5  1  0.83753311  0.65987772  0.16348580  1
  In  In6  1  0.68009106  0.16021511  0.84271738  1
  In  In7  1  0.33015975  0.15136224  0.16068656  1
  In  In8  1  0.14389501  0.51203761  0.64982016  1
  In  In9  1  0.16226390  0.33763954  0.52151657  1
  In  In10  1  0.33248245  0.49518212  0.47202407  1
  In  In11  1  0.52491013  0.32017462  0.15982565  1
  In  In12  1  0.85997829  0.70019338  0.84929269  1
  In  In13  1  0.33968559  -0.01815098  0.01164936  1
  In  In14  1  0.69210921  0.82420672  0.50367001  1
  In  In15  1  0.68971860  0.01672957  0.33515532  1
  In  In16  1  0.83233546  0.82119786  0.33091261  1
  In  In17  1  0.33518883  0.31558818  -0.01880386  1
  In  In18  1  0.50800824  0.85735650  -0.00337825  1
  In  In19  1  0.17380966  0.83710894  0.31492426  1
  In  In20  1  0.14710620  0.16953817  -0.01037416  1
  In  In21  1  0.33577691  0.34012409  0.35168327  1
  In  In22  1  -0.00970806  0.00197107  0.68924424  1
  In  In23  1  0.82185394  0.02769911  0.13613583  1
  In  In24  1  0.31516904  0.50181140  0.83414015  1
  In  In25  1  0.50931486  -0.00865992  0.51337264  1
  In  In26  1  0.51150002  0.51962127  0.02330627  1
  In  In27  1  0.15960461  0.00582190  0.14811920  1
  In  In28  1  -0.03126671  0.31591251  0.01516039  1
  In  In29  1  -0.01370581  0.49081709  0.16510834  1
  In  In30  1  0.50484076  0.13955774  0.33767185  1
  In  In31  1  0.65683789  0.48789134  0.50573558  1
  In  In32  1  -0.00037114  0.52453184  0.49158707  1
  In  In33  1  -0.01250359  0.00886922  0.30732975  1
  In  In34  1  0.31435679  0.67982930  0.67381296  1
  In  In35  1  0.36281054  0.00652130  0.35784184  1
  In  In36  1  0.53740948  -0.00796620  0.17436584  1
  In  In37  1  -0.02814523  0.32391933  0.31259780  1
  In  In38  1  0.15903150  0.17309678  0.67960543  1
  In  In39  1  0.81134008  0.32257918  0.83073648  1
  In  In40  1  0.69116459  0.32674493  0.00603625  1
  In  In41  1  0.16190887  -0.00686264  0.52717917  1
  In  In42  1  -0.00761021  0.66754187  0.33376708  1
  In  In43  1  0.83410758  0.50975076  0.69523420  1
  In  In44  1  0.00106979  0.52446578  0.83389151  1
  In  In45  1  0.15062400  0.18121968  0.33110276  1
  In  In46  1  0.33497012  0.49557296  0.18746514  1
  In  In47  1  0.34147705  0.14938903  0.80762568  1
  In  In48  1  0.66906570  0.15141711  0.49644099  1
  In  In49  1  0.49403225  0.68107571  0.83897683  1
  In  In50  1  0.83856547  0.32121697  0.48871590  1
  In  In51  1  0.35371222  0.83253214  0.52738274  1
  In  In52  1  0.50885669  0.48558374  0.64813458  1
  In  In53  1  -0.02101839  0.01198827  -0.01424720  1
  In  In54  1  0.81759474  0.49455798  0.01900051  1
  In  In55  1  -0.00042767  0.84697896  0.50448108  1
  In  In56  1  0.49910584  0.31138000  0.82997019  1
  In  In57  1  0.49981991  0.65331429  0.17368600  1
  In  In58  1  0.00484734  0.32993591  0.66584982  1
  In  In59  1  0.50799927  0.65739927  0.48410128  1
  In  In60  1  0.17504773  0.50548105  0.34306772  1
  In  In61  1  0.83886635  0.15422580  0.66437989  1
  In  In62  1  0.50716938  0.86605568  0.67403311  1
  In  In63  1  0.67752735  -0.00302833  0.68384139  1
  In  In64  1  0.14443383  0.51794462  -0.00087613  1
  In  In65  1  0.65465082  0.67308116  0.02834768  1
  In  In66  1  0.68488739  0.67258609  0.67167622  1
  In  In67  1  0.31452088  0.82487683  0.15371519  1
  In  In68  1  0.29207666  0.69937629  -0.02145013  1
  In  In69  1  0.84601396  0.84991922  0.66047705  1
  In  In70  1  0.65494114  0.82266572  0.14488322  1
  In  In71  1  0.67990130  0.49257423  0.84034493  1
  Te  Te72  1  0.05610905  0.09853200  0.08999063  1
  Te  Te73  1  0.08954781  0.06466654  0.40809843  1
  Te  Te74  1  0.07230544  0.09661404  0.77777960  1
  Te  Te75  1  0.07786871  0.40485234  0.07979177  1
  Te  Te76  1  0.07717998  0.40929901  0.41570902  1
  Te  Te77  1  0.08607895  0.42009224  0.75839028  1
  Te  Te78  1  0.06371344  0.76030426  0.04119306  1
  Te  Te79  1  0.08636051  0.75809582  0.41220748  1
  Te  Te80  1  0.11847466  0.72944789  0.80118335  1
  Te  Te81  1  0.43830608  0.07345179  0.08749635  1
  Te  Te82  1  0.41455961  0.11149010  0.46163144  1
  Te  Te83  1  0.42659634  0.05637093  0.73547118  1
  Te  Te84  1  0.41230534  0.40776643  0.08019479  1
  Te  Te85  1  0.44224852  0.41038875  0.42628348  1
  Te  Te86  1  0.41614152  0.41792380  0.75402403  1
  Te  Te87  1  0.42625792  0.74761594  0.07579784  1
  Te  Te88  1  0.40130989  0.74209580  0.41188598  1
  Te  Te89  1  0.41136705  0.77143353  0.75184688  1
  Te  Te90  1  0.71680004  0.09452048  0.05516208  1
  Te  Te91  1  0.78125013  0.10400995  0.41164884  1
  Te  Te92  1  0.78615568  0.06017892  0.77614752  1
  Te  Te93  1  0.76832738  0.39312358  0.11627079  1
  Te  Te94  1  0.75399442  0.41713483  0.40807146  1
  Te  Te95  1  0.72884583  0.40283960  0.72848489  1
  Te  Te96  1  0.77153310  0.76312189  0.06604517  1
  Te  Te97  1  0.75660389  0.72646356  0.41600112  1
  Te  Te98  1  0.75294787  0.77198516  0.76052410  1
  Te  Te99  1  0.07377444  0.25408928  0.22970909  1
  Te  Te100  1  0.06613103  0.22855219  0.57006323  1
  Te  Te101  1  0.05616777  0.25660852  0.91243097  1
  Te  Te102  1  0.08936749  0.58206514  0.23817639  1
  Te  Te103  1  0.06897950  0.61923222  0.58225494  1
  Te  Te104  1  0.08049899  0.62853954  0.91546601  1
  Te  Te105  1  0.07119916  0.90805569  0.22679326  1
  Te  Te106  1  0.08494531  0.90057582  0.62034372  1
  Te  Te107  1  0.05923584  0.91386585  0.90240737  1
  Te  Te108  1  0.41343368  0.24008866  0.25381569  1
  Te  Te109  1  0.43505821  0.23618861  0.55744112  1
  Te  Te110  1  0.42964981  0.21248965  0.92265686  1
  Te  Te111  1  0.42137262  0.57787121  0.27334761  1
  Te  Te112  1  0.41458503  0.59206262  0.59087625  1
  Te  Te113  1  0.40720108  0.58702840  0.92342408  1
  Te  Te114  1  0.41337761  0.91388746  0.23642468  1
  Te  Te115  1  0.39335534  0.95638486  0.61693847  1
  Te  Te116  1  0.41952702  0.92658131  0.90054507  1
  Te  Te117  1  0.78266338  0.23732836  0.22574480  1
  Te  Te118  1  0.74771611  0.24910702  0.58767262  1
  Te  Te119  1  0.79274087  0.21725502  0.94541405  1
  Te  Te120  1  0.72626543  0.59513017  0.23295067  1
  Te  Te121  1  0.75999209  0.58031698  0.58041021  1
  Te  Te122  1  0.75376496  0.60094854  0.91592608  1
  Te  Te123  1  0.74726433  0.91220573  0.23922358  1
  Te  Te124  1  0.76041473  0.94171834  0.56696950  1
  Te  Te125  1  0.69819976  0.94534938  0.91243827  1
  Te  Te126  1  0.24261537  0.24822583  0.08366650  1
  Te  Te127  1  0.24589647  0.24486543  0.43188592  1
  Te  Te128  1  0.24656731  0.26396689  0.76723939  1
  Te  Te129  1  0.26118106  0.58072052  0.08100263  1
  Te  Te130  1  0.23286167  0.59801600  0.44177425  1
  Te  Te131  1  0.22096443  0.59647445  0.76384721  1
  Te  Te132  1  0.22036935  0.89825488  0.05884418  1
  Te  Te133  1  0.25711091  0.91254822  0.42302486  1
  Te  Te134  1  0.24231251  0.88523784  0.74385047  1
  Te  Te135  1  0.58964598  0.23248071  0.06008036  1
  Te  Te136  1  0.58933834  0.24628481  0.40763028  1
  Te  Te137  1  0.59446227  0.23575940  0.74774926  1
  Te  Te138  1  0.62634061  0.55238537  0.12266295  1
  Te  Te139  1  0.59666546  0.57624374  0.40148845  1
  Te  Te140  1  0.58237318  0.58424771  0.75484790  1
  Te  Te141  1  0.64160739  0.95524306  0.05750246  1
  Te  Te142  1  0.58685134  0.91507819  0.40553055  1
  Te  Te143  1  0.59120641  0.92447434  0.78582849  1
  Te  Te144  1  0.90346013  0.24028287  0.12465634  1
  Te  Te145  1  0.92633765  0.22756600  0.41604310  1
  Te  Te146  1  0.92134529  0.24365303  0.75890353  1
  Te  Te147  1  0.92938538  0.58853089  0.06227531  1
  Te  Te148  1  0.89795020  0.57350862  0.39574246  1
  Te  Te149  1  0.92973512  0.62077345  0.73772090  1
  Te  Te150  1  0.89575286  0.91863171  0.06919817  1
  Te  Te151  1  0.90851207  0.92741105  0.41040816  1
  Te  Te152  1  0.92783131  0.89707070  0.77677955  1
  Te  Te153  1  0.24969591  0.06455978  0.25846732  1
  Te  Te154  1  0.24919043  0.08657216  0.60087840  1
  Te  Te155  1  0.25156124  0.07903846  0.92385687  1
  Te  Te156  1  0.23533803  0.39937188  0.25041564  1
  Te  Te157  1  0.26292674  0.42379826  0.59813318  1
  Te  Te158  1  0.22998466  0.41302479  0.92363026  1
  Te  Te159  1  0.25392194  0.72462931  0.24915398  1
  Te  Te160  1  0.23400972  0.76742969  0.58504538  1
  Te  Te161  1  0.23526952  0.79461517  0.87130128  1
  Te  Te162  1  0.61516098  0.10774663  0.23675781  1
  Te  Te163  1  0.58252218  0.08896731  0.60662159  1
  Te  Te164  1  0.59318555  0.05530415  0.90480368  1
  Te  Te165  1  0.58144689  0.40902626  0.26083902  1
  Te  Te166  1  0.58236917  0.38030147  0.57747339  1
  Te  Te167  1  0.58023411  0.41384925  0.92416019  1
  Te  Te168  1  0.60789894  0.73075629  0.25796086  1
  Te  Te169  1  0.57527992  0.75728485  0.58860417  1
  Te  Te170  1  0.59760345  0.76032705  0.91637546  1
  Te  Te171  1  0.89338380  0.10971540  0.24204857  1
  Te  Te172  1  0.92622294  0.07397830  0.57700790  1
  Te  Te173  1  0.87750051  0.08943733  0.90877808  1
  Te  Te174  1  0.88417059  0.42933682  0.25252104  1
  Te  Te175  1  0.91485715  0.42482535  0.58778502  1
  Te  Te176  1  0.90099425  0.42711900  0.90301110  1
  Te  Te177  1  0.93118771  0.76173030  0.23045058  1
  Te  Te178  1  0.90760050  0.75068795  0.56977480  1
  Te  Te179  1  0.94313313  0.78273140  0.94129962  1
