# generated using pymatgen
data_In2Te3
_symmetry_space_group_name_H-M   'P 1'
_cell_length_a   18.94613987
_cell_length_b   18.95111942
_cell_length_c   18.95001684
_cell_angle_alpha   89.87414756
_cell_angle_beta   90.05150801
_cell_angle_gamma   90.04713557
_symmetry_Int_Tables_number   1
_chemical_formula_structural   In2Te3
_chemical_formula_sum   'In72 Te108'
_cell_volume   6803.99268687
_cell_formula_units_Z   36
loop_
 _symmetry_equiv_pos_site_id
 _symmetry_equiv_pos_as_xyz
  1  'x, y, z'
loop_
 _atom_site_type_symbol
 _atom_site_label
 _atom_site_symmetry_multiplicity
 _atom_site_fract_x
 _atom_site_fract_y
 _atom_site_fract_z
 _atom_site_occupancy
  In  In0  1  0.17014621  0.31799442  0.16223065  1
  In  In1  1  0.48840515  0.51373436  -0.01336292  1
  In  In2  1  0.16181256  0.80454012  -0.00617188  1
  In  In3  1  0.66158992  0.50520288  0.86161722  1
  In  In4  1  0.83211766  0.48141120  0.33967708  1
  In  In5  1  0.00034440  0.86191356  0.50467343  1
  In  In6  1  0.00070262  0.01672737  0.32416213  1
  In  In7  1  0.35333536  -0.01304770  0.30614722  1
  In  In8  1  0.65661634  0.84516245  0.46603671  1
  In  In9  1  -0.00675162  0.14132691  0.47120708  1
  In  In10  1  0.33999596  0.84442077  0.84242702  1
  In  In11  1  0.34394358  0.66309171  0.68787570  1
  In  In12  1  0.81566548  0.15400485  0.30762230  1
  In  In13  1  0.15317962  0.52394976  0.72121757  1
  In  In14  1  0.48586907  0.18157225  -0.00867132  1
  In  In15  1  0.16746096  0.00796806  0.84811216  1
  In  In16  1  0.68514740  0.02511939  0.02524207  1
  In  In17  1  0.48956549  0.00549833  0.82959816  1
  In  In18  1  0.50605356  0.32131972  0.50267850  1
  In  In19  1  -0.00264984  0.50788929  0.89657634  1
  In  In20  1  0.68575708  0.32832239  0.32877226  1
  In  In21  1  0.00861509  0.83820140  0.81139128  1
  In  In22  1  0.85090421  0.32739537  0.51811223  1
  In  In23  1  0.17019539  0.67752617  0.49685261  1
  In  In24  1  -0.01584590  0.52648074  0.12086828  1
  In  In25  1  0.34703948  0.15870802  0.49861492  1
  In  In26  1  0.63717364  0.66284221  0.69677096  1
  In  In27  1  0.50007260  0.67850330  0.50113280  1
  In  In28  1  -0.02878982  0.30894022  0.02700616  1
  In  In29  1  0.33828265  0.35854146  -0.04064642  1
  In  In30  1  -0.00764743  0.32323738  0.28347585  1
  In  In31  1  0.50305267  -0.01037705  0.48470500  1
  In  In32  1  0.36787082  0.33491421  0.74203679  1
  In  In33  1  0.84266292  0.16644169  0.67791863  1
  In  In34  1  0.65226454  0.66409963  0.30700879  1
  In  In35  1  0.01759283  0.33980293  0.67602252  1
  In  In36  1  0.49680803  0.68208292  0.85946350  1
  In  In37  1  0.70823845  0.15084174  0.46781148  1
  In  In38  1  0.79773057  0.66275985  0.51702910  1
  In  In39  1  0.82676330  0.82982410  -0.02051418  1
  In  In40  1  0.33097398  0.17047485  0.15721872  1
  In  In41  1  0.48787639  0.15252070  0.66815328  1
  In  In42  1  0.81118871  0.00729526  0.42495512  1
  In  In43  1  0.49827209  0.68416681  0.16231792  1
  In  In44  1  0.33066804  0.47300891  0.52405540  1
  In  In45  1  0.17254462  0.83490010  0.33162469  1
  In  In46  1  0.53065793  -0.01222467  0.16806362  1
  In  In47  1  0.83672108  0.66904483  0.84477495  1
  In  In48  1  0.51494498  0.32829622  0.16184704  1
  In  In49  1  0.01028335  0.00065805  0.66485738  1
  In  In50  1  0.68302428  0.01148344  0.65842557  1
  In  In51  1  0.18685483  0.32180527  0.51237205  1
  In  In52  1  0.15475674  0.01163013  0.13521714  1
  In  In53  1  0.00249472  0.68908508  0.69878568  1
  In  In54  1  -0.02365106  0.82583951  0.15173585  1
  In  In55  1  0.19525832  0.18883528  0.66829947  1
  In  In56  1  0.83609078  0.85272940  0.67310572  1
  In  In57  1  0.64871646  0.51999122  0.53006404  1
  In  In58  1  -0.01913001  0.03064883  -0.00038499  1
  In  In59  1  -0.02987332  0.67756838  0.30235754  1
  In  In60  1  0.34949285  0.65875070  0.32470410  1
  In  In61  1  0.68372799  0.30105445  -0.02239722  1
  In  In62  1  0.17067688  0.62586135  0.16093827  1
  In  In63  1  0.32867025  -0.01658783  -0.00870197  1
  In  In64  1  -0.01440248  0.18153457  0.84175385  1
  In  In65  1  0.35711550  0.82042806  0.50175840  1
  In  In66  1  0.00861895  0.49818960  0.49541370  1
  In  In67  1  0.67129399  0.47183027  0.14143026  1
  In  In68  1  0.17631675  0.47595218  0.32716972  1
  In  In69  1  0.33545900  0.32629655  0.33445805  1
  In  In70  1  0.63972222  0.84567847  0.85038645  1
  In  In71  1  0.65416850  0.33703618  0.70651683  1
  Te  Te72  1  0.08498534  0.11823192  0.05992144  1
  Te  Te73  1  0.09805798  0.04907570  0.42907351  1
  Te  Te74  1  0.08148294  0.10678884  0.74650988  1
  Te  Te75  1  0.07532344  0.40868927  0.08589092  1
  Te  Te76  1  0.08207986  0.39285419  0.41421971  1
  Te  Te77  1  0.07296804  0.41790311  0.79305525  1
  Te  Te78  1  0.07572795  0.72773418  0.09315389  1
  Te  Te79  1  0.06835802  0.74372536  0.40622430  1
  Te  Te80  1  0.11538343  0.74429628  0.77298052  1
  Te  Te81  1  0.42148955  0.07223900  0.08454967  1
  Te  Te82  1  0.42894938  0.08716062  0.39306042  1
  Te  Te83  1  0.39011161  0.07557907  0.74631133  1
  Te  Te84  1  0.42052374  0.41056891  0.07683073  1
  Te  Te85  1  0.42349454  0.41802971  0.41716567  1
  Te  Te86  1  0.43328395  0.45516116  0.79318579  1
  Te  Te87  1  0.42051422  0.78830450  0.09359559  1
  Te  Te88  1  0.44023857  0.76179468  0.38735350  1
  Te  Te89  1  0.43506029  0.76589678  0.74897333  1
  Te  Te90  1  0.78070917  0.09968463  0.11336159  1
  Te  Te91  1  0.67637570  0.06172415  0.33761546  1
  Te  Te92  1  0.73382601  0.10629821  0.76050892  1
  Te  Te93  1  0.76641137  0.40381926  0.04952804  1
  Te  Te94  1  0.74209411  0.42283460  0.44878084  1
  Te  Te95  1  0.74814234  0.42269148  0.77599912  1
  Te  Te96  1  0.78365327  0.72829164  0.07975639  1
  Te  Te97  1  0.74813856  0.74335989  0.40099047  1
  Te  Te98  1  0.74700184  0.76052376  0.75467370  1
  Te  Te99  1  0.09352188  0.22552167  0.24879178  1
  Te  Te100  1  0.06444894  0.24117915  0.57030407  1
  Te  Te101  1  0.07462829  0.24640033  0.94021665  1
  Te  Te102  1  0.06894867  0.56502132  0.26428461  1
  Te  Te103  1  0.08230900  0.59353307  0.58951508  1
  Te  Te104  1  0.12318740  0.57205378  0.94607672  1
  Te  Te105  1  0.08074695  0.90952837  0.23513130  1
  Te  Te106  1  0.09742764  0.89795918  0.60617243  1
  Te  Te107  1  0.07388915  0.92047190  0.93265107  1
  Te  Te108  1  0.42792438  0.24044830  0.25080528  1
  Te  Te109  1  0.39668535  0.26850945  0.59611500  1
  Te  Te110  1  0.41140224  0.25285010  0.88187483  1
  Te  Te111  1  0.41641746  0.57767931  0.22549197  1
  Te  Te112  1  0.41921358  0.57957531  0.58490987  1
  Te  Te113  1  0.39668760  0.62772813  0.95593641  1
  Te  Te114  1  0.41549949  0.89093835  0.20285247  1
  Te  Te115  1  0.42409690  0.91946448  0.58506996  1
  Te  Te116  1  0.44533942  0.90336382  0.93630492  1
  Te  Te117  1  0.76997977  0.26908356  0.22294558  1
  Te  Te118  1  0.74233573  0.24800618  0.58695897  1
  Te  Te119  1  0.75996044  0.20704594  0.89475956  1
  Te  Te120  1  0.74683870  0.56215151  0.24389353  1
  Te  Te121  1  0.74660205  0.57757724  0.63164098  1
  Te  Te122  1  0.75870861  0.58740515  0.94228125  1
  Te  Te123  1  0.77431096  0.94532578  0.29703276  1
  Te  Te124  1  0.75932714  0.91931481  0.55640691  1
  Te  Te125  1  0.74360974  0.93552854  0.90917045  1
  Te  Te126  1  0.26460884  0.26232328  0.05811434  1
  Te  Te127  1  0.24282855  0.23116559  0.40709565  1
  Te  Te128  1  0.23689483  0.27806045  0.77567482  1
  Te  Te129  1  0.23856574  0.55195095  0.05270564  1
  Te  Te130  1  0.25019764  0.56848125  0.42466774  1
  Te  Te131  1  0.28594499  0.55935539  0.77828259  1
  Te  Te132  1  0.24128077  0.89886593  0.08402496  1
  Te  Te133  1  0.27147918  0.91370697  0.41282217  1
  Te  Te134  1  0.25889644  0.93575038  0.75950159  1
  Te  Te135  1  0.59858611  0.22653087  0.08865333  1
  Te  Te136  1  0.59339386  0.24081698  0.41017366  1
  Te  Te137  1  0.56675268  0.23383752  0.76179008  1
  Te  Te138  1  0.58559439  0.57996461  0.08248826  1
  Te  Te139  1  0.57538112  0.58150708  0.41277047  1
  Te  Te140  1  0.54529860  0.56126025  0.76440143  1
  Te  Te141  1  0.63892933  0.90814532  0.10585677  1
  Te  Te142  1  0.55576962  0.90275251  0.37676423  1
  Te  Te143  1  0.58324056  0.92647639  0.73431938  1
  Te  Te144  1  0.87945353  0.21890558  0.10523824  1
  Te  Te145  1  0.90510219  0.25154412  0.39768151  1
  Te  Te146  1  0.90385741  0.27985283  0.75720239  1
  Te  Te147  1  0.87756456  0.60744021  0.05703894  1
  Te  Te148  1  0.90468166  0.58764143  0.42507418  1
  Te  Te149  1  0.93211527  0.57730537  0.77139838  1
  Te  Te150  1  0.89603277  0.92882690  0.07559154  1
  Te  Te151  1  0.91664204  0.89928759  0.38612669  1
  Te  Te152  1  0.90874381  0.94557755  0.76594311  1
  Te  Te153  1  0.24673137  0.07437166  0.24000980  1
  Te  Te154  1  0.24924527  0.08682343  0.58022368  1
  Te  Te155  1  0.24995682  0.09264954  0.93338815  1
  Te  Te156  1  0.27059381  0.41471141  0.22918745  1
  Te  Te157  1  0.21724503  0.42962393  0.61337128  1
  Te  Te158  1  0.23563773  0.46231145  0.92381424  1
  Te  Te159  1  0.24325765  0.73223693  0.24587400  1
  Te  Te160  1  0.25758305  0.75040036  0.59429855  1
  Te  Te161  1  0.27137111  0.73709974  0.92096675  1
  Te  Te162  1  0.59825509  0.11132548  0.21436900  1
  Te  Te163  1  0.59326287  0.09092190  0.56359752  1
  Te  Te164  1  0.57815389  0.08048994  0.92624291  1
  Te  Te165  1  0.58590788  0.41952297  0.25981367  1
  Te  Te166  1  0.56832448  0.41522433  0.60404184  1
  Te  Te167  1  0.57808700  0.39957056  0.93066696  1
  Te  Te168  1  0.61172241  0.76927564  0.21193903  1
  Te  Te169  1  0.60009860  0.75663758  0.58246546  1
  Te  Te170  1  0.60666514  0.73607424  0.94006637  1
  Te  Te171  1  0.91820338  0.08628353  0.22124657  1
  Te  Te172  1  0.90687232  0.07227193  0.57586569  1
  Te  Te173  1  0.87969644  0.10912905  0.92030323  1
  Te  Te174  1  0.90984373  0.43017693  0.21976636  1
  Te  Te175  1  0.91913554  0.43409672  0.59998283  1
  Te  Te176  1  0.89532336  0.40945583  0.94511993  1
  Te  Te177  1  0.86858060  0.74934407  0.22283261  1
  Te  Te178  1  0.91121833  0.74892710  0.58419171  1
  Te  Te179  1  0.94193362  0.75078096  0.91675016  1
