# generated using pymatgen
data_In2Te3
_symmetry_space_group_name_H-M   'P 1'
_cell_length_a   19.01314772
_cell_length_b   19.00038319
_cell_length_c   19.02282397
_cell_angle_alpha   90.18349293
_cell_angle_beta   89.96702071
_cell_angle_gamma   89.85269256
_symmetry_Int_Tables_number   1
_chemical_formula_structural   In2Te3
_chemical_formula_sum   'In72 Te108'
_cell_volume   6872.07095080
_cell_formula_units_Z   36
loop_
 _symmetry_equiv_pos_site_id
 _symmetry_equiv_pos_as_xyz
  1  'x, y, z'
loop_
 _atom_site_type_symbol
 _atom_site_label
 _atom_site_symmetry_multiplicity
 _atom_site_fract_x
 _atom_site_fract_y
 _atom_site_fract_z
 _atom_site_occupancy
  In  In0  1  0.35720674  0.49899461  0.17132932  1
  In  In1  1  0.14863501  0.83800325  0.00310928  1
  In  In2  1  0.87047662  0.16837245  0.68036306  1
  In  In3  1  0.81911335  0.85244408  -0.00562729  1
  In  In4  1  0.84068137  0.17832015  0.32633811  1
  In  In5  1  0.01060588  0.66257004  0.64599410  1
  In  In6  1  0.32072106  0.36332097  0.65302478  1
  In  In7  1  0.66191887  -0.01172106  0.32810627  1
  In  In8  1  0.48265126  0.16150294  0.34232287  1
  In  In9  1  0.15350027  0.80845457  0.36086575  1
  In  In10  1  0.17245727  -0.00608233  0.80864060  1
  In  In11  1  0.00620635  0.32442742  0.00236154  1
  In  In12  1  0.65503227  0.47672555  0.48996293  1
  In  In13  1  0.17931527  0.15700380  0.33247243  1
  In  In14  1  0.65130074  0.49254036  0.82403747  1
  In  In15  1  0.16859510  0.63934470  0.21251751  1
  In  In16  1  0.18342362  0.47325449  0.01265066  1
  In  In17  1  0.65901160  0.17696189  0.48202724  1
  In  In18  1  0.33790177  0.61779050  0.42824840  1
  In  In19  1  0.32402961  0.69079404  -0.00321436  1
  In  In20  1  0.03926232  0.16648513  0.49521463  1
  In  In21  1  0.00304079  0.47940019  0.49561793  1
  In  In22  1  0.18493784  0.66559456  0.82207797  1
  In  In23  1  0.32136528  0.16793222  0.14811919  1
  In  In24  1  0.50807815  0.84061294  -0.03462587  1
  In  In25  1  0.01020553  0.01706508  0.01282135  1
  In  In26  1  0.64482816  0.82855528  0.16113683  1
  In  In27  1  0.49229510  0.47344476  -0.01498465  1
  In  In28  1  0.66366923  0.66641795  0.36627758  1
  In  In29  1  0.01006685  0.17129574  0.85022641  1
  In  In30  1  0.48729963  0.31800166  0.81592732  1
  In  In31  1  0.50964229  0.17943126  0.00965566  1
  In  In32  1  0.31573416  0.16133736  0.51693274  1
  In  In33  1  0.63480363  0.63697598  -0.02393116  1
  In  In34  1  0.49334026  0.66620499  0.18970960  1
  In  In35  1  0.17879349  0.32136416  0.19299940  1
  In  In36  1  0.33050945  0.85054163  0.16975657  1
  In  In37  1  0.49473747  0.00101591  0.16643612  1
  In  In38  1  -0.00621785  0.82337054  0.19157050  1
  In  In39  1  0.39075055  0.37595253  0.32715843  1
  In  In40  1  0.48405411  0.16450202  0.64988044  1
  In  In41  1  0.51566600  0.02386913  0.84968199  1
  In  In42  1  0.83834261  0.34507903  0.50740980  1
  In  In43  1  0.31845818  0.49733747  0.82092974  1
  In  In44  1  0.31744584  0.84202511  0.49841543  1
  In  In45  1  0.00608335  0.51609714  0.20883440  1
  In  In46  1  0.48453648  0.85452678  0.64575279  1
  In  In47  1  0.33268216  0.68746049  0.62701341  1
  In  In48  1  0.81706448  0.43408864  -0.02464071  1
  In  In49  1  0.16845472  0.00305836  0.15638791  1
  In  In50  1  0.67131449  0.33723376  0.67148262  1
  In  In51  1  0.85164503  0.51292130  0.66148042  1
  In  In52  1  0.48819733  0.66110910  0.80495081  1
  In  In53  1  0.80184357  0.19829349  0.01358901  1
  In  In54  1  0.00777838  0.64885212  0.01165414  1
  In  In55  1  0.06881298  0.46119978  0.80631383  1
  In  In56  1  0.82177480  0.34708673  0.16899854  1
  In  In57  1  0.80723079  0.65370209  0.78763907  1
  In  In58  1  0.59215565  0.39326362  0.15996410  1
  In  In59  1  0.64665522  0.85482899  0.50843187  1
  In  In60  1  0.82450597  0.68044742  0.16318558  1
  In  In61  1  0.17071285  0.32949387  0.49390845  1
  In  In62  1  0.66945529  0.02354086  0.66985685  1
  In  In63  1  0.03744021  -0.00345377  0.63849521  1
  In  In64  1  0.82937707  0.03570553  0.16471378  1
  In  In65  1  0.31144184  0.15558605  0.83682617  1
  In  In66  1  0.83991018  -0.03270885  0.49627058  1
  In  In67  1  0.82467816  0.68905002  0.54406612  1
  In  In68  1  0.85877546  0.84924260  0.33389723  1
  In  In69  1  -0.02710562  0.81943402  0.81866231  1
  In  In70  1  0.84086663  0.00022003  0.83151799  1
  In  In71  1  0.82685927  0.51217767  0.34074372  1
  Te  Te72  1  0.07434752  0.10602456  0.10915066  1
  Te  Te73  1  0.12246182  0.06288632  0.43197937  1
  Te  Te74  1  0.08773713  0.09750992  0.73891039  1
  Te  Te75  1  0.07571771  0.42464412  0.10745477  1
  Te  Te76  1  0.07249491  0.39038646  0.40271281  1
  Te  Te77  1  0.15289343  0.37602432  0.72040334  1
  Te  Te78  1  0.09337101  0.73602030  0.10313811  1
  Te  Te79  1  0.03632939  0.77586180  0.44532177  1
  Te  Te80  1  0.08767796  0.75285955  0.74667923  1
  Te  Te81  1  0.41214489  0.07770031  0.06641449  1
  Te  Te82  1  0.40459037  0.07727866  0.43324652  1
  Te  Te83  1  0.41222302  0.08066281  0.75198651  1
  Te  Te84  1  0.41081944  0.39866682  0.07933466  1
  Te  Te85  1  0.37974471  0.46348433  0.44996065  1
  Te  Te86  1  0.42919422  0.43375933  0.73972630  1
  Te  Te87  1  0.43019857  0.75917910  0.08005311  1
  Te  Te88  1  0.41653520  0.74404161  0.44664350  1
  Te  Te89  1  0.40097646  0.76371560  0.73915938  1
  Te  Te90  1  0.73406015  0.07811618  0.06461774  1
  Te  Te91  1  0.75596133  0.06756010  0.41879067  1
  Te  Te92  1  0.75844060  0.10587569  0.76075582  1
  Te  Te93  1  0.72813797  0.44133239  0.09839871  1
  Te  Te94  1  0.74681308  0.39713058  0.39918597  1
  Te  Te95  1  0.76558729  0.42308867  0.75092186  1
  Te  Te96  1  0.72175364  0.73676258  0.06456865  1
  Te  Te97  1  0.75885688  0.77201301  0.42230383  1
  Te  Te98  1  0.77882413  0.74502318  0.67927031  1
  Te  Te99  1  0.08117912  0.22808172  0.24909170  1
  Te  Te100  1  0.10202820  0.24975850  0.59818877  1
  Te  Te101  1  0.10788301  0.24952542  0.92783997  1
  Te  Te102  1  0.08505203  0.58091849  0.31936196  1
  Te  Te103  1  0.09968878  0.57321404  0.56522863  1
  Te  Te104  1  0.10915341  0.57974026  0.92191253  1
  Te  Te105  1  0.09869365  0.90898976  0.25261270  1
  Te  Te106  1  0.13704962  0.89844518  0.58923056  1
  Te  Te107  1  0.06163806  0.91791448  0.90730263  1
  Te  Te108  1  0.40757593  0.24835948  0.24296750  1
  Te  Te109  1  0.41052826  0.26857957  0.57133605  1
  Te  Te110  1  0.40617858  0.24434394  0.91705554  1
  Te  Te111  1  0.39066648  0.60264728  0.27522808  1
  Te  Te112  1  0.41622376  0.58700413  0.55631729  1
  Te  Te113  1  0.40788808  0.59013077  0.91866935  1
  Te  Te114  1  0.42779574  0.91003313  0.25953224  1
  Te  Te115  1  0.39201092  0.95105217  0.57579292  1
  Te  Te116  1  0.41547576  0.92606750  0.89431207  1
  Te  Te117  1  0.74359220  0.24543424  0.24110608  1
  Te  Te118  1  0.75827213  0.23809829  0.58222504  1
  Te  Te119  1  0.76004851  0.30787848  0.92700994  1
  Te  Te120  1  0.73567668  0.59437063  0.25120796  1
  Te  Te121  1  0.73720829  0.56770103  0.57968507  1
  Te  Te122  1  0.75923260  0.57517176  0.91253486  1
  Te  Te123  1  0.75729163  0.90461772  0.22915705  1
  Te  Te124  1  0.75309872  0.91368059  0.60668667  1
  Te  Te125  1  0.74232383  0.90625738  0.88489012  1
  Te  Te126  1  0.22973403  0.25467564  0.07293307  1
  Te  Te127  1  0.26908310  0.25450171  0.40483287  1
  Te  Te128  1  0.25648071  0.25985927  0.74030021  1
  Te  Te129  1  0.25491062  0.59249512  0.08836137  1
  Te  Te130  1  0.19044558  0.60252290  0.44058876  1
  Te  Te131  1  0.25579921  0.58590163  0.71767237  1
  Te  Te132  1  0.25810909  0.92524740  0.06049224  1
  Te  Te133  1  0.23239163  0.92430792  0.40820565  1
  Te  Te134  1  0.24735897  0.92669335  0.69883035  1
  Te  Te135  1  0.59175610  0.25685691  0.11340910  1
  Te  Te136  1  0.57093468  0.26191500  0.40450659  1
  Te  Te137  1  0.58616382  0.23201982  0.74073585  1
  Te  Te138  1  0.55645961  0.57234856  0.08791347  1
  Te  Te139  1  0.57060289  0.55752066  0.39815554  1
  Te  Te140  1  0.59155208  0.58808188  0.73175521  1
  Te  Te141  1  0.58454192  0.92586010  0.06503292  1
  Te  Te142  1  0.56231723  0.92800455  0.41475985  1
  Te  Te143  1  0.57676502  0.92934938  0.74153513  1
  Te  Te144  1  0.91572193  0.25011702  0.09745269  1
  Te  Te145  1  0.92577064  0.24837801  0.42934875  1
  Te  Te146  1  0.93148078  0.26518232  0.76929498  1
  Te  Te147  1  0.91319442  0.57280799  0.10047298  1
  Te  Te148  1  0.89890513  0.58098471  0.45214295  1
  Te  Te149  1  0.94177290  0.58906192  0.76115162  1
  Te  Te150  1  0.92459212  0.91025121  0.08787124  1
  Te  Te151  1  0.95926240  0.91655278  0.42140787  1
  Te  Te152  1  0.92957078  0.93224042  0.72981913  1
  Te  Te153  1  0.26947746  0.06792943  0.24774691  1
  Te  Te154  1  0.27404224  0.05253199  0.61097161  1
  Te  Te155  1  0.22408166  0.07256054  0.92009614  1
  Te  Te156  1  0.25887170  0.42871066  0.26240735  1
  Te  Te157  1  0.25622778  0.44296041  0.54378251  1
  Te  Te158  1  0.26606281  0.40134049  0.91673633  1
  Te  Te159  1  0.25619531  0.75191894  0.25846632  1
  Te  Te160  1  0.21351175  0.76214867  0.57468482  1
  Te  Te161  1  0.24798980  0.77845422  0.90131607  1
  Te  Te162  1  0.58677312  0.08918771  0.24741018  1
  Te  Te163  1  0.57766504  0.07985055  0.56416272  1
  Te  Te164  1  0.60736788  0.11181393  0.92298050  1
  Te  Te165  1  0.52965394  0.42795526  0.28878572  1
  Te  Te166  1  0.57419219  0.39961204  0.58409398  1
  Te  Te167  1  0.58891478  0.38504410  0.91114362  1
  Te  Te168  1  0.57778660  0.75761107  0.27515266  1
  Te  Te169  1  0.56247404  0.75343737  0.57094957  1
  Te  Te170  1  0.59238940  0.74546110  0.88146829  1
  Te  Te171  1  0.92199799  0.06980451  0.26937986  1
  Te  Te172  1  0.92170938  0.07866963  0.56872926  1
  Te  Te173  1  0.90316501  0.09285247  0.93609544  1
  Te  Te174  1  0.91648809  0.41150715  0.26995537  1
  Te  Te175  1  0.93700870  0.39976435  0.60859660  1
  Te  Te176  1  0.95289063  0.42879005  0.90764924  1
  Te  Te177  1  0.91988682  0.72158290  0.27341754  1
  Te  Te178  1  0.94619739  0.77577848  0.57280060  1
  Te  Te179  1  0.91624774  0.74406666  0.93785822  1
