# generated using pymatgen
data_In2Te3
_symmetry_space_group_name_H-M   'P 1'
_cell_length_a   18.94924210
_cell_length_b   18.95353337
_cell_length_c   18.93935663
_cell_angle_alpha   89.76634595
_cell_angle_beta   89.90314738
_cell_angle_gamma   89.82210427
_symmetry_Int_Tables_number   1
_chemical_formula_structural   In2Te3
_chemical_formula_sum   'In72 Te108'
_cell_volume   6802.06745908
_cell_formula_units_Z   36
loop_
 _symmetry_equiv_pos_site_id
 _symmetry_equiv_pos_as_xyz
  1  'x, y, z'
loop_
 _atom_site_type_symbol
 _atom_site_label
 _atom_site_symmetry_multiplicity
 _atom_site_fract_x
 _atom_site_fract_y
 _atom_site_fract_z
 _atom_site_occupancy
  In  In0  1  0.82574220  0.64819901  0.82101829  1
  In  In1  1  0.83982619  0.82794235  0.33210924  1
  In  In2  1  0.19081018  0.52386110  0.63740640  1
  In  In3  1  0.83269042  0.48271560  0.00388399  1
  In  In4  1  0.37276592  -0.01652035  -0.00520048  1
  In  In5  1  0.34863829  0.50117359  0.15381442  1
  In  In6  1  0.00807997  0.84715549  0.49108125  1
  In  In7  1  0.31668344  0.84284526  0.50141408  1
  In  In8  1  0.18069552  0.18759889  0.01111418  1
  In  In9  1  0.34848246  0.18116322  0.49188005  1
  In  In10  1  0.13784127  -0.01113662  0.84982773  1
  In  In11  1  0.67460595  0.85097817  0.50799846  1
  In  In12  1  -0.00578092  0.01065206  0.64269296  1
  In  In13  1  0.49637914  0.48530980  0.68441728  1
  In  In14  1  0.81391906  0.66496001  0.16972699  1
  In  In15  1  0.17885225  0.84802528  0.33357133  1
  In  In16  1  0.64597164  0.31379573  0.31764921  1
  In  In17  1  0.36004330  0.50109573  0.86737929  1
  In  In18  1  0.48866384  0.16418849  0.01640171  1
  In  In19  1  0.17243736  0.34693345  0.14355302  1
  In  In20  1  0.16952114  -0.00230588  0.15773041  1
  In  In21  1  0.33658126  0.32100870  0.32373704  1
  In  In22  1  0.81653410  0.32499706  0.15704652  1
  In  In23  1  0.83930256  0.47165146  0.31192709  1
  In  In24  1  0.81538497  0.00370573  0.83176793  1
  In  In25  1  0.83245727  0.00383473  0.17117793  1
  In  In26  1  -0.00005106  0.82382057  0.83440152  1
  In  In27  1  0.46464063  0.81397555  0.32440882  1
  In  In28  1  0.50150347  0.33381089  0.48077302  1
  In  In29  1  0.85477088  0.47705916  0.68649367  1
  In  In30  1  0.15025126  0.67783359  0.15890498  1
  In  In31  1  0.83398206  0.85652856  0.01723346  1
  In  In32  1  -0.03164969  0.16785535  0.83282721  1
  In  In33  1  0.80677717  0.31700376  0.82656653  1
  In  In34  1  -0.01237955  0.15486791  0.17590270  1
  In  In35  1  -0.00017773  0.52507793  0.85258300  1
  In  In36  1  0.48538023  0.32558198  0.17252240  1
  In  In37  1  0.68191087  0.64545752  0.68858611  1
  In  In38  1  0.52083771  0.16019693  0.66747226  1
  In  In39  1  0.67185932  0.52304941  0.48475733  1
  In  In40  1  0.34665425  0.17232344  0.84141932  1
  In  In41  1  0.18987988  0.34795325  0.83765049  1
  In  In42  1  0.17699340  0.16530546  0.64803765  1
  In  In43  1  0.51141160  0.64031587  0.15478209  1
  In  In44  1  0.67552277  -0.01415533  0.66029769  1
  In  In45  1  0.32471397  0.84915290  0.16713067  1
  In  In46  1  0.00803974  0.33295700  0.68945094  1
  In  In47  1  0.15637143  0.14975435  0.30560025  1
  In  In48  1  0.32133758  0.69328317  -0.00236350  1
  In  In49  1  0.50395006  0.80970966  0.70002373  1
  In  In50  1  0.61999026  0.49707532  0.87617496  1
  In  In51  1  0.86454715  0.68874318  0.51466702  1
  In  In52  1  0.67507573  0.13541921  0.17072928  1
  In  In53  1  0.34982938  0.66743659  0.68071507  1
  In  In54  1  0.34669388  0.01753182  0.66725935  1
  In  In55  1  0.00411283  0.67578285  0.00819753  1
  In  In56  1  0.49611982  0.68521311  0.49096592  1
  In  In57  1  0.00524882  0.15472612  0.46551497  1
  In  In58  1  0.46856696  -0.00318378  0.48072053  1
  In  In59  1  0.63313184  0.86840770  0.13681621  1
  In  In60  1  0.00997488  0.67855654  0.34035201  1
  In  In61  1  0.15627342  0.84686246  0.69523653  1
  In  In62  1  0.16837824  0.36031462  0.49394453  1
  In  In63  1  0.83559065  0.29612191  0.48990137  1
  In  In64  1  0.18251711  0.53374742  0.35848511  1
  In  In65  1  0.66041898  0.65583485  0.32414974  1
  In  In66  1  0.00346175  0.51864956  0.49729335  1
  In  In67  1  0.65002103  0.16297945  0.84805298  1
  In  In68  1  0.64113410  0.80149734  0.86273994  1
  In  In69  1  0.00204009  0.32560910  0.01228210  1
  In  In70  1  0.69517923  0.02150051  0.35594361  1
  In  In71  1  0.68990563  0.32445994  0.65302054  1
  Te  Te72  1  0.08160464  0.09165222  0.07312593  1
  Te  Te73  1  0.09155996  0.05714235  0.39909353  1
  Te  Te74  1  0.08254725  0.09434567  0.74465366  1
  Te  Te75  1  0.09577804  0.43095832  0.04843852  1
  Te  Te76  1  0.07242744  0.42838207  0.39896701  1
  Te  Te77  1  0.09208048  0.43777301  0.75348636  1
  Te  Te78  1  0.09643496  0.77754684  0.06314087  1
  Te  Te79  1  0.10746967  0.74943953  0.42785576  1
  Te  Te80  1  0.12251383  0.74085317  0.80003539  1
  Te  Te81  1  0.37880882  0.09518015  0.09262085  1
  Te  Te82  1  0.41892014  0.10190530  0.38818590  1
  Te  Te83  1  0.44136210  0.07716286  0.76813514  1
  Te  Te84  1  0.45427276  0.43427102  0.06899034  1
  Te  Te85  1  0.40046321  0.41578437  0.41550011  1
  Te  Te86  1  0.40804094  0.40405707  0.76630429  1
  Te  Te87  1  0.41711651  0.75112328  0.09966144  1
  Te  Te88  1  0.36661573  0.72232975  0.41607360  1
  Te  Te89  1  0.39351131  0.76265875  0.78927115  1
  Te  Te90  1  0.74096920  0.05296260  0.06795725  1
  Te  Te91  1  0.76917138  0.07945560  0.46637092  1
  Te  Te92  1  0.73883191  0.09775224  0.74056793  1
  Te  Te93  1  0.72927497  0.39675244  0.06109600  1
  Te  Te94  1  0.74688850  0.40888128  0.41760589  1
  Te  Te95  1  0.73147045  0.43658220  0.76605269  1
  Te  Te96  1  0.73436859  0.76377416  0.08630911  1
  Te  Te97  1  0.74291662  0.73547995  0.42339728  1
  Te  Te98  1  0.74980128  0.76169424  0.75495535  1
  Te  Te99  1  0.08246431  0.25991455  0.23150850  1
  Te  Te100  1  0.07729182  0.25709663  0.57744245  1
  Te  Te101  1  0.08115007  0.24976405  0.89817537  1
  Te  Te102  1  0.07932670  0.57910363  0.25018617  1
  Te  Te103  1  0.08315910  0.60595202  0.58118960  1
  Te  Te104  1  0.10071515  0.60354149  0.92193768  1
  Te  Te105  1  0.08355902  0.91929392  0.24808148  1
  Te  Te106  1  0.10514881  0.93122067  0.57908516  1
  Te  Te107  1  0.06405674  0.90096210  0.94319631  1
  Te  Te108  1  0.43428564  0.22405411  0.26931487  1
  Te  Te109  1  0.42855618  0.25611422  0.59453168  1
  Te  Te110  1  0.42962618  0.26544548  0.92115151  1
  Te  Te111  1  0.41135877  0.59227889  0.24924526  1
  Te  Te112  1  0.43162660  0.58282849  0.58479986  1
  Te  Te113  1  0.43352336  0.61521086  0.93231669  1
  Te  Te114  1  0.40980845  0.93141386  0.25537148  1
  Te  Te115  1  0.42797953  0.89768275  0.59884643  1
  Te  Te116  1  0.45493382  0.88012991  0.93088232  1
  Te  Te117  1  0.75654825  0.22979751  0.25961444  1
  Te  Te118  1  0.72022004  0.22120975  0.54934793  1
  Te  Te119  1  0.73265590  0.25087881  0.93313425  1
  Te  Te120  1  0.73261343  0.55542507  0.23687459  1
  Te  Te121  1  0.77644949  0.57361797  0.58649044  1
  Te  Te122  1  0.74137860  0.57961271  0.92546825  1
  Te  Te123  1  0.72996881  0.90317306  0.25908058  1
  Te  Te124  1  0.77959088  0.91150018  0.58747432  1
  Te  Te125  1  0.73109790  0.91163302  0.91980067  1
  Te  Te126  1  0.27992044  0.27332801  0.07546446  1
  Te  Te127  1  0.22842890  0.24494329  0.41282520  1
  Te  Te128  1  0.25907058  0.24954049  0.74098494  1
  Te  Te129  1  0.24732760  0.58955457  0.08137729  1
  Te  Te130  1  0.27521958  0.59897714  0.44646074  1
  Te  Te131  1  0.26742983  0.56853496  0.75926460  1
  Te  Te132  1  0.25045207  0.91604597  0.05365951  1
  Te  Te133  1  0.28624102  0.93438590  0.38924977  1
  Te  Te134  1  0.25611311  0.94096096  0.76285940  1
  Te  Te135  1  0.58931167  0.23950991  0.09975745  1
  Te  Te136  1  0.58637161  0.22970120  0.42288382  1
  Te  Te137  1  0.58942348  0.26654612  0.75055168  1
  Te  Te138  1  0.60187542  0.59871911  0.04662519  1
  Te  Te139  1  0.55644670  0.57649250  0.40173725  1
  Te  Te140  1  0.56580180  0.59185196  0.76822515  1
  Te  Te141  1  0.53220302  0.93917918  0.04375670  1
  Te  Te142  1  0.56102397  0.89147476  0.41791584  1
  Te  Te143  1  0.59092497  0.91363682  0.76492587  1
  Te  Te144  1  0.90365898  0.23015188  0.07169287  1
  Te  Te145  1  0.93136946  0.25558471  0.38824101  1
  Te  Te146  1  0.89121430  0.24230230  0.72360839  1
  Te  Te147  1  0.91165986  0.58189433  0.08688426  1
  Te  Te148  1  0.89592762  0.58836066  0.39869015  1
  Te  Te149  1  0.93701575  0.59627571  0.73246272  1
  Te  Te150  1  0.92990418  0.90968359  0.11242779  1
  Te  Te151  1  0.92212655  0.92549752  0.40134102  1
  Te  Te152  1  0.92620756  0.93111116  0.75384266  1
  Te  Te153  1  0.26153714  0.09922812  0.21445795  1
  Te  Te154  1  0.25888005  0.07488257  0.55821710  1
  Te  Te155  1  0.24080927  0.08907037  0.91112700  1
  Te  Te156  1  0.24821658  0.42897186  0.25408318  1
  Te  Te157  1  0.26801974  0.41137659  0.58566425  1
  Te  Te158  1  0.25647069  0.42332864  0.94304448  1
  Te  Te159  1  0.25033501  0.74362017  0.24912585  1
  Te  Te160  1  0.25018354  0.76049294  0.61073585  1
  Te  Te161  1  0.25601240  0.76076333  0.88179698  1
  Te  Te162  1  0.59077762  0.05063165  0.25803016  1
  Te  Te163  1  0.57465707  0.05866146  0.56971780  1
  Te  Te164  1  0.57060289  0.07124423  0.93357321  1
  Te  Te165  1  0.56979469  0.41792215  0.25080543  1
  Te  Te166  1  0.59968421  0.42554428  0.58124415  1
  Te  Te167  1  0.52904551  0.39700727  0.93604035  1
  Te  Te168  1  0.58414166  0.75917941  0.24277157  1
  Te  Te169  1  0.59637625  0.73847638  0.59442350  1
  Te  Te170  1  0.55888702  0.71545792  0.95491864  1
  Te  Te171  1  0.90204735  0.08349202  0.27225353  1
  Te  Te172  1  0.90268889  0.09253182  0.55813236  1
  Te  Te173  1  0.90563650  0.07353873  0.92378824  1
  Te  Te174  1  0.92299743  0.41298062  0.20843141  1
  Te  Te175  1  0.92231312  0.40471552  0.57066309  1
  Te  Te176  1  0.91734154  0.40365031  0.89561774  1
  Te  Te177  1  0.92429944  0.74775043  0.23474407  1
  Te  Te178  1  0.94172561  0.77418378  0.60210778  1
  Te  Te179  1  0.89499705  0.74313047  0.92061672  1
