# generated using pymatgen
data_In2Te3
_symmetry_space_group_name_H-M   'P 1'
_cell_length_a   18.77138943
_cell_length_b   18.76932653
_cell_length_c   18.77636879
_cell_angle_alpha   89.98766483
_cell_angle_beta   90.10094120
_cell_angle_gamma   89.90772098
_symmetry_Int_Tables_number   1
_chemical_formula_structural   In2Te3
_chemical_formula_sum   'In72 Te108'
_cell_volume   6615.39024564
_cell_formula_units_Z   36
loop_
 _symmetry_equiv_pos_site_id
 _symmetry_equiv_pos_as_xyz
  1  'x, y, z'
loop_
 _atom_site_type_symbol
 _atom_site_label
 _atom_site_symmetry_multiplicity
 _atom_site_fract_x
 _atom_site_fract_y
 _atom_site_fract_z
 _atom_site_occupancy
  In  In0  1  -0.00518385  0.83755010  0.14437571  1
  In  In1  1  0.68024401  0.16144538  0.16128786  1
  In  In2  1  0.83326863  0.33947876  0.52831273  1
  In  In3  1  -0.01303803  0.00066665  0.32850382  1
  In  In4  1  0.67561081  0.00203218  0.32985002  1
  In  In5  1  -0.01754468  0.83209672  0.83534368  1
  In  In6  1  0.00701748  0.32586029  0.31314416  1
  In  In7  1  0.49420742  0.13576629  0.68894149  1
  In  In8  1  0.82800592  0.84415143  -0.01361326  1
  In  In9  1  0.82404106  0.85012870  0.67795566  1
  In  In10  1  0.83328889  0.49955127  0.34707135  1
  In  In11  1  0.16964314  0.48487898  0.33253484  1
  In  In12  1  0.17495471  0.16342263  0.65721490  1
  In  In13  1  -0.00972896  0.17172800  0.83491333  1
  In  In14  1  -0.01159354  0.66458944  0.67389274  1
  In  In15  1  0.51287559  0.14512705  -0.04307013  1
  In  In16  1  0.31551997  0.16901526  0.16784071  1
  In  In17  1  0.16359055  0.84073824  0.01612354  1
  In  In18  1  0.49473435  0.68489550  0.16450814  1
  In  In19  1  0.00158624  0.83488246  0.49945183  1
  In  In20  1  0.13653734  0.47990455  0.00076473  1
  In  In21  1  0.68951251  0.83181414  0.50582754  1
  In  In22  1  0.18882529  0.84173190  0.32255561  1
  In  In23  1  0.52067095  0.67023070  0.51696953  1
  In  In24  1  0.51316033  0.67841770  0.82241247  1
  In  In25  1  0.16158917  -0.00696381  0.84225971  1
  In  In26  1  0.67960399  0.32654462  -0.00998882  1
  In  In27  1  -0.01169834  0.64439088  0.33745068  1
  In  In28  1  0.50162116  0.33187025  0.84628236  1
  In  In29  1  0.83719627  0.50014888  0.67611666  1
  In  In30  1  0.49747147  0.83370478  0.32537990  1
  In  In31  1  0.15380276  0.16767819  0.00756466  1
  In  In32  1  0.85983371  0.63901429  0.13786232  1
  In  In33  1  0.49749056  0.49506581  0.00654876  1
  In  In34  1  0.66954203  0.66995473  0.67694273  1
  In  In35  1  0.65626905  0.83908264  0.16162325  1
  In  In36  1  0.34461139  0.17617160  0.49404593  1
  In  In37  1  0.82433853  0.31174628  0.15926768  1
  In  In38  1  0.65850791  0.50711792  0.50080010  1
  In  In39  1  0.00544591  0.16930802  0.15634270  1
  In  In40  1  0.15303264  0.32994922  0.48500714  1
  In  In41  1  0.16521241  0.68803393  0.52967038  1
  In  In42  1  0.66695740  0.49739743  0.18154071  1
  In  In43  1  0.81830738  0.16758565  0.33274260  1
  In  In44  1  0.33037342  0.50192479  0.15825875  1
  In  In45  1  0.48336265  -0.01627211  0.53807937  1
  In  In46  1  0.32973228  0.33795994  0.67608367  1
  In  In47  1  0.82789626  0.14717439  0.00123239  1
  In  In48  1  0.84308488  0.33876663  0.84732036  1
  In  In49  1  0.51507636  0.00259634  0.16081367  1
  In  In50  1  0.17148255  0.64217158  0.83532339  1
  In  In51  1  0.80964163  0.14300436  0.69177801  1
  In  In52  1  0.53356408  0.31058685  0.47754082  1
  In  In53  1  0.35165566  0.51652653  0.51036010  1
  In  In54  1  0.33766507  0.02167764  0.33144799  1
  In  In55  1  0.35729979  0.84063571  0.83642198  1
  In  In56  1  0.32928903  -0.01376275  -0.00644351  1
  In  In57  1  0.66753774  0.32266965  0.65718992  1
  In  In58  1  0.34376182  0.68640204  0.01304008  1
  In  In59  1  0.15484043  0.50441019  0.68716227  1
  In  In60  1  0.16175928  0.33182404  0.81713051  1
  In  In61  1  0.32761412  0.34345536  0.33679235  1
  In  In62  1  0.18915005  0.84815911  0.67265526  1
  In  In63  1  0.69577022  0.65054863  -0.03466411  1
  In  In64  1  0.31330214  0.50121009  0.82320773  1
  In  In65  1  0.50159039  0.33359290  0.18025927  1
  In  In66  1  0.34251815  0.66191123  0.32659585  1
  In  In67  1  0.82007340  0.83157997  0.34188425  1
  In  In68  1  0.14728734  0.68502932  0.17244151  1
  In  In69  1  0.16123056  -0.00141987  0.49367348  1
  In  In70  1  -0.01511809  0.15932431  0.52856791  1
  In  In71  1  0.64728009  0.85078372  0.82098585  1
  Te  Te72  1  0.07317363  0.06456824  0.07597071  1
  Te  Te73  1  0.07029287  0.09456739  0.41694254  1
  Te  Te74  1  0.08211380  0.08309137  0.74725381  1
  Te  Te75  1  0.04860384  0.42403797  0.10366294  1
  Te  Te76  1  0.05761281  0.42805746  0.41812221  1
  Te  Te77  1  0.05858491  0.42835528  0.76891258  1
  Te  Te78  1  0.06271484  0.73131581  0.05499733  1
  Te  Te79  1  0.09108238  0.75120113  0.40275398  1
  Te  Te80  1  0.09381703  0.75370861  0.74738512  1
  Te  Te81  1  0.42080508  0.09269810  0.07629822  1
  Te  Te82  1  0.44201186  0.08380301  0.42327939  1
  Te  Te83  1  0.42973468  0.03405224  0.77775285  1
  Te  Te84  1  0.40622109  0.39627380  0.07551308  1
  Te  Te85  1  0.42771010  0.41637344  0.42473566  1
  Te  Te86  1  0.42643041  0.42863548  0.75062998  1
  Te  Te87  1  0.43094056  0.78552802  0.07698819  1
  Te  Te88  1  0.41824683  0.74925046  0.42350182  1
  Te  Te89  1  0.44002936  0.77387325  0.72983959  1
  Te  Te90  1  0.72690000  0.05702318  0.06759867  1
  Te  Te91  1  0.75516456  0.07666503  0.42995259  1
  Te  Te92  1  0.71699426  0.04326664  0.76003787  1
  Te  Te93  1  0.75448176  0.42502134  0.08015634  1
  Te  Te94  1  0.74259986  0.40458791  0.42433276  1
  Te  Te95  1  0.74121927  0.41176153  0.75546536  1
  Te  Te96  1  0.75412044  0.73888357  0.08537321  1
  Te  Te97  1  0.74888971  0.72851389  0.41902017  1
  Te  Te98  1  0.75531738  0.75158911  0.77233358  1
  Te  Te99  1  0.10371360  0.24149689  0.24172180  1
  Te  Te100  1  0.07559764  0.26333902  0.59831817  1
  Te  Te101  1  0.07106756  0.26714630  0.92227710  1
  Te  Te102  1  0.07733919  0.56794486  0.23975678  1
  Te  Te103  1  0.07344381  0.57848898  0.57865511  1
  Te  Te104  1  0.06497230  0.56516864  0.90058601  1
  Te  Te105  1  0.08375909  0.91885659  0.24267236  1
  Te  Te106  1  0.07799419  0.92372569  0.59728669  1
  Te  Te107  1  0.06409545  0.92236341  0.93272186  1
  Te  Te108  1  0.41431516  0.24086296  0.26411638  1
  Te  Te109  1  0.42971968  0.25731133  0.59171738  1
  Te  Te110  1  0.40810181  0.23893650  0.91140071  1
  Te  Te111  1  0.43410820  0.56894684  0.24765867  1
  Te  Te112  1  0.43114757  0.59211701  0.60726357  1
  Te  Te113  1  0.41064931  0.58804760  0.91546089  1
  Te  Te114  1  0.41066405  0.92267278  0.23813185  1
  Te  Te115  1  0.40920582  0.87808543  0.60840029  1
  Te  Te116  1  0.44586407  0.93646325  0.91135423  1
  Te  Te117  1  0.71720547  0.27162826  0.26726399  1
  Te  Te118  1  0.74524828  0.22321802  0.57295245  1
  Te  Te119  1  0.74809933  0.22909907  0.89661575  1
  Te  Te120  1  0.76286660  0.59508648  0.24880155  1
  Te  Te121  1  0.75744234  0.59138959  0.58045498  1
  Te  Te122  1  0.79772544  0.55933003  0.90759893  1
  Te  Te123  1  0.76302342  0.92256067  0.23306703  1
  Te  Te124  1  0.74112444  0.93987331  0.59296541  1
  Te  Te125  1  0.75855739  0.93223111  0.88440382  1
  Te  Te126  1  0.23850620  0.26384624  0.08342754  1
  Te  Te127  1  0.23826985  0.23562980  0.40209138  1
  Te  Te128  1  0.26600622  0.22950115  0.76089010  1
  Te  Te129  1  0.23881362  0.59177143  0.07254145  1
  Te  Te130  1  0.24132277  0.58933942  0.41901959  1
  Te  Te131  1  0.26664380  0.60542347  0.72109999  1
  Te  Te132  1  0.24654585  0.92758980  0.10086527  1
  Te  Te133  1  0.27104348  0.91714845  0.42483704  1
  Te  Te134  1  0.27530897  0.94595401  0.75064035  1
  Te  Te135  1  0.57893239  0.24610885  0.07279759  1
  Te  Te136  1  0.61447823  0.23428772  0.38257053  1
  Te  Te137  1  0.58537249  0.24007372  0.75602315  1
  Te  Te138  1  0.58994224  0.59303047  0.07877361  1
  Te  Te139  1  0.58047483  0.59146204  0.40712530  1
  Te  Te140  1  0.59692810  0.57353083  0.76241737  1
  Te  Te141  1  0.60259335  0.93517346  0.06061951  1
  Te  Te142  1  0.58239838  0.91621294  0.42074739  1
  Te  Te143  1  0.56738391  0.96525898  0.74975528  1
  Te  Te144  1  0.92154930  0.25488841  0.05908835  1
  Te  Te145  1  0.91702671  0.25332851  0.41804886  1
  Te  Te146  1  0.90658591  0.25428745  0.73609823  1
  Te  Te147  1  0.94750528  0.53788556  0.06910341  1
  Te  Te148  1  0.90950259  0.58238031  0.44402622  1
  Te  Te149  1  0.89951609  0.59714903  0.77357020  1
  Te  Te150  1  0.90600369  0.93321007  0.07691871  1
  Te  Te151  1  0.90071190  0.92766197  0.43094335  1
  Te  Te152  1  0.92446984  0.93645470  0.74720983  1
  Te  Te153  1  0.22944098  0.08060148  0.25043062  1
  Te  Te154  1  0.26874766  0.07331679  0.57805765  1
  Te  Te155  1  0.25161172  0.09174893  0.91526433  1
  Te  Te156  1  0.23747745  0.40059180  0.22590785  1
  Te  Te157  1  0.24381260  0.41769520  0.57568452  1
  Te  Te158  1  0.24838711  0.40700741  0.92096366  1
  Te  Te159  1  0.27206013  0.75489708  0.22763770  1
  Te  Te160  1  0.27727174  0.77195068  0.57814579  1
  Te  Te161  1  0.24511830  0.76173696  0.90731369  1
  Te  Te162  1  0.57854394  0.09946030  0.25986995  1
  Te  Te163  1  0.57858727  0.08986758  0.57599963  1
  Te  Te164  1  0.60947560  0.06985383  0.87281138  1
  Te  Te165  1  0.57427338  0.42554127  0.27012656  1
  Te  Te166  1  0.57053379  0.41599523  0.58565007  1
  Te  Te167  1  0.59918806  0.43252294  0.91193842  1
  Te  Te168  1  0.59964867  0.73951314  0.26285393  1
  Te  Te169  1  0.58778830  0.77732740  0.60513517  1
  Te  Te170  1  0.58958214  0.75698521  0.92901314  1
  Te  Te171  1  0.90113491  0.08565697  0.23446771  1
  Te  Te172  1  0.90692834  0.06304277  0.60868289  1
  Te  Te173  1  0.90952383  0.06974286  0.90443639  1
  Te  Te174  1  0.90523220  0.41425258  0.24208017  1
  Te  Te175  1  0.93475646  0.41994354  0.59736132  1
  Te  Te176  1  0.89337014  0.43991984  0.94485071  1
  Te  Te177  1  0.91951033  0.75103111  0.24938227  1
  Te  Te178  1  0.90441704  0.75344139  0.58222159  1
  Te  Te179  1  0.91214791  0.73763019  0.92431737  1
