# generated using pymatgen
data_In2Te3
_symmetry_space_group_name_H-M   'P 1'
_cell_length_a   18.76461463
_cell_length_b   18.77913459
_cell_length_c   18.77667366
_cell_angle_alpha   89.91575980
_cell_angle_beta   89.89606011
_cell_angle_gamma   90.00304784
_symmetry_Int_Tables_number   1
_chemical_formula_structural   In2Te3
_chemical_formula_sum   'In72 Te108'
_cell_volume   6616.56674344
_cell_formula_units_Z   36
loop_
 _symmetry_equiv_pos_site_id
 _symmetry_equiv_pos_as_xyz
  1  'x, y, z'
loop_
 _atom_site_type_symbol
 _atom_site_label
 _atom_site_symmetry_multiplicity
 _atom_site_fract_x
 _atom_site_fract_y
 _atom_site_fract_z
 _atom_site_occupancy
  In  In0  1  0.14489516  0.17026349  0.32367694  1
  In  In1  1  0.50127274  0.66892116  0.15900096  1
  In  In2  1  0.83050317  0.32535349  0.15891460  1
  In  In3  1  0.34354104  0.35655218  0.35346374  1
  In  In4  1  0.17292724  0.70278231  0.47908618  1
  In  In5  1  -0.01864126  0.48071230  0.84637884  1
  In  In6  1  0.82997464  -0.00127209  0.13882422  1
  In  In7  1  0.34797710  0.83622292  0.50153143  1
  In  In8  1  0.83009646  0.15403836  0.66012053  1
  In  In9  1  0.33429621  0.18117467  0.53274927  1
  In  In10  1  0.80955025  0.81107405  0.02155597  1
  In  In11  1  0.15901753  0.31902267  0.15561615  1
  In  In12  1  0.33607713  0.15874264  0.85075410  1
  In  In13  1  0.52264992  -0.00170934  0.84729831  1
  In  In14  1  0.34075665  0.67141671  -0.01508508  1
  In  In15  1  -0.01224611  0.50259612  0.49681662  1
  In  In16  1  0.66513505  -0.01768404  0.67443873  1
  In  In17  1  0.16254430  0.67858878  0.15910855  1
  In  In18  1  0.67190609  0.18327814  0.49392900  1
  In  In19  1  0.49117551  -0.01569304  0.52184337  1
  In  In20  1  0.51065642  0.34075802  0.15999091  1
  In  In21  1  0.15798162  0.03654010  0.50876925  1
  In  In22  1  0.49810858  0.18911222  0.68005085  1
  In  In23  1  0.16813399  -0.01232221  0.84398393  1
  In  In24  1  0.34730647  0.67517814  0.32553122  1
  In  In25  1  0.00932645  0.17675854  0.87160944  1
  In  In26  1  0.16740212  0.67455601  0.83473980  1
  In  In27  1  0.49739564  0.32766295  0.84064199  1
  In  In28  1  0.51749434  0.82410086  0.31329673  1
  In  In29  1  -0.00265135  0.16091336  0.13802048  1
  In  In30  1  0.15593441  0.47716609  0.67551142  1
  In  In31  1  0.33748103  0.16087348  0.13628207  1
  In  In32  1  0.82650265  -0.01646043  0.86409382  1
  In  In33  1  0.02189580  0.68509384  0.65209421  1
  In  In34  1  0.14345784  0.84264973  0.31781618  1
  In  In35  1  0.36402560  0.50892718  0.16871690  1
  In  In36  1  0.50740145  0.18102897  0.33568365  1
  In  In37  1  0.18017395  0.83967687  0.67873193  1
  In  In38  1  0.16549024  0.83130943  -0.00353487  1
  In  In39  1  0.49857445  0.49313292  0.02000376  1
  In  In40  1  0.67748837  0.17339373  0.14374973  1
  In  In41  1  0.33441141  -0.00527871  0.33530335  1
  In  In42  1  0.16403907  0.35402196  0.50345485  1
  In  In43  1  0.50941206  -0.01433785  0.13178475  1
  In  In44  1  -0.00696082  0.49759618  0.14220164  1
  In  In45  1  0.79662705  0.49193521  0.33614183  1
  In  In46  1  -0.00673327  0.17468838  0.47861523  1
  In  In47  1  0.37730174  0.68352039  0.70844905  1
  In  In48  1  0.83262837  0.67033418  0.81184833  1
  In  In49  1  0.68254872  0.49168318  0.83723594  1
  In  In50  1  0.82671342  0.17750855  0.32503148  1
  In  In51  1  0.66822394  0.68366957  0.67013035  1
  In  In52  1  0.83721119  0.49670116  0.00115456  1
  In  In53  1  0.34948923  0.50833151  0.51626246  1
  In  In54  1  -0.01260491  0.66203236  0.01161666  1
  In  In55  1  -0.01001197  0.33885954  0.67376208  1
  In  In56  1  0.19709055  0.16678781  0.67400986  1
  In  In57  1  0.50677879  0.83001799  -0.01579536  1
  In  In58  1  0.15144898  0.49792589  0.32862270  1
  In  In59  1  -0.01033268  -0.00873378  0.68977508  1
  In  In60  1  0.84363700  0.80772047  0.32150380  1
  In  In61  1  0.67226802  0.83857136  0.51490478  1
  In  In62  1  -0.02352180  0.83957820  0.49442026  1
  In  In63  1  0.68493208  0.00508497  0.31497407  1
  In  In64  1  0.52976878  0.48399531  0.64572949  1
  In  In65  1  0.68099256  0.19107628  0.86330710  1
  In  In66  1  0.82705279  0.67167875  0.49545694  1
  In  In67  1  0.16907660  0.46447438  0.00355160  1
  In  In68  1  0.15388659  -0.01606347  0.14837234  1
  In  In69  1  0.65812553  0.51577201  0.17035298  1
  In  In70  1  0.80519692  0.51024210  0.66048879  1
  In  In71  1  0.33548895  0.49805515  0.84776500  1
  Te  Te72  1  0.09476689  0.08466555  0.05503169  1
  Te  Te73  1  0.06096961  0.06341636  0.39447329  1
  Te  Te74  1  0.08510099  0.09530123  0.75199251  1
  Te  Te75  1  0.04622755  0.38158266  0.05393475  1
  Te  Te76  1  0.06011510  0.40205160  0.40335251  1
  Te  Te77  1  0.08826939  0.39049127  0.78045710  1
  Te  Te78  1  0.05654733  0.76846618  0.09792476  1
  Te  Te79  1  0.05008044  0.74225471  0.39651489  1
  Te  Te80  1  0.07194127  0.77210492  0.76681581  1
  Te  Te81  1  0.42234486  0.07458502  0.04810024  1
  Te  Te82  1  0.41315507  0.09118469  0.42403733  1
  Te  Te83  1  0.42646279  0.07954673  0.75362289  1
  Te  Te84  1  0.39339336  0.39594157  0.07181421  1
  Te  Te85  1  0.45276380  0.42705164  0.43759232  1
  Te  Te86  1  0.42710220  0.42534657  0.74745709  1
  Te  Te87  1  0.40612889  0.76143922  0.08798340  1
  Te  Te88  1  0.44257904  0.74519630  0.42202259  1
  Te  Te89  1  0.46419087  0.77114606  0.79500798  1
  Te  Te90  1  0.73829925  0.07667700  0.04842856  1
  Te  Te91  1  0.76048620  0.07944569  0.42396676  1
  Te  Te92  1  0.74164366  0.08055553  0.76539228  1
  Te  Te93  1  0.73440003  0.41590960  0.08087991  1
  Te  Te94  1  0.71700333  0.43350771  0.44576423  1
  Te  Te95  1  0.76818175  0.40280648  0.75499783  1
  Te  Te96  1  0.73340736  0.72678740  0.11934653  1
  Te  Te97  1  0.72665296  0.74574026  0.40750794  1
  Te  Te98  1  0.74487350  0.77670708  0.75700588  1
  Te  Te99  1  0.05045203  0.25945983  0.24524230  1
  Te  Te100  1  0.08809685  0.24799535  0.58532868  1
  Te  Te101  1  0.09188322  0.27055835  0.95090608  1
  Te  Te102  1  0.06827668  0.58938614  0.24183511  1
  Te  Te103  1  0.10137304  0.57726269  0.56799282  1
  Te  Te104  1  0.08800975  0.57657645  0.92276840  1
  Te  Te105  1  0.05224072  0.93043560  0.24280576  1
  Te  Te106  1  0.08662226  0.91379358  0.58050364  1
  Te  Te107  1  0.06735801  0.90968290  0.91883844  1
  Te  Te108  1  0.40125723  0.25274522  0.24818227  1
  Te  Te109  1  0.43835324  0.27511765  0.57515637  1
  Te  Te110  1  0.43780354  0.23040712  0.93583410  1
  Te  Te111  1  0.45820507  0.57076603  0.28013741  1
  Te  Te112  1  0.44136302  0.60118580  0.59365300  1
  Te  Te113  1  0.44227361  0.58706618  0.90973724  1
  Te  Te114  1  0.41957653  0.91533986  0.23817361  1
  Te  Te115  1  0.42153427  0.89499426  0.61576516  1
  Te  Te116  1  0.41557196  0.93753922  0.93341745  1
  Te  Te117  1  0.72461404  0.26630656  0.25515319  1
  Te  Te118  1  0.75604335  0.26142146  0.58867121  1
  Te  Te119  1  0.78026765  0.26350129  0.94553047  1
  Te  Te120  1  0.74048189  0.60615591  0.25717024  1
  Te  Te121  1  0.71917382  0.58222598  0.55780704  1
  Te  Te122  1  0.75369186  0.59825769  0.92091177  1
  Te  Te123  1  0.75380029  0.90196348  0.23143896  1
  Te  Te124  1  0.76583382  0.93231459  0.57822921  1
  Te  Te125  1  0.72126953  0.90124256  0.93641447  1
  Te  Te126  1  0.23192762  0.23385407  0.05686333  1
  Te  Te127  1  0.24205445  0.24552047  0.41715701  1
  Te  Te128  1  0.27483668  0.25872919  0.75693338  1
  Te  Te129  1  0.24966256  0.57958897  0.07817748  1
  Te  Te130  1  0.25494700  0.57750246  0.40903998  1
  Te  Te131  1  0.24910784  0.58225383  0.74387095  1
  Te  Te132  1  0.25988471  0.90748762  0.08064249  1
  Te  Te133  1  0.23923484  0.91409759  0.42495660  1
  Te  Te134  1  0.27149131  0.91877709  0.76195968  1
  Te  Te135  1  0.57149653  0.24421935  0.06597131  1
  Te  Te136  1  0.58303319  0.27561530  0.41831886  1
  Te  Te137  1  0.60811844  0.26581288  0.75205328  1
  Te  Te138  1  0.59638093  0.60387656  0.05834762  1
  Te  Te139  1  0.54373858  0.54613728  0.40279713  1
  Te  Te140  1  0.59142964  0.57806944  0.75134482  1
  Te  Te141  1  0.61424319  0.90645889  0.06014391  1
  Te  Te142  1  0.57958602  0.93313868  0.40595350  1
  Te  Te143  1  0.57868416  0.89044967  0.75567101  1
  Te  Te144  1  0.88515431  0.22520734  0.05796459  1
  Te  Te145  1  0.89887790  0.26837044  0.41675050  1
  Te  Te146  1  0.91856830  0.23323217  0.75685853  1
  Te  Te147  1  0.88450034  0.60034929  0.10577289  1
  Te  Te148  1  0.90813345  0.58576671  0.40013755  1
  Te  Te149  1  0.93780264  0.57609258  0.73382408  1
  Te  Te150  1  0.91721347  0.90493287  0.06368490  1
  Te  Te151  1  0.88563924  0.91927785  0.41110376  1
  Te  Te152  1  0.89286832  0.90336419  0.75702995  1
  Te  Te153  1  0.24860083  0.08625547  0.24636635  1
  Te  Te154  1  0.27607779  0.05685610  0.60155075  1
  Te  Te155  1  0.23065457  0.08960942  0.93369076  1
  Te  Te156  1  0.24657709  0.41764209  0.23915346  1
  Te  Te157  1  0.26994199  0.40555856  0.59936554  1
  Te  Te158  1  0.25913242  0.39007791  0.91288859  1
  Te  Te159  1  0.25501826  0.76593518  0.24404005  1
  Te  Te160  1  0.26386045  0.73761377  0.59758466  1
  Te  Te161  1  0.26969861  0.76942426  0.89348716  1
  Te  Te162  1  0.57566479  0.08396587  0.23747022  1
  Te  Te163  1  0.58189195  0.08863858  0.58817894  1
  Te  Te164  1  0.59891593  0.09160602  0.93818912  1
  Te  Te165  1  0.58087451  0.42310682  0.26082004  1
  Te  Te166  1  0.63938360  0.40732918  0.57972610  1
  Te  Te167  1  0.59102556  0.41003052  0.92978643  1
  Te  Te168  1  0.61253438  0.75507922  0.21719827  1
  Te  Te169  1  0.57144175  0.75414204  0.58115122  1
  Te  Te170  1  0.56886986  0.72930922  0.89641893  1
  Te  Te171  1  0.91038640  0.08423117  0.23932524  1
  Te  Te172  1  0.92787259  0.07321501  0.57538029  1
  Te  Te173  1  0.91471992  0.08068250  0.93417853  1
  Te  Te174  1  0.90532403  0.42512191  0.24589373  1
  Te  Te175  1  0.89743051  0.41230855  0.57781167  1
  Te  Te176  1  0.88243174  0.38559974  0.90664803  1
  Te  Te177  1  0.95921450  0.75169243  0.25037292  1
  Te  Te178  1  0.89852510  0.75743037  0.59968088  1
  Te  Te179  1  0.91229332  0.75053089  0.91504561  1
