# generated using pymatgen
data_In2Te3
_symmetry_space_group_name_H-M   'P 1'
_cell_length_a   19.00510611
_cell_length_b   18.98365056
_cell_length_c   18.97575247
_cell_angle_alpha   90.08636604
_cell_angle_beta   90.08104226
_cell_angle_gamma   90.01664984
_symmetry_Int_Tables_number   1
_chemical_formula_structural   In2Te3
_chemical_formula_sum   'In72 Te108'
_cell_volume   6846.17647727
_cell_formula_units_Z   36
loop_
 _symmetry_equiv_pos_site_id
 _symmetry_equiv_pos_as_xyz
  1  'x, y, z'
loop_
 _atom_site_type_symbol
 _atom_site_label
 _atom_site_symmetry_multiplicity
 _atom_site_fract_x
 _atom_site_fract_y
 _atom_site_fract_z
 _atom_site_occupancy
  In  In0  1  0.68701060  0.65413581  0.64891156  1
  In  In1  1  0.17509736  0.79254763  0.00982243  1
  In  In2  1  0.01487984  0.68324205  0.64253038  1
  In  In3  1  0.63985940  0.19126137  0.18285837  1
  In  In4  1  0.64777468  0.80756553  0.81158244  1
  In  In5  1  0.32166526  0.00752415  -0.00732785  1
  In  In6  1  0.69246653  0.32239069  0.67674970  1
  In  In7  1  0.48359029  0.03409516  0.47659076  1
  In  In8  1  0.83897548  0.64963762  0.18100032  1
  In  In9  1  0.83267851  0.50547160  0.34025925  1
  In  In10  1  0.31573111  -0.00168658  0.67244625  1
  In  In11  1  0.84516337  -0.00108548  0.15982755  1
  In  In12  1  0.00075544  -0.01009710  -0.00707375  1
  In  In13  1  0.30144047  0.84470188  0.83642513  1
  In  In14  1  0.34761534  0.18603438  0.18700472  1
  In  In15  1  0.65211469  0.81070809  0.16844895  1
  In  In16  1  0.47957085  0.34077506  0.83539596  1
  In  In17  1  0.68039685  0.01143247  -0.02147501  1
  In  In18  1  0.67128756  0.00067718  0.64366004  1
  In  In19  1  0.45148766  0.18463054  0.63082945  1
  In  In20  1  0.01952066  0.66260290  0.00738693  1
  In  In21  1  0.48188305  0.01487886  0.17776779  1
  In  In22  1  0.83708353  0.33191601  0.50032811  1
  In  In23  1  0.16284721  -0.02434786  0.49728381  1
  In  In24  1  -0.00401482  0.53152849  0.84706031  1
  In  In25  1  0.13811519  0.13002021  0.65765760  1
  In  In26  1  0.83981640  0.32813338  0.80024772  1
  In  In27  1  0.83550881  0.86981061  0.02829968  1
  In  In28  1  0.32379458  0.34249854  0.00598252  1
  In  In29  1  0.49155546  0.48164767  0.03151679  1
  In  In30  1  0.84235867  0.68820309  0.83670328  1
  In  In31  1  0.03294820  0.34810566  0.62865237  1
  In  In32  1  0.17356161  0.16035139  -0.00997166  1
  In  In33  1  0.68891469  0.82084065  0.48103474  1
  In  In34  1  -0.02066638  -0.03437680  0.35854177  1
  In  In35  1  0.82118786  0.14896857  0.33318710  1
  In  In36  1  0.85470042  -0.02444872  0.82586290  1
  In  In37  1  0.18886281  0.17437864  0.34227577  1
  In  In38  1  0.52086648  0.48002374  0.67611246  1
  In  In39  1  -0.01597654  0.14286644  0.50675979  1
  In  In40  1  0.49195980  0.47264539  0.34350770  1
  In  In41  1  0.64859374  0.18941212  0.45764507  1
  In  In42  1  0.84206844  0.34032037  0.14198555  1
  In  In43  1  0.67570154  -0.01845948  0.34232353  1
  In  In44  1  0.80549937  0.48571340  -0.02286375  1
  In  In45  1  0.32635397  0.83901653  0.18764614  1
  In  In46  1  0.01223483  0.51053948  0.16848613  1
  In  In47  1  0.64364923  0.32517597  0.01474931  1
  In  In48  1  0.51867925  0.84190638  0.66264568  1
  In  In49  1  0.31677115  0.17081058  0.82024624  1
  In  In50  1  -0.01204972  0.66966954  0.36739150  1
  In  In51  1  0.03612567  0.35612657  0.36723129  1
  In  In52  1  0.48768831  0.66677507  0.19976600  1
  In  In53  1  0.65775659  0.16899230  0.83233608  1
  In  In54  1  0.30718785  0.66660136  0.65066659  1
  In  In55  1  0.19708240  0.37470386  0.23178701  1
  In  In56  1  0.18455498  0.63337014  0.17567489  1
  In  In57  1  0.02270407  0.81034482  0.82753070  1
  In  In58  1  0.85038451  0.15704878  -0.02460333  1
  In  In59  1  0.47197378  0.86630684  0.02743963  1
  In  In60  1  0.86858719  0.14185778  0.66184117  1
  In  In61  1  0.01765495  0.34154269  0.02112037  1
  In  In62  1  0.48477992  0.66872790  0.82285129  1
  In  In63  1  0.15345393  0.32407363  0.80235392  1
  In  In64  1  0.32678789  0.83149846  0.49690480  1
  In  In65  1  0.48425180  0.64354864  0.48378117  1
  In  In66  1  0.14473230  -0.00680553  0.19024923  1
  In  In67  1  0.64879289  0.65780562  0.00146705  1
  In  In68  1  0.33787401  0.49820610  0.81730646  1
  In  In69  1  0.16412706  0.66991230  0.49788429  1
  In  In70  1  0.68801488  0.51033899  0.50226569  1
  In  In71  1  0.29482900  0.46840099  0.46865157  1
  Te  Te72  1  0.08193251  0.08269781  0.08256605  1
  Te  Te73  1  0.08263279  0.08016728  0.40732024  1
  Te  Te74  1  0.03391357  0.07875591  0.74464895  1
  Te  Te75  1  0.11752275  0.41920992  0.10829089  1
  Te  Te76  1  0.11601645  0.44220462  0.45796704  1
  Te  Te77  1  0.06839201  0.43773741  0.75157963  1
  Te  Te78  1  0.08386954  0.74018133  0.11818083  1
  Te  Te79  1  0.09585139  0.76662615  0.40620957  1
  Te  Te80  1  0.09929523  0.70133425  0.76574191  1
  Te  Te81  1  0.41108930  0.09791151  0.07499071  1
  Te  Te82  1  0.41398965  0.14351638  0.40133439  1
  Te  Te83  1  0.41794105  0.08857955  0.74282187  1
  Te  Te84  1  0.37408432  0.43637838  0.10743453  1
  Te  Te85  1  0.43501170  0.41793732  0.47024940  1
  Te  Te86  1  0.40019907  0.39787207  0.71941429  1
  Te  Te87  1  0.41032209  0.74932996  0.09366249  1
  Te  Te88  1  0.41651181  0.75104031  0.41218548  1
  Te  Te89  1  0.40880979  0.76945001  0.73898577  1
  Te  Te90  1  0.75681186  0.09577845  0.08063211  1
  Te  Te91  1  0.75172441  0.07030811  0.43842277  1
  Te  Te92  1  0.76037485  0.08330115  0.76086085  1
  Te  Te93  1  0.72805749  0.42655075  0.09209040  1
  Te  Te94  1  0.74167758  0.40267774  0.40757392  1
  Te  Te95  1  0.76438528  0.43535244  0.73748772  1
  Te  Te96  1  0.75535925  0.74029011  0.07498118  1
  Te  Te97  1  0.78039833  0.75843447  0.38293770  1
  Te  Te98  1  0.76408052  0.76012834  0.72800780  1
  Te  Te99  1  0.09439851  0.26447754  0.25911421  1
  Te  Te100  1  0.09644940  0.23418951  0.55385232  1
  Te  Te101  1  0.07967781  0.25200207  0.91405487  1
  Te  Te102  1  0.07955456  0.58203360  0.28030588  1
  Te  Te103  1  0.09319368  0.56767977  0.58064265  1
  Te  Te104  1  0.10451545  0.55664939  0.94741228  1
  Te  Te105  1  0.08999879  0.89622603  0.28658296  1
  Te  Te106  1  0.04354321  0.92446754  0.56886919  1
  Te  Te107  1  0.09858693  0.89757156  0.92483816  1
  Te  Te108  1  0.39607970  0.26791994  0.30313947  1
  Te  Te109  1  0.39536692  0.25577395  0.51318213  1
  Te  Te110  1  0.40369066  0.24347254  0.92125360  1
  Te  Te111  1  0.40562906  0.55436033  0.25329247  1
  Te  Te112  1  0.43029159  0.58795418  0.61229746  1
  Te  Te113  1  0.42782221  0.56785792  0.91820756  1
  Te  Te114  1  0.41879698  0.92142105  0.26806491  1
  Te  Te115  1  0.42638025  0.93343528  0.58377658  1
  Te  Te116  1  0.41415092  0.92809780  0.90269863  1
  Te  Te117  1  0.76192868  0.25445586  0.24279809  1
  Te  Te118  1  0.76133075  0.22589575  0.58033864  1
  Te  Te119  1  0.75274956  0.26209206  0.91838307  1
  Te  Te120  1  0.73753504  0.57608289  0.25387623  1
  Te  Te121  1  0.78689032  0.61207208  0.54827876  1
  Te  Te122  1  0.73866270  0.59391842  0.89606909  1
  Te  Te123  1  0.75267990  0.90711055  0.23619151  1
  Te  Te124  1  0.75490190  0.89340994  0.59165539  1
  Te  Te125  1  0.74447800  0.89246917  0.90538467  1
  Te  Te126  1  0.24269239  0.24686062  0.09350468  1
  Te  Te127  1  0.27596403  0.27884431  0.40254651  1
  Te  Te128  1  0.23959533  0.24045864  0.71245291  1
  Te  Te129  1  0.22853704  0.61024319  0.03650889  1
  Te  Te130  1  0.27833554  0.60979888  0.42408233  1
  Te  Te131  1  0.24164132  0.59677553  0.76195574  1
  Te  Te132  1  0.23809768  0.92048650  0.08364406  1
  Te  Te133  1  0.27614389  0.94015958  0.41198300  1
  Te  Te134  1  0.21633276  0.91430346  0.73978843  1
  Te  Te135  1  0.54302510  0.27594577  0.11200414  1
  Te  Te136  1  0.56872925  0.26984445  0.35998399  1
  Te  Te137  1  0.56981313  0.25601429  0.74411007  1
  Te  Te138  1  0.57919483  0.57979037  0.10801383  1
  Te  Te139  1  0.59282796  0.57694099  0.40505043  1
  Te  Te140  1  0.59307763  0.58988011  0.75192405  1
  Te  Te141  1  0.59621025  0.93213884  0.08566893  1
  Te  Te142  1  0.57781181  0.91988800  0.43806582  1
  Te  Te143  1  0.59028390  0.93897669  0.75623381  1
  Te  Te144  1  0.93022349  0.23225390  0.08263075  1
  Te  Te145  1  0.92405651  0.24756969  0.40489981  1
  Te  Te146  1  0.94527881  0.25696650  0.72221424  1
  Te  Te147  1  0.90643025  0.56595310  0.06666046  1
  Te  Te148  1  0.91640597  0.56630750  0.44676832  1
  Te  Te149  1  0.91933827  0.60409463  0.73831292  1
  Te  Te150  1  0.95544350  0.90489778  0.11165663  1
  Te  Te151  1  0.88322291  0.86921042  0.41880424  1
  Te  Te152  1  0.93474406  0.88930035  0.74086485  1
  Te  Te153  1  0.25764202  0.07806759  0.24776128  1
  Te  Te154  1  0.25211506  0.08235786  0.56535099  1
  Te  Te155  1  0.22956196  0.06586052  0.88620029  1
  Te  Te156  1  0.26352885  0.47601169  0.31580657  1
  Te  Te157  1  0.20398889  0.44472845  0.58457650  1
  Te  Te158  1  0.24418428  0.40564691  0.89485590  1
  Te  Te159  1  0.25958107  0.72965920  0.25690707  1
  Te  Te160  1  0.22381130  0.77845987  0.59318230  1
  Te  Te161  1  0.27796929  0.72822964  0.92487274  1
  Te  Te162  1  0.58405940  0.08210313  0.26774107  1
  Te  Te163  1  0.57644836  0.10726633  0.57709303  1
  Te  Te164  1  0.57540711  0.10000510  0.93048939  1
  Te  Te165  1  0.56511679  0.37776947  0.25375015  1
  Te  Te166  1  0.60798449  0.40506299  0.57871043  1
  Te  Te167  1  0.57868606  0.42068631  0.91637461  1
  Te  Te168  1  0.57300007  0.75743264  0.27765217  1
  Te  Te169  1  0.58556671  0.73970604  0.57273227  1
  Te  Te170  1  0.56193847  0.76186126  0.92991880  1
  Te  Te171  1  0.92971656  0.07513750  0.25902546  1
  Te  Te172  1  0.92018156  0.02926246  0.57927753  1
  Te  Te173  1  0.95023892  0.08724415  0.88139703  1
  Te  Te174  1  0.92427325  0.41452562  0.24747068  1
  Te  Te175  1  0.91559567  0.42279228  0.58281629  1
  Te  Te176  1  0.92185345  0.40728510  0.91931712  1
  Te  Te177  1  0.89982148  0.74981339  0.27334253  1
  Te  Te178  1  0.98034970  0.78681681  0.53731701  1
  Te  Te179  1  0.92314877  0.76176400  0.94182900  1
