# generated using pymatgen
data_In2Te3
_symmetry_space_group_name_H-M   'P 1'
_cell_length_a   18.83840800
_cell_length_b   18.83306377
_cell_length_c   18.82921634
_cell_angle_alpha   89.94918782
_cell_angle_beta   89.99289919
_cell_angle_gamma   89.99677765
_symmetry_Int_Tables_number   1
_chemical_formula_structural   In2Te3
_chemical_formula_sum   'In72 Te108'
_cell_volume   6680.31968651
_cell_formula_units_Z   36
loop_
 _symmetry_equiv_pos_site_id
 _symmetry_equiv_pos_as_xyz
  1  'x, y, z'
loop_
 _atom_site_type_symbol
 _atom_site_label
 _atom_site_symmetry_multiplicity
 _atom_site_fract_x
 _atom_site_fract_y
 _atom_site_fract_z
 _atom_site_occupancy
  In  In0  1  0.51752086  -0.02453130  0.18249666  1
  In  In1  1  0.17659448  0.53003818  0.01381303  1
  In  In2  1  0.50890568  0.02736530  0.51605332  1
  In  In3  1  0.33769528  0.16965329  0.52135986  1
  In  In4  1  0.15319629  0.30776405  0.53240721  1
  In  In5  1  0.34307863  0.17142515  0.82888154  1
  In  In6  1  0.67949039  0.31634385  -0.00107960  1
  In  In7  1  0.83956823  0.01686505  0.18779958  1
  In  In8  1  0.51331603  0.48146064  0.33844726  1
  In  In9  1  0.67437095  0.30264680  0.66857750  1
  In  In10  1  0.86100641  0.17011509  0.66318328  1
  In  In11  1  0.49407344  0.80857113  0.01273306  1
  In  In12  1  0.48806029  0.51444017  -0.00578541  1
  In  In13  1  0.17749378  0.79276534  -0.02867993  1
  In  In14  1  0.50823508  0.84144028  0.66863508  1
  In  In15  1  0.83600428  0.67104243  0.84999251  1
  In  In16  1  0.68642184  0.84414838  0.51901261  1
  In  In17  1  -0.00348819  0.48428030  0.83507645  1
  In  In18  1  0.31967669  0.83408907  0.47227383  1
  In  In19  1  0.85266184  0.46830459  0.63124788  1
  In  In20  1  -0.02919163  0.65122544  0.01866941  1
  In  In21  1  0.14362409  0.02396010  0.80088239  1
  In  In22  1  -0.00572044  0.17087854  0.18869635  1
  In  In23  1  0.16175975  -0.01532326  0.17141179  1
  In  In24  1  0.34307477  0.33949467  0.66649244  1
  In  In25  1  0.14538686  0.17063591  -0.04223573  1
  In  In26  1  0.14330181  0.48094516  0.32736895  1
  In  In27  1  0.68692918  0.17855097  0.18034099  1
  In  In28  1  0.16798618  0.82002317  0.30787052  1
  In  In29  1  0.66272281  0.84293020  0.84173740  1
  In  In30  1  0.67370590  0.51185155  0.84023387  1
  In  In31  1  0.13352267  0.34001414  0.15870715  1
  In  In32  1  0.00892902  0.83445067  0.17085855  1
  In  In33  1  0.14786189  0.32680824  0.81287518  1
  In  In34  1  0.50898001  0.36451101  0.17849959  1
  In  In35  1  0.83962495  0.16862558  -0.00110273  1
  In  In36  1  0.34788172  -0.02000036  0.00473616  1
  In  In37  1  0.14674265  0.65268516  0.50617695  1
  In  In38  1  0.33723314  0.35317696  0.33080396  1
  In  In39  1  0.16827482  0.83966240  0.66409221  1
  In  In40  1  0.00326278  0.83784075  0.82292598  1
  In  In41  1  -0.01375938  0.00008305  -0.00060026  1
  In  In42  1  0.84201776  0.84655751  0.34100842  1
  In  In43  1  0.47592066  0.64897406  0.16981540  1
  In  In44  1  0.31169001  0.49846093  0.48573966  1
  In  In45  1  0.83735362  0.64196398  0.48615900  1
  In  In46  1  0.49904708  0.69366150  0.49064998  1
  In  In47  1  -0.00622264  0.66511041  0.66502025  1
  In  In48  1  0.31455179  0.00150943  0.66912668  1
  In  In49  1  0.67469022  0.19286654  0.47246056  1
  In  In50  1  0.85245115  0.34285485  0.20134397  1
  In  In51  1  0.14475772  0.15772598  0.35812030  1
  In  In52  1  0.66443047  0.64065754  0.31261787  1
  In  In53  1  0.70790664  0.46659427  0.48591460  1
  In  In54  1  0.67966097  0.01100812  0.34683557  1
  In  In55  1  0.32214482  0.63179755  0.68355071  1
  In  In56  1  0.68514044  0.80984137  0.12745833  1
  In  In57  1  0.50544523  0.15243091  -0.01781715  1
  In  In58  1  0.31378349  0.35684949  0.00446204  1
  In  In59  1  0.34026856  0.19357168  0.17562726  1
  In  In60  1  0.49077307  0.83705327  0.32644913  1
  In  In61  1  0.83316929  0.84980231  0.68258562  1
  In  In62  1  0.67452986  0.49957703  0.17859973  1
  In  In63  1  0.83633985  0.00316419  0.82954043  1
  In  In64  1  0.33840535  -0.00949761  0.33389254  1
  In  In65  1  0.50054716  -0.00164014  0.83389881  1
  In  In66  1  0.01118260  0.65245246  0.31463646  1
  In  In67  1  0.51015591  0.34064064  0.79874505  1
  In  In68  1  0.48119586  0.66538402  0.83299248  1
  In  In69  1  0.50685310  0.48275530  0.65905239  1
  In  In70  1  0.00731587  0.86558781  0.51371799  1
  In  In71  1  0.85043339  0.33440366  0.83382324  1
  Te  Te72  1  0.08132927  0.08677666  0.08876702  1
  Te  Te73  1  0.02625377  0.10226592  0.42541561  1
  Te  Te74  1  0.07903039  0.14300489  0.74358614  1
  Te  Te75  1  0.06853320  0.45141686  0.08474624  1
  Te  Te76  1  0.08350069  0.40902762  0.44579826  1
  Te  Te77  1  0.06303292  0.41115153  0.72350685  1
  Te  Te78  1  0.08246944  0.73823532  0.08018255  1
  Te  Te79  1  0.06997043  0.75734121  0.42138743  1
  Te  Te80  1  0.09506368  0.73847548  0.75281139  1
  Te  Te81  1  0.41724119  0.08094005  0.09671531  1
  Te  Te82  1  0.41993153  0.09170664  0.41022076  1
  Te  Te83  1  0.42418787  0.08564105  0.73289292  1
  Te  Te84  1  0.40254965  0.43905148  0.09684161  1
  Te  Te85  1  0.42592150  0.40764097  0.44210180  1
  Te  Te86  1  0.40328958  0.44101264  0.76600504  1
  Te  Te87  1  0.38653453  0.73133749  0.08190767  1
  Te  Te88  1  0.39424751  0.73332871  0.38567830  1
  Te  Te89  1  0.40401386  0.75405223  0.73520884  1
  Te  Te90  1  0.74830410  0.07867382  0.08165311  1
  Te  Te91  1  0.77383960  0.09436698  0.42087800  1
  Te  Te92  1  0.76068273  0.08934437  0.73638801  1
  Te  Te93  1  0.75895307  0.40438273  0.09041761  1
  Te  Te94  1  0.80508934  0.41340758  0.38365011  1
  Te  Te95  1  0.74583093  0.41802614  0.74449279  1
  Te  Te96  1  0.76972451  0.70073723  0.07423934  1
  Te  Te97  1  0.74119024  0.74315390  0.40963589  1
  Te  Te98  1  0.74554065  0.74751434  0.75267460  1
  Te  Te99  1  0.07076142  0.26800227  0.27770341  1
  Te  Te100  1  0.07370567  0.19854642  0.59648828  1
  Te  Te101  1  0.06252761  0.28664800  0.92825408  1
  Te  Te102  1  0.07290184  0.55687135  0.21755014  1
  Te  Te103  1  0.07455001  0.56219615  0.59609718  1
  Te  Te104  1  0.06678112  0.59034694  0.91761129  1
  Te  Te105  1  0.06229603  0.93217355  0.27377779  1
  Te  Te106  1  0.09821916  0.95089570  0.59417364  1
  Te  Te107  1  0.09109025  0.91982453  0.92277799  1
  Te  Te108  1  0.43988923  0.25689839  0.26943178  1
  Te  Te109  1  0.43549145  0.25693618  0.58720868  1
  Te  Te110  1  0.41331252  0.26540861  0.92795396  1
  Te  Te111  1  0.41096004  0.56237457  0.27004613  1
  Te  Te112  1  0.41900312  0.58666024  0.57137642  1
  Te  Te113  1  0.38361921  0.59517152  0.92283230  1
  Te  Te114  1  0.39274925  0.89768301  0.22589981  1
  Te  Te115  1  0.40991152  0.91229503  0.56786740  1
  Te  Te116  1  0.41867424  0.89086492  0.90490144  1
  Te  Te117  1  0.79146523  0.22585372  0.27240591  1
  Te  Te118  1  0.78482312  0.27120306  0.56570263  1
  Te  Te119  1  0.75015668  0.23471585  0.89337896  1
  Te  Te120  1  0.78364545  0.57316516  0.25279207  1
  Te  Te121  1  0.74726452  0.57419416  0.58892808  1
  Te  Te122  1  0.74901189  0.58943080  0.94213215  1
  Te  Te123  1  0.73431773  0.90829689  0.24442005  1
  Te  Te124  1  0.76723857  0.94552629  0.58820995  1
  Te  Te125  1  0.77304590  0.90359199  0.91871704  1
  Te  Te126  1  0.23446451  0.24526899  0.07626558  1
  Te  Te127  1  0.25202874  0.25858360  0.41711909  1
  Te  Te128  1  0.24779557  0.23950184  0.73349187  1
  Te  Te129  1  0.25616907  0.62121900  0.10118926  1
  Te  Te130  1  0.23088766  0.58987688  0.39553002  1
  Te  Te131  1  0.21754030  0.59432797  0.77798884  1
  Te  Te132  1  0.23828834  0.89846509  0.07305166  1
  Te  Te133  1  0.22012486  0.92807781  0.40773503  1
  Te  Te134  1  0.24780923  0.91330834  0.77230311  1
  Te  Te135  1  0.57368249  0.25072819  0.08971774  1
  Te  Te136  1  0.59238340  0.27675162  0.38659137  1
  Te  Te137  1  0.58749119  0.22376646  0.75988696  1
  Te  Te138  1  0.58659033  0.58618019  0.08599117  1
  Te  Te139  1  0.59243065  0.57792701  0.43252622  1
  Te  Te140  1  0.57977985  0.58528014  0.74609835  1
  Te  Te141  1  0.59172418  0.91523648  0.06533073  1
  Te  Te142  1  0.57804258  0.91331806  0.42505359  1
  Te  Te143  1  0.60344791  0.93686104  0.73498231  1
  Te  Te144  1  0.92306854  0.25904472  0.08722469  1
  Te  Te145  1  0.88077749  0.28968827  0.44494511  1
  Te  Te146  1  0.94599842  0.26797426  0.74027245  1
  Te  Te147  1  0.87519980  0.59321698  0.11616996  1
  Te  Te148  1  0.93962482  0.56268950  0.41262438  1
  Te  Te149  1  0.89568516  0.57665785  0.74405046  1
  Te  Te150  1  0.90336509  0.91460866  0.09378432  1
  Te  Te151  1  0.88638556  0.93081366  0.45384058  1
  Te  Te152  1  0.94466073  0.94157994  0.73140375  1
  Te  Te153  1  0.24522421  0.09397357  0.25103159  1
  Te  Te154  1  0.23570733  0.07279010  0.56674268  1
  Te  Te155  1  0.26147899  0.07632609  0.91712305  1
  Te  Te156  1  0.24530553  0.41862318  0.23002073  1
  Te  Te157  1  0.23870645  0.42406022  0.59540781  1
  Te  Te158  1  0.22477169  0.42532984  0.90701663  1
  Te  Te159  1  0.22390167  0.72035444  0.21797306  1
  Te  Te160  1  0.25409419  0.74185263  0.57735737  1
  Te  Te161  1  0.25674996  0.69709050  0.88642258  1
  Te  Te162  1  0.58366904  0.08876202  0.25691090  1
  Te  Te163  1  0.60670687  0.11360985  0.58034377  1
  Te  Te164  1  0.60266665  0.06640405  0.91660554  1
  Te  Te165  1  0.62761715  0.38543129  0.27881432  1
  Te  Te166  1  0.60002535  0.39841329  0.57454200  1
  Te  Te167  1  0.57954721  0.41103188  0.92499755  1
  Te  Te168  1  0.58294286  0.75289647  0.23691142  1
  Te  Te169  1  0.59932318  0.74364243  0.59474445  1
  Te  Te170  1  0.58741365  0.73362649  0.91951615  1
  Te  Te171  1  0.92421737  0.08478537  0.29004863  1
  Te  Te172  1  0.95050822  0.10115852  0.56364894  1
  Te  Te173  1  0.93452065  0.10136226  0.90043547  1
  Te  Te174  1  0.92488042  0.44077213  0.28774699  1
  Te  Te175  1  0.94583109  0.39074978  0.54015923  1
  Te  Te176  1  0.89111380  0.43937222  0.92836274  1
  Te  Te177  1  0.90960660  0.74756073  0.24829760  1
  Te  Te178  1  0.90613592  0.75387012  0.57640714  1
  Te  Te179  1  0.91959677  0.77069858  0.92888717  1
