# generated using pymatgen
data_In2Te3
_symmetry_space_group_name_H-M   'P 1'
_cell_length_a   19.00282929
_cell_length_b   18.97729787
_cell_length_c   18.98285751
_cell_angle_alpha   90.06387263
_cell_angle_beta   89.90925381
_cell_angle_gamma   90.04686082
_symmetry_Int_Tables_number   1
_chemical_formula_structural   In2Te3
_chemical_formula_sum   'In72 Te108'
_cell_volume   6845.62760195
_cell_formula_units_Z   36
loop_
 _symmetry_equiv_pos_site_id
 _symmetry_equiv_pos_as_xyz
  1  'x, y, z'
loop_
 _atom_site_type_symbol
 _atom_site_label
 _atom_site_symmetry_multiplicity
 _atom_site_fract_x
 _atom_site_fract_y
 _atom_site_fract_z
 _atom_site_occupancy
  In  In0  1  0.65157279  -0.00586164  0.65585469  1
  In  In1  1  0.01339627  0.33359586  0.70358030  1
  In  In2  1  0.33518312  0.17196706  0.84697925  1
  In  In3  1  0.83596319  0.00558814  0.84080293  1
  In  In4  1  0.31473840  0.02605658  0.02792391  1
  In  In5  1  0.51688792  0.24218703  -0.01581684  1
  In  In6  1  0.15307634  0.14916510  0.33264818  1
  In  In7  1  0.00092002  -0.00874705  0.34317249  1
  In  In8  1  0.85157792  0.50246164  0.66755476  1
  In  In9  1  0.91608404  0.77871463  -0.02603230  1
  In  In10  1  0.66751753  0.50485745  0.17326730  1
  In  In11  1  0.66989893  0.81738057  0.47180823  1
  In  In12  1  0.84459946  0.34055498  0.84174494  1
  In  In13  1  -0.00087588  0.16339653  0.51668223  1
  In  In14  1  0.32490453  0.46816272  0.17167459  1
  In  In15  1  0.48747479  0.80373539  0.68057843  1
  In  In16  1  0.83694850  0.33970199  0.49775210  1
  In  In17  1  0.67528489  0.83801977  0.81004202  1
  In  In18  1  0.52220376  0.64503990  0.49637759  1
  In  In19  1  0.15106046  0.35042378  0.48493581  1
  In  In20  1  0.30294234  0.20423777  0.17496370  1
  In  In21  1  -0.00445441  0.63889458  0.34365013  1
  In  In22  1  0.83396638  0.80505712  0.32096108  1
  In  In23  1  0.33640385  0.81384500  0.48326242  1
  In  In24  1  0.05195013  0.64951694  0.69476692  1
  In  In25  1  0.14050339  0.19734014  0.01419297  1
  In  In26  1  0.50476256  0.50310725  0.66271564  1
  In  In27  1  0.65148030  0.03635026  -0.01167609  1
  In  In28  1  0.35117480  0.50025553  0.49374344  1
  In  In29  1  0.13893711  0.49251970  -0.00241333  1
  In  In30  1  0.00944243  -0.02788532  0.68206662  1
  In  In31  1  0.15736187  0.64390564  0.15503144  1
  In  In32  1  0.17730136  0.13432737  0.67377534  1
  In  In33  1  0.68028571  0.33725644  0.34538732  1
  In  In34  1  0.50086161  0.64849878  0.83374605  1
  In  In35  1  0.83780720  0.78364143  0.66762805  1
  In  In36  1  0.04130364  -0.02940640  -0.00290541  1
  In  In37  1  0.86377546  0.50935381  0.00351035  1
  In  In38  1  0.48353235  0.87390682  0.33549774  1
  In  In39  1  0.67646323  0.18371538  0.15798156  1
  In  In40  1  -0.00895733  0.18890760  0.17557293  1
  In  In41  1  -0.01030773  0.36147509  0.32193840  1
  In  In42  1  0.33208850  0.65116431  0.30643963  1
  In  In43  1  0.68236146  0.83411363  0.14271855  1
  In  In44  1  0.85741037  -0.01569626  0.19101379  1
  In  In45  1  0.84838653  0.15764454  -0.00403381  1
  In  In46  1  0.46121284  0.01176270  0.85444939  1
  In  In47  1  0.82783535  0.36709857  0.17927121  1
  In  In48  1  0.00176668  0.81869838  0.51441274  1
  In  In49  1  0.29579570  0.81844366  0.12340970  1
  In  In50  1  0.49037494  0.20717590  0.69716797  1
  In  In51  1  0.49949525  0.66884782  0.17587777  1
  In  In52  1  0.31332434  0.35985346  0.69438859  1
  In  In53  1  0.33057751  0.01443771  0.34870741  1
  In  In54  1  0.67379192  0.05406897  0.34162441  1
  In  In55  1  0.33379145  0.16456852  0.52004802  1
  In  In56  1  0.34107940  0.34321543  0.34229486  1
  In  In57  1  0.45923880  0.02702938  0.16703799  1
  In  In58  1  0.50460699  0.49533818  -0.01139984  1
  In  In59  1  0.17278822  0.67166838  0.50226978  1
  In  In60  1  0.50013915  0.82832186  0.01883885  1
  In  In61  1  0.67273742  0.20507661  0.80434039  1
  In  In62  1  0.68607462  0.67443631  0.32234257  1
  In  In63  1  0.01870068  0.81938177  0.17178212  1
  In  In64  1  0.83586855  0.18774555  0.64928223  1
  In  In65  1  0.29524946  0.65218320  0.69710626  1
  In  In66  1  0.49611050  0.02998564  0.51876656  1
  In  In67  1  0.22346589  0.78565396  0.80979925  1
  In  In68  1  0.68420199  0.49010691  0.50332073  1
  In  In69  1  0.32043612  -0.04328604  0.68182933  1
  In  In70  1  0.80289146  0.00108894  0.49057055  1
  In  In71  1  0.69947790  0.65715591  -0.02617340  1
  Te  Te72  1  0.06822682  0.08926459  0.09519835  1
  Te  Te73  1  0.08890833  0.06613492  0.44223127  1
  Te  Te74  1  0.07314588  0.07824131  0.75885753  1
  Te  Te75  1  0.10698532  0.35710047  0.06078407  1
  Te  Te76  1  0.05452460  0.44275487  0.42667457  1
  Te  Te77  1  0.10890231  0.43453745  0.75731955  1
  Te  Te78  1  0.09380032  0.74489722  0.06309092  1
  Te  Te79  1  0.08130406  0.74795410  0.40693021  1
  Te  Te80  1  0.08205933  0.77902803  0.76535300  1
  Te  Te81  1  0.42847131  0.12233104  0.05752068  1
  Te  Te82  1  0.42820281  0.11027534  0.41031213  1
  Te  Te83  1  0.40083905  0.08282876  0.73198105  1
  Te  Te84  1  0.43096966  0.41401999  0.08626868  1
  Te  Te85  1  0.44439116  0.40844398  0.42609242  1
  Te  Te86  1  0.40138682  0.45899883  0.76093704  1
  Te  Te87  1  0.40482947  0.72224261  0.07052618  1
  Te  Te88  1  0.43749387  0.73588794  0.39983746  1
  Te  Te89  1  0.38876553  0.74918731  0.77954134  1
  Te  Te90  1  0.76440405  0.06814490  0.09280574  1
  Te  Te91  1  0.74308735  0.13205696  0.44831392  1
  Te  Te92  1  0.74666602  0.07982984  0.74155143  1
  Te  Te93  1  0.74728672  0.42992524  0.06801214  1
  Te  Te94  1  0.78764835  0.44361273  0.39647968  1
  Te  Te95  1  0.76461549  0.39929472  0.73199338  1
  Te  Te96  1  0.77601118  0.75461429  0.05972370  1
  Te  Te97  1  0.78437366  0.71461091  0.44075335  1
  Te  Te98  1  0.75689333  0.72298177  0.77299424  1
  Te  Te99  1  0.09343928  0.26443659  0.25674456  1
  Te  Te100  1  0.09722371  0.24888966  0.59534240  1
  Te  Te101  1  0.04929718  0.28792050  0.93764467  1
  Te  Te102  1  0.07331905  0.55903656  0.24347526  1
  Te  Te103  1  0.09655575  0.57200304  0.57722263  1
  Te  Te104  1  0.13411148  0.61093374  0.90014236  1
  Te  Te105  1  0.08801721  0.92129499  0.24989061  1
  Te  Te106  1  0.09563270  0.90316277  0.58668449  1
  Te  Te107  1  0.02543579  0.85639293  0.90281382  1
  Te  Te108  1  0.41420413  0.24989641  0.25499863  1
  Te  Te109  1  0.40130063  0.27496735  0.59722314  1
  Te  Te110  1  0.40890112  0.29146516  0.89332768  1
  Te  Te111  1  0.43262385  0.55700755  0.25007970  1
  Te  Te112  1  0.40496585  0.61034944  0.58876221  1
  Te  Te113  1  0.40327139  0.55849946  0.89905223  1
  Te  Te114  1  0.39496516  0.89841792  0.21410357  1
  Te  Te115  1  0.43006829  0.90544698  0.57308981  1
  Te  Te116  1  0.39774925  0.91663426  0.94921825  1
  Te  Te117  1  0.77092046  0.24987505  0.25519025  1
  Te  Te118  1  0.74247893  0.29200438  0.60332533  1
  Te  Te119  1  0.74937495  0.24952080  0.92564371  1
  Te  Te120  1  0.76572089  0.60073863  0.22481316  1
  Te  Te121  1  0.75017815  0.58099936  0.59645148  1
  Te  Te122  1  0.75543496  0.54014207  0.90642480  1
  Te  Te123  1  0.74298564  0.91926023  0.26529182  1
  Te  Te124  1  0.74648994  0.89483426  0.58989534  1
  Te  Te125  1  0.73342019  0.92650617  0.92014591  1
  Te  Te126  1  0.25867658  0.27948668  0.05747311  1
  Te  Te127  1  0.24085903  0.23663765  0.42470131  1
  Te  Te128  1  0.23547134  0.24632489  0.75925173  1
  Te  Te129  1  0.25526684  0.56033149  0.07575813  1
  Te  Te130  1  0.25161864  0.57664868  0.40832429  1
  Te  Te131  1  0.21290210  0.55567039  0.77942423  1
  Te  Te132  1  0.21276525  0.92156405  0.05775586  1
  Te  Te133  1  0.25413394  0.90312590  0.40228073  1
  Te  Te134  1  0.23930736  0.93193888  0.79858288  1
  Te  Te135  1  0.59227840  0.29113438  0.10351007  1
  Te  Te136  1  0.62093785  0.21656052  0.40447409  1
  Te  Te137  1  0.58077097  0.30969873  0.75304370  1
  Te  Te138  1  0.59165710  0.60574373  0.07308899  1
  Te  Te139  1  0.60357546  0.57150037  0.39506354  1
  Te  Te140  1  0.59544399  0.58566663  0.74295871  1
  Te  Te141  1  0.57863303  0.94063689  0.08769029  1
  Te  Te142  1  0.59099939  0.94585674  0.42695979  1
  Te  Te143  1  0.55405598  0.92396304  0.75901325  1
  Te  Te144  1  0.90044974  0.26660442  0.08532857  1
  Te  Te145  1  0.93189665  0.25196124  0.41727135  1
  Te  Te146  1  0.92154231  0.22942390  0.76445843  1
  Te  Te147  1  0.94946599  0.63235817  0.02876570  1
  Te  Te148  1  0.87249411  0.58868709  0.40608396  1
  Te  Te149  1  0.94963035  0.56024667  0.76541638  1
  Te  Te150  1  0.92219624  0.90709400  0.07992312  1
  Te  Te151  1  0.90127306  0.90475845  0.42223037  1
  Te  Te152  1  0.89668771  0.89903418  0.75198584  1
  Te  Te153  1  0.24770652  0.07694123  0.23806530  1
  Te  Te154  1  0.25611655  0.04778891  0.57663910  1
  Te  Te155  1  0.23013993  0.10087373  0.92723544  1
  Te  Te156  1  0.23315656  0.40683012  0.26763849  1
  Te  Te157  1  0.24549864  0.42762482  0.57612370  1
  Te  Te158  1  0.20018524  0.41984340  0.88046937  1
  Te  Te159  1  0.23453151  0.74380703  0.24237300  1
  Te  Te160  1  0.25092399  0.76156893  0.59657654  1
  Te  Te161  1  0.21195438  0.73440653  0.94989542  1
  Te  Te162  1  0.57712028  0.09749481  0.23689071  1
  Te  Te163  1  0.58146837  0.11879726  0.60565058  1
  Te  Te164  1  0.57253839  0.11161060  0.88344827  1
  Te  Te165  1  0.59297907  0.39662389  0.24152619  1
  Te  Te166  1  0.56268102  0.41996345  0.55414236  1
  Te  Te167  1  0.55730172  0.37316533  0.91559252  1
  Te  Te168  1  0.58508829  0.77370436  0.24659801  1
  Te  Te169  1  0.59104956  0.74831472  0.58693565  1
  Te  Te170  1  0.58521678  0.75876762  0.91471015  1
  Te  Te171  1  0.91596300  0.09538519  0.27401910  1
  Te  Te172  1  0.90591839  0.06278148  0.58608733  1
  Te  Te173  1  0.94593854  0.07017109  0.92239158  1
  Te  Te174  1  0.94712903  0.44993012  0.20975861  1
  Te  Te175  1  0.93952135  0.40387195  0.59065188  1
  Te  Te176  1  0.94769744  0.41413563  0.92178974  1
  Te  Te177  1  0.92081350  0.72208938  0.23317527  1
  Te  Te178  1  0.94353676  0.70667927  0.59607462  1
  Te  Te179  1  0.93099049  0.66516309  0.87987603  1
