# generated using pymatgen
data_In2Te3
_symmetry_space_group_name_H-M   'P 1'
_cell_length_a   18.78507634
_cell_length_b   18.78353025
_cell_length_c   18.77654524
_cell_angle_alpha   90.03221971
_cell_angle_beta   89.91186815
_cell_angle_gamma   89.92356493
_symmetry_Int_Tables_number   1
_chemical_formula_structural   In2Te3
_chemical_formula_sum   'In72 Te108'
_cell_volume   6625.29013176
_cell_formula_units_Z   36
loop_
 _symmetry_equiv_pos_site_id
 _symmetry_equiv_pos_as_xyz
  1  'x, y, z'
loop_
 _atom_site_type_symbol
 _atom_site_label
 _atom_site_symmetry_multiplicity
 _atom_site_fract_x
 _atom_site_fract_y
 _atom_site_fract_z
 _atom_site_occupancy
  In  In0  1  0.33870626  0.49717807  0.16698570  1
  In  In1  1  0.15850875  0.01376579  0.82387110  1
  In  In2  1  0.66376744  0.47408424  0.49264316  1
  In  In3  1  0.51525477  0.83935372  0.67132365  1
  In  In4  1  0.67888299  0.35497131  0.63034536  1
  In  In5  1  -0.00165860  0.31748246  0.01381768  1
  In  In6  1  0.17176788  0.33906820  0.18177644  1
  In  In7  1  0.68186279  0.67501616  -0.01639238  1
  In  In8  1  -0.00868344  0.82618192  0.84720626  1
  In  In9  1  0.82279519  0.35911934  0.49101680  1
  In  In10  1  0.80893554  0.00938935  0.48986918  1
  In  In11  1  0.66847978  -0.00757475  0.66353292  1
  In  In12  1  0.02057436  0.80437562  0.50108215  1
  In  In13  1  0.00192934  -0.01941065  0.68298601  1
  In  In14  1  0.85249467  0.50569132  0.67064612  1
  In  In15  1  0.35933566  0.83569062  0.82195684  1
  In  In16  1  0.32441974  0.33038237  0.66424620  1
  In  In17  1  0.80390291  0.17492401  0.31662686  1
  In  In18  1  0.48469498  0.16637680  0.65944660  1
  In  In19  1  0.66465143  0.65219143  0.33133299  1
  In  In20  1  0.84146338  0.15468399  0.00066946  1
  In  In21  1  0.16949937  0.50656221  0.65443094  1
  In  In22  1  0.32911288  -0.00312302  0.33166912  1
  In  In23  1  0.35061282  0.00240888  -0.00258738  1
  In  In24  1  0.17204475  0.32359330  0.83668461  1
  In  In25  1  0.33549393  0.66229399  0.02048157  1
  In  In26  1  0.31460475  0.79994291  0.19255010  1
  In  In27  1  0.51045311  0.01032991  0.17192631  1
  In  In28  1  0.15206337  0.00424148  0.17461843  1
  In  In29  1  0.33420102  0.82771630  0.49340726  1
  In  In30  1  0.50086842  0.18426198  0.00142841  1
  In  In31  1  0.81563384  0.00455242  0.16260558  1
  In  In32  1  0.65935396  0.33468014  0.01918106  1
  In  In33  1  0.01676684  0.67072045  0.33444116  1
  In  In34  1  -0.01059945  0.00231943  -0.01926981  1
  In  In35  1  0.18274942  0.82270403  0.65168725  1
  In  In36  1  0.49103546  0.32204708  0.17768880  1
  In  In37  1  0.84252866  0.67110280  0.51099752  1
  In  In38  1  -0.00216489  0.34047296  0.32581534  1
  In  In39  1  0.65513399  0.84499623  0.16408597  1
  In  In40  1  0.66476539  0.46012308  0.17956241  1
  In  In41  1  0.50995005  0.51385021  0.63283250  1
  In  In42  1  -0.02630649  0.51740248  0.14881566  1
  In  In43  1  0.17098809  0.31417347  0.49351378  1
  In  In44  1  0.65121426  0.85355769  0.49657611  1
  In  In45  1  0.17028183  0.80679750  0.02661476  1
  In  In46  1  0.49535247  0.31454679  0.82850171  1
  In  In47  1  0.68457580  0.52833788  0.86181942  1
  In  In48  1  0.01055072  0.01711916  0.34499020  1
  In  In49  1  0.48259685  0.68371108  0.49778124  1
  In  In50  1  0.15975717  0.65505657  0.83292422  1
  In  In51  1  0.01344136  0.81928720  0.16604562  1
  In  In52  1  0.01547035  0.17451130  0.50918674  1
  In  In53  1  0.81615465  0.48651043  0.33325137  1
  In  In54  1  0.31557788  0.48082594  0.83569000  1
  In  In55  1  0.19817374  0.53247985  0.34974751  1
  In  In56  1  0.50135977  0.00219132  0.49653881  1
  In  In57  1  0.16998886  0.16893117  0.00820278  1
  In  In58  1  0.50886226  0.68535988  0.82941903  1
  In  In59  1  0.70563136  0.69500265  0.70726317  1
  In  In60  1  0.64811636  0.14769625  0.83257499  1
  In  In61  1  -0.00203315  0.51249617  0.83607501  1
  In  In62  1  0.31646740  0.05274684  0.65664295  1
  In  In63  1  0.83099899  0.18516130  0.66411784  1
  In  In64  1  0.49713065  0.50095314  0.01873240  1
  In  In65  1  0.48537137  0.66239394  0.17404478  1
  In  In66  1  0.17750263  0.19082713  0.33615131  1
  In  In67  1  0.00371091  0.49592530  0.52406838  1
  In  In68  1  0.84708159  0.83577783  0.31712559  1
  In  In69  1  0.84393385  0.32362431  0.82908941  1
  In  In70  1  0.82598190  0.82830113  -0.02812162  1
  In  In71  1  0.49411273  0.16993624  0.33091031  1
  Te  Te72  1  0.06322302  0.08827688  0.08446211  1
  Te  Te73  1  0.12134531  0.08184950  0.43317028  1
  Te  Te74  1  0.07776211  0.09717112  0.73414813  1
  Te  Te75  1  0.08013804  0.42110053  0.09032211  1
  Te  Te76  1  0.08788840  0.42544794  0.41549753  1
  Te  Te77  1  0.08776793  0.42118252  0.75011353  1
  Te  Te78  1  0.07746210  0.70947206  0.08652940  1
  Te  Te79  1  0.12551773  0.74761053  0.40477091  1
  Te  Te80  1  0.08321703  0.75413537  0.74626476  1
  Te  Te81  1  0.41191574  0.10018842  0.09656131  1
  Te  Te82  1  0.40007836  0.09113341  0.42813454  1
  Te  Te83  1  0.42564060  0.06948773  0.75267736  1
  Te  Te84  1  0.40453099  0.39498667  0.06975226  1
  Te  Te85  1  0.47955998  0.38676341  0.39207413  1
  Te  Te86  1  0.42784356  0.42739935  0.74420233  1
  Te  Te87  1  0.42483116  0.76752260  0.08143981  1
  Te  Te88  1  0.41549769  0.75770308  0.38954908  1
  Te  Te89  1  0.41373586  0.73421904  0.71989299  1
  Te  Te90  1  0.73276125  0.07124923  0.06050820  1
  Te  Te91  1  0.71835391  0.08878571  0.40391678  1
  Te  Te92  1  0.75906823  0.08144403  0.75012153  1
  Te  Te93  1  0.75383664  0.43729114  0.06503349  1
  Te  Te94  1  0.71236357  0.37403350  0.37596144  1
  Te  Te95  1  0.74574117  0.42300351  0.75308243  1
  Te  Te96  1  0.75571968  0.75813439  0.09104777  1
  Te  Te97  1  0.75326384  0.75134035  0.41280067  1
  Te  Te98  1  0.77290059  0.78071463  0.81069702  1
  Te  Te99  1  0.06912580  0.23744500  0.23955828  1
  Te  Te100  1  0.10807949  0.24025296  0.60604694  1
  Te  Te101  1  0.07124443  0.23252408  0.91026677  1
  Te  Te102  1  0.08267049  0.56138142  0.25306159  1
  Te  Te103  1  0.08095665  0.60433386  0.58482651  1
  Te  Te104  1  0.09669907  0.56806377  0.93230673  1
  Te  Te105  1  0.08685841  0.90539492  0.26989703  1
  Te  Te106  1  0.09192073  0.91808642  0.57486875  1
  Te  Te107  1  0.10323620  0.91073137  0.92663383  1
  Te  Te108  1  0.38974347  0.24708945  0.25652934  1
  Te  Te109  1  0.38929086  0.23478895  0.56899071  1
  Te  Te110  1  0.39778062  0.25009347  0.91619069  1
  Te  Te111  1  0.39364426  0.59368669  0.26725020  1
  Te  Te112  1  0.39638527  0.57110924  0.55467037  1
  Te  Te113  1  0.42008803  0.58322910  0.91264605  1
  Te  Te114  1  0.41226008  0.90842179  0.23937340  1
  Te  Te115  1  0.41321392  0.92304400  0.59418795  1
  Te  Te116  1  0.43963914  0.91583027  0.91593508  1
  Te  Te117  1  0.73383266  0.28632048  0.24999245  1
  Te  Te118  1  0.74405684  0.24109941  0.55241027  1
  Te  Te119  1  0.73403013  0.25251109  0.91094990  1
  Te  Te120  1  0.75362460  0.58102780  0.23155255  1
  Te  Te121  1  0.74703503  0.57477316  0.58214183  1
  Te  Te122  1  0.80146220  0.60017106  0.92253323  1
  Te  Te123  1  0.73652261  0.92636798  0.26783884  1
  Te  Te124  1  0.76412041  0.89878697  0.58771736  1
  Te  Te125  1  0.72924101  0.90475558  0.88884851  1
  Te  Te126  1  0.25519865  0.25323680  0.09416178  1
  Te  Te127  1  0.28437254  0.26513935  0.40907740  1
  Te  Te128  1  0.26184640  0.23489572  0.75747335  1
  Te  Te129  1  0.24006390  0.57790297  0.09131882  1
  Te  Te130  1  0.27535035  0.60473868  0.45408665  1
  Te  Te131  1  0.26436655  0.58961870  0.74202999  1
  Te  Te132  1  0.25140395  0.91929359  0.09111200  1
  Te  Te133  1  0.24186664  0.91976266  0.42299621  1
  Te  Te134  1  0.25581504  0.92135788  0.74455788  1
  Te  Te135  1  0.59806157  0.23280230  0.11213040  1
  Te  Te136  1  0.56435629  0.27012899  0.42093296  1
  Te  Te137  1  0.59974403  0.25613456  0.73234003  1
  Te  Te138  1  0.59483638  0.59363703  0.08780689  1
  Te  Te139  1  0.57285498  0.57646478  0.42343031  1
  Te  Te140  1  0.59218142  0.58168289  0.74373047  1
  Te  Te141  1  0.59628658  0.94285986  0.06887090  1
  Te  Te142  1  0.56361647  0.91292741  0.39609876  1
  Te  Te143  1  0.59864601  0.91354063  0.76975014  1
  Te  Te144  1  0.89944094  0.24699474  0.09846162  1
  Te  Te145  1  0.91471448  0.24936518  0.41822788  1
  Te  Te146  1  0.93739754  0.24737332  0.74471451  1
  Te  Te147  1  0.89965607  0.59559571  0.04598321  1
  Te  Te148  1  0.91396393  0.57265739  0.41510636  1
  Te  Te149  1  0.91627829  0.60780465  0.75507371  1
  Te  Te150  1  0.91937057  0.91570034  0.08931453  1
  Te  Te151  1  0.92396506  0.91359488  0.42381902  1
  Te  Te152  1  0.89959843  0.90931510  0.76444201  1
  Te  Te153  1  0.25288337  0.09509071  0.24072348  1
  Te  Te154  1  0.21657102  0.09530879  0.55998687  1
  Te  Te155  1  0.25860494  0.08949716  0.91017194  1
  Te  Te156  1  0.26544587  0.41641453  0.27730555  1
  Te  Te157  1  0.25767863  0.42276318  0.56250781  1
  Te  Te158  1  0.23488152  0.41377006  0.93700671  1
  Te  Te159  1  0.20675030  0.73912557  0.26920149  1
  Te  Te160  1  0.25155592  0.72115429  0.56516497  1
  Te  Te161  1  0.26015978  0.75446420  0.91047157  1
  Te  Te162  1  0.59937168  0.08859130  0.26270264  1
  Te  Te163  1  0.59314502  0.09269264  0.57730314  1
  Te  Te164  1  0.57097412  0.07145066  0.93211887  1
  Te  Te165  1  0.53498594  0.44540450  0.25615765  1
  Te  Te166  1  0.54273811  0.38197636  0.56192658  1
  Te  Te167  1  0.57725094  0.41930799  0.91056149  1
  Te  Te168  1  0.57618503  0.75288968  0.25908080  1
  Te  Te169  1  0.60121568  0.73835605  0.58754122  1
  Te  Te170  1  0.58227079  0.76909011  0.92506039  1
  Te  Te171  1  0.91244495  0.08639089  0.25104294  1
  Te  Te172  1  0.91569955  0.07636542  0.57764794  1
  Te  Te173  1  0.90415506  0.07958896  0.88974296  1
  Te  Te174  1  0.90054595  0.40886672  0.23139640  1
  Te  Te175  1  0.92567364  0.38986643  0.60070442  1
  Te  Te176  1  0.91750973  0.41424593  0.92488365  1
  Te  Te177  1  0.91155162  0.72498731  0.23727024  1
  Te  Te178  1  0.92349413  0.75419807  0.60080875  1
  Te  Te179  1  0.94737039  0.73693603  0.96031826  1
