# generated using pymatgen
data_In2Te3
_symmetry_space_group_name_H-M   'P 1'
_cell_length_a   18.76760596
_cell_length_b   18.76100253
_cell_length_c   18.75768328
_cell_angle_alpha   89.99159296
_cell_angle_beta   90.01158682
_cell_angle_gamma   90.03443929
_symmetry_Int_Tables_number   1
_chemical_formula_structural   In2Te3
_chemical_formula_sum   'In72 Te108'
_cell_volume   6604.56205767
_cell_formula_units_Z   36
loop_
 _symmetry_equiv_pos_site_id
 _symmetry_equiv_pos_as_xyz
  1  'x, y, z'
loop_
 _atom_site_type_symbol
 _atom_site_label
 _atom_site_symmetry_multiplicity
 _atom_site_fract_x
 _atom_site_fract_y
 _atom_site_fract_z
 _atom_site_occupancy
  In  In0  1  0.35048228  0.81956040  0.52047407  1
  In  In1  1  0.16198902  0.17916517  0.33801383  1
  In  In2  1  0.69431510  0.17663221  0.49978423  1
  In  In3  1  0.00745638  0.67522342  0.66825864  1
  In  In4  1  0.33101121  0.83197707  0.17428659  1
  In  In5  1  0.17425056  0.83210686  -0.03258383  1
  In  In6  1  0.83115647  0.80727872  0.33635437  1
  In  In7  1  0.81015894  0.67078866  0.83037876  1
  In  In8  1  0.51764587  0.83260412  -0.01929060  1
  In  In9  1  0.33584875  0.00087019  0.63752035  1
  In  In10  1  0.51677003  0.65112696  0.15683840  1
  In  In11  1  0.36348098  0.20709734  0.19730523  1
  In  In12  1  0.50575844  0.82947400  0.32787449  1
  In  In13  1  0.31758833  0.00430837  0.36916734  1
  In  In14  1  0.34086669  0.46445183  0.17345554  1
  In  In15  1  0.17821514  0.52085254  0.66405436  1
  In  In16  1  0.65543964  0.52662459  0.82745332  1
  In  In17  1  0.14795891  0.16400017  -0.00133410  1
  In  In18  1  0.64025659  0.51127097  0.51375730  1
  In  In19  1  -0.01555331  0.51465346  0.16788923  1
  In  In20  1  0.83423949  0.65793151  0.50233507  1
  In  In21  1  0.51628629  0.34449926  0.50306961  1
  In  In22  1  0.82947810  -0.00403741  0.82520724  1
  In  In23  1  0.17101706  0.34351252  0.49956671  1
  In  In24  1  0.34985671  0.34148244  0.00255246  1
  In  In25  1  0.51868138  -0.01232117  0.82576002  1
  In  In26  1  0.20577176  -0.00103338  0.50176680  1
  In  In27  1  0.66751291  0.65017781  0.34930615  1
  In  In28  1  0.82266717  0.49868263  0.33758092  1
  In  In29  1  0.83381382  0.49073299  0.64761606  1
  In  In30  1  0.17684174  0.33428272  0.84378867  1
  In  In31  1  -0.01070840  0.32623677  -0.00107525  1
  In  In32  1  0.16134454  0.82446394  0.66738953  1
  In  In33  1  0.80712519  0.80357747  0.02149636  1
  In  In34  1  -0.00998509  0.17279392  0.49294715  1
  In  In35  1  0.67016989  0.34387243  0.33051143  1
  In  In36  1  0.66294581  0.14687617  0.82643244  1
  In  In37  1  0.00130701  0.32829071  0.33186892  1
  In  In38  1  0.33296975  0.16496607  0.50540163  1
  In  In39  1  0.84532695  0.00389223  0.17625217  1
  In  In40  1  -0.00782584  0.00679478  0.68134948  1
  In  In41  1  0.66127306  -0.00662615  0.33265600  1
  In  In42  1  0.36968406  0.50996785  0.51770429  1
  In  In43  1  0.00103849  0.49124703  0.85329855  1
  In  In44  1  0.36411047  -0.00910135  -0.01092807  1
  In  In45  1  0.15490012  -0.01220396  0.81844797  1
  In  In46  1  0.17020234  0.51951203  -0.00308113  1
  In  In47  1  0.80123915  -0.02437117  0.52742089  1
  In  In48  1  0.32802585  0.18546897  0.83992322  1
  In  In49  1  0.34591439  0.65895523  -0.03489167  1
  In  In50  1  0.66667623  -0.00572873  -0.01762947  1
  In  In51  1  0.50637834  0.00948088  0.14747586  1
  In  In52  1  0.66049751  0.32523042  0.65273884  1
  In  In53  1  0.65905178  0.19783017  0.16587481  1
  In  In54  1  0.14933361  0.01431444  0.16214292  1
  In  In55  1  0.00288025  0.81994366  0.49270666  1
  In  In56  1  0.17368392  0.33680304  0.18476105  1
  In  In57  1  0.14803677  0.64565720  0.17379395  1
  In  In58  1  0.66441054  0.49124320  0.17085261  1
  In  In59  1  0.39237924  0.53670710  0.77299530  1
  In  In60  1  0.84308768  0.15972232  -0.00992016  1
  In  In61  1  0.64945288  0.36028422  -0.00031323  1
  In  In62  1  0.33615622  0.66106674  0.33888835  1
  In  In63  1  -0.01274781  0.00428426  0.31131389  1
  In  In64  1  -0.00877285  0.65960608  -0.00465873  1
  In  In65  1  0.15691971  0.67412160  0.49982432  1
  In  In66  1  0.84799264  0.33513438  0.83700537  1
  In  In67  1  0.63099181  0.79988687  0.80598355  1
  In  In68  1  0.49030225  0.00004214  0.50335993  1
  In  In69  1  -0.01874902  0.83293852  0.17039293  1
  In  In70  1  -0.02289368  0.33041402  0.66115791  1
  In  In71  1  0.50992637  0.17211544  0.66277912  1
  Te  Te72  1  0.05129835  0.08515711  0.07877795  1
  Te  Te73  1  0.09029412  0.06970816  0.41767951  1
  Te  Te74  1  0.09171672  0.09765409  0.74291685  1
  Te  Te75  1  0.08811442  0.42021968  0.07824871  1
  Te  Te76  1  0.08480292  0.42385291  0.40968291  1
  Te  Te77  1  0.08280417  0.41972926  0.74589528  1
  Te  Te78  1  0.08979131  0.75312805  0.07877583  1
  Te  Te79  1  0.07088642  0.73403813  0.39454443  1
  Te  Te80  1  0.06930531  0.76588177  0.76694057  1
  Te  Te81  1  0.40628478  0.10312463  0.08419152  1
  Te  Te82  1  0.42990811  0.10197594  0.40573027  1
  Te  Te83  1  0.41636484  0.08119465  0.74857470  1
  Te  Te84  1  0.44822549  0.42051109  0.08251302  1
  Te  Te85  1  0.42199551  0.41586116  0.41133844  1
  Te  Te86  1  0.43925123  0.40553813  0.72440139  1
  Te  Te87  1  0.41861941  0.75177443  0.07864559  1
  Te  Te88  1  0.43773626  0.73512659  0.42643164  1
  Te  Te89  1  0.45944520  0.72498240  0.73873811  1
  Te  Te90  1  0.73872376  0.07954057  0.08643269  1
  Te  Te91  1  0.76451734  0.07286941  0.41194122  1
  Te  Te92  1  0.75061122  0.07978635  0.73020942  1
  Te  Te93  1  0.75337083  0.39554503  0.09922308  1
  Te  Te94  1  0.74159093  0.41990249  0.44222390  1
  Te  Te95  1  0.74584577  0.41845870  0.75436892  1
  Te  Te96  1  0.72489768  0.74061939  0.12526652  1
  Te  Te97  1  0.73135137  0.75520463  0.44079551  1
  Te  Te98  1  0.74914230  0.75563193  0.72201731  1
  Te  Te99  1  0.07121563  0.23343137  0.22911310  1
  Te  Te100  1  0.08511852  0.24970683  0.58445768  1
  Te  Te101  1  0.06587738  0.24343887  0.89586985  1
  Te  Te102  1  0.08683123  0.55078324  0.27031716  1
  Te  Te103  1  0.06665894  0.57246098  0.57288199  1
  Te  Te104  1  0.09471679  0.60458579  0.89569765  1
  Te  Te105  1  0.08968340  0.90665890  0.25285992  1
  Te  Te106  1  0.08780059  0.92138995  0.57359350  1
  Te  Te107  1  0.07100270  0.92764483  0.92493646  1
  Te  Te108  1  0.43466905  0.31320876  0.27025735  1
  Te  Te109  1  0.41367557  0.26365209  0.58849357  1
  Te  Te110  1  0.43353715  0.25731516  0.91314121  1
  Te  Te111  1  0.42398076  0.57410902  0.24962472  1
  Te  Te112  1  0.42673366  0.61354170  0.61470511  1
  Te  Te113  1  0.44068200  0.55544837  0.91612549  1
  Te  Te114  1  0.41609236  0.93087327  0.25638127  1
  Te  Te115  1  0.44648611  0.89790655  0.61010226  1
  Te  Te116  1  0.41470898  0.89121737  0.88420571  1
  Te  Te117  1  0.76017013  0.24766126  0.26143631  1
  Te  Te118  1  0.77678606  0.25654846  0.59333550  1
  Te  Te119  1  0.74030231  0.24920099  0.91536452  1
  Te  Te120  1  0.75896778  0.59848804  0.23953822  1
  Te  Te121  1  0.73359211  0.59540853  0.60049204  1
  Te  Te122  1  0.74213177  0.58739359  0.93382742  1
  Te  Te123  1  0.75268300  0.90519643  0.24722809  1
  Te  Te124  1  0.72304493  0.88632328  0.61767204  1
  Te  Te125  1  0.73709465  0.88715789  0.90410165  1
  Te  Te126  1  0.24787149  0.24979190  0.08084762  1
  Te  Te127  1  0.26653917  0.26277335  0.40822443  1
  Te  Te128  1  0.25915254  0.26915065  0.74001930  1
  Te  Te129  1  0.26792091  0.59162242  0.08991467  1
  Te  Te130  1  0.25509141  0.57550526  0.43467558  1
  Te  Te131  1  0.25520808  0.59602698  0.76558316  1
  Te  Te132  1  0.25416386  0.92376924  0.07841955  1
  Te  Te133  1  0.24916014  0.87646345  0.41879359  1
  Te  Te134  1  0.26323039  0.91249402  0.74028784  1
  Te  Te135  1  0.56324301  0.26373210  0.07505428  1
  Te  Te136  1  0.58713457  0.24273123  0.41470880  1
  Te  Te137  1  0.57911463  0.26074161  0.76576894  1
  Te  Te138  1  0.61538345  0.58710236  0.06474416  1
  Te  Te139  1  0.55616015  0.57207390  0.40795074  1
  Te  Te140  1  0.57291963  0.61811209  0.73758117  1
  Te  Te141  1  0.59790767  0.90448605  0.08897227  1
  Te  Te142  1  0.58832685  0.90387523  0.43339686  1
  Te  Te143  1  0.61331156  0.92946586  0.72386398  1
  Te  Te144  1  0.89819219  0.25468674  0.08956562  1
  Te  Te145  1  0.89948444  0.25764561  0.41450450  1
  Te  Te146  1  0.90782291  0.23375539  0.74888942  1
  Te  Te147  1  0.89323541  0.59395213  0.08306311  1
  Te  Te148  1  0.92055995  0.58538226  0.40825984  1
  Te  Te149  1  0.91454594  0.57433089  0.75413728  1
  Te  Te150  1  0.90609631  0.91545483  0.06724319  1
  Te  Te151  1  0.90936552  0.92050663  0.41774756  1
  Te  Te152  1  0.91359655  0.90114727  0.74623049  1
  Te  Te153  1  0.25517765  0.08710078  0.24869396  1
  Te  Te154  1  0.23206221  0.10888013  0.60557544  1
  Te  Te155  1  0.25039478  0.07414769  0.92191777  1
  Te  Te156  1  0.23846103  0.43313885  0.27553932  1
  Te  Te157  1  0.26732698  0.42083721  0.59227725  1
  Te  Te158  1  0.26639490  0.43607204  0.91287160  1
  Te  Te159  1  0.23852077  0.74377350  0.25527931  1
  Te  Te160  1  0.25938749  0.72735693  0.60171144  1
  Te  Te161  1  0.26401550  0.75064538  0.88264209  1
  Te  Te162  1  0.57764002  0.09286233  0.25278234  1
  Te  Te163  1  0.59694480  0.08321056  0.57664151  1
  Te  Te164  1  0.56170831  0.09074061  0.92928525  1
  Te  Te165  1  0.56265491  0.40340951  0.24173964  1
  Te  Te166  1  0.55405196  0.43966868  0.62896160  1
  Te  Te167  1  0.56204898  0.43453443  0.90097219  1
  Te  Te168  1  0.60197112  0.75051182  0.23966307  1
  Te  Te169  1  0.54637567  0.71604318  0.61259171  1
  Te  Te170  1  0.59235644  0.71828009  0.92465409  1
  Te  Te171  1  0.90526245  0.11360630  0.25642839  1
  Te  Te172  1  0.90338256  0.07846830  0.57931221  1
  Te  Te173  1  0.92753020  0.07353190  0.90652892  1
  Te  Te174  1  0.90341722  0.40955193  0.24224701  1
  Te  Te175  1  0.92215521  0.41802020  0.55538931  1
  Te  Te176  1  0.89364244  0.43492934  0.94426360  1
  Te  Te177  1  0.92569578  0.72593917  0.25607047  1
  Te  Te178  1  0.90554402  0.76069018  0.59315231  1
  Te  Te179  1  0.90801737  0.75648006  0.91257155  1
