# generated using pymatgen
data_In2Te3
_symmetry_space_group_name_H-M   'P 1'
_cell_length_a   18.96033987
_cell_length_b   19.01987234
_cell_length_c   18.99740247
_cell_angle_alpha   90.14497790
_cell_angle_beta   90.02644656
_cell_angle_gamma   89.95079795
_symmetry_Int_Tables_number   1
_chemical_formula_structural   In2Te3
_chemical_formula_sum   'In72 Te108'
_cell_volume   6850.87972151
_cell_formula_units_Z   36
loop_
 _symmetry_equiv_pos_site_id
 _symmetry_equiv_pos_as_xyz
  1  'x, y, z'
loop_
 _atom_site_type_symbol
 _atom_site_label
 _atom_site_symmetry_multiplicity
 _atom_site_fract_x
 _atom_site_fract_y
 _atom_site_fract_z
 _atom_site_occupancy
  In  In0  1  0.01353493  0.17085299  0.50328270  1
  In  In1  1  0.18839090  0.83998443  0.02638324  1
  In  In2  1  0.46744301  0.71320878  0.87440433  1
  In  In3  1  0.66454336  0.18998759  0.83942656  1
  In  In4  1  0.49677003  0.64388447  0.49849211  1
  In  In5  1  0.50192124  0.15433477  0.00590108  1
  In  In6  1  0.18472967  0.00085813  0.16101084  1
  In  In7  1  0.66746891  0.16667551  0.52496078  1
  In  In8  1  0.05166429  -0.00034787  0.68706281  1
  In  In9  1  0.28789362  0.33752752  0.24704481  1
  In  In10  1  0.80897025  0.16052766  -0.01164127  1
  In  In11  1  0.65599804  0.01443740  0.69332039  1
  In  In12  1  0.47354987  0.51162929  0.29495917  1
  In  In13  1  0.49231701  0.32570608  0.14284758  1
  In  In14  1  0.70420607  0.83215016  0.49210674  1
  In  In15  1  0.49987225  0.32864927  0.51480449  1
  In  In16  1  0.16924954  0.66733328  0.16499462  1
  In  In17  1  0.84447896  0.63451819  0.47921440  1
  In  In18  1  0.83980196  0.17603832  0.33514343  1
  In  In19  1  -0.00647718  0.19740540  0.84840735  1
  In  In20  1  0.17589122  0.82416788  0.36672152  1
  In  In21  1  0.62658525  0.49409636  0.87331029  1
  In  In22  1  0.33376773  0.36102003  0.65925337  1
  In  In23  1  0.31444670  0.13655180  0.88202789  1
  In  In24  1  0.66098746  -0.00305683  0.00113279  1
  In  In25  1  0.64989184  0.52694295  0.13105569  1
  In  In26  1  0.17741148  0.65952314  0.85505390  1
  In  In27  1  0.66073559  0.67169729  0.24870307  1
  In  In28  1  0.84120800  0.00003618  0.82442805  1
  In  In29  1  0.50200900  0.79558578  0.31885018  1
  In  In30  1  0.34607409  0.82979363  0.15553665  1
  In  In31  1  0.81927235  0.67101882  0.84455077  1
  In  In32  1  0.17361638  0.64954910  0.48732354  1
  In  In33  1  0.83648726  0.46148112  0.32156581  1
  In  In34  1  0.86515551  0.04580521  0.49512722  1
  In  In35  1  0.15704004  -0.00595739  0.53571700  1
  In  In36  1  0.47921857  0.80454307  0.67260339  1
  In  In37  1  0.31049482  0.30063860  0.02937334  1
  In  In38  1  0.15874135  0.33907261  0.84516941  1
  In  In39  1  0.51228737  0.50470538  0.67446456  1
  In  In40  1  0.00059481  0.50066860  0.15239258  1
  In  In41  1  0.35043139  0.51524631  0.83218924  1
  In  In42  1  0.33129915  0.01808548  0.32678652  1
  In  In43  1  0.65926324  0.33980306  0.33604997  1
  In  In44  1  0.82845682  0.78991149  0.03393297  1
  In  In45  1  0.00833777  0.34439981  0.00906339  1
  In  In46  1  0.09125130  0.32824365  0.34736126  1
  In  In47  1  0.17831999  0.51099099  0.01557803  1
  In  In48  1  0.17800366  0.17516279  0.67312827  1
  In  In49  1  0.66093849  0.83113854  0.84455178  1
  In  In50  1  0.02573175  0.67021549  0.67502187  1
  In  In51  1  0.67290179  0.50477876  0.45630323  1
  In  In52  1  -0.00022175  0.01501669  0.33048897  1
  In  In53  1  0.82136647  0.83078557  0.29749042  1
  In  In54  1  0.49407508  -0.01075500  0.50425004  1
  In  In55  1  0.01937189  -0.03225223  0.00603967  1
  In  In56  1  0.32878055  0.49644605  0.48535180  1
  In  In57  1  0.81978002  0.32284423  0.14416996  1
  In  In58  1  0.82799516  0.46903496  0.66131426  1
  In  In59  1  0.67325152  0.67722930  0.68000783  1
  In  In60  1  0.00573101  0.33688952  0.66365056  1
  In  In61  1  0.83550264  0.51578002  -0.01290917  1
  In  In62  1  0.50935588  0.00303344  0.14817903  1
  In  In63  1  0.32121875  0.19251531  0.46348327  1
  In  In64  1  0.67967822  0.31984818  0.67612893  1
  In  In65  1  0.87109493  0.86975701  0.65201397  1
  In  In66  1  -0.00089961  0.83224812  0.48656174  1
  In  In67  1  0.45167928  -0.02516051  0.90044706  1
  In  In68  1  0.64923684  -0.00731385  0.31394859  1
  In  In69  1  0.00546626  0.83228627  0.17038532  1
  In  In70  1  -0.00045468  0.50844157  0.81724519  1
  In  In71  1  0.34271655  0.81338286  0.51401128  1
  Te  Te72  1  0.06829521  0.06598673  0.10205066  1
  Te  Te73  1  0.10094020  0.08121630  0.41896593  1
  Te  Te74  1  0.09906597  0.10892571  0.78309482  1
  Te  Te75  1  0.11074323  0.40673535  0.10063897  1
  Te  Te76  1  0.03614286  0.43925750  0.42458719  1
  Te  Te77  1  0.10140994  0.42967848  0.73896007  1
  Te  Te78  1  0.07923691  0.74575281  0.07072876  1
  Te  Te79  1  0.06611464  0.72798705  0.40200376  1
  Te  Te80  1  0.08869671  0.74963549  0.77777160  1
  Te  Te81  1  0.40770759  0.09916121  0.10314509  1
  Te  Te82  1  0.42984065  0.09259820  0.41457976  1
  Te  Te83  1  0.39489586  0.05532864  0.79114537  1
  Te  Te84  1  0.37345419  0.40848084  0.10912293  1
  Te  Te85  1  0.43578644  0.42020603  0.41122470  1
  Te  Te86  1  0.43683299  0.40938261  0.76226152  1
  Te  Te87  1  0.43720831  0.73035257  0.09388172  1
  Te  Te88  1  0.40310300  0.72244577  0.40836491  1
  Te  Te89  1  0.38115801  0.73129343  0.75263822  1
  Te  Te90  1  0.72895674  0.09118888  0.08928068  1
  Te  Te91  1  0.73828738  0.07519595  0.41686430  1
  Te  Te92  1  0.76309758  0.10303468  0.74978162  1
  Te  Te93  1  0.74222190  0.42312147  0.06421162  1
  Te  Te94  1  0.76577612  0.38797768  0.43362873  1
  Te  Te95  1  0.72380085  0.43614054  0.76391600  1
  Te  Te96  1  0.72513043  0.72850841  0.11932409  1
  Te  Te97  1  0.75248992  0.72682651  0.39670188  1
  Te  Te98  1  0.76771936  0.77972128  0.73918439  1
  Te  Te99  1  0.10011448  0.24526258  0.22828525  1
  Te  Te100  1  0.10719802  0.26492148  0.57538608  1
  Te  Te101  1  0.10304745  0.24174422  0.94595472  1
  Te  Te102  1  0.09546978  0.56671115  0.24963808  1
  Te  Te103  1  0.07239851  0.58143646  0.57078511  1
  Te  Te104  1  0.07114827  0.57706537  0.93032258  1
  Te  Te105  1  0.09952868  0.91391942  0.26509486  1
  Te  Te106  1  0.10658186  0.85906418  0.58778722  1
  Te  Te107  1  0.12746848  0.91973512  0.91474935  1
  Te  Te108  1  0.42106489  0.27607183  0.26034480  1
  Te  Te109  1  0.40014830  0.24404181  0.58628043  1
  Te  Te110  1  0.40821065  0.24558630  0.92697617  1
  Te  Te111  1  0.43174983  0.62277408  0.20648368  1
  Te  Te112  1  0.40540986  0.57640428  0.59557542  1
  Te  Te113  1  0.43385123  0.57989101  0.93531021  1
  Te  Te114  1  0.42351840  0.91771680  0.26102045  1
  Te  Te115  1  0.40460471  0.91914205  0.60399815  1
  Te  Te116  1  0.38219898  0.84243903  0.88345382  1
  Te  Te117  1  0.73841126  0.24635784  0.24634788  1
  Te  Te118  1  0.77112529  0.24795258  0.58694428  1
  Te  Te119  1  0.75985750  0.27350782  0.91127833  1
  Te  Te120  1  0.76404648  0.55774733  0.23284797  1
  Te  Te121  1  0.73666095  0.58335967  0.57792844  1
  Te  Te122  1  0.71992504  0.60052751  0.93247882  1
  Te  Te123  1  0.74290201  0.92710173  0.22208639  1
  Te  Te124  1  0.74745188  0.93722942  0.59307309  1
  Te  Te125  1  0.76370436  0.91400638  0.92281144  1
  Te  Te126  1  0.22723966  0.23869318  0.14036373  1
  Te  Te127  1  0.23693971  0.28814663  0.38810883  1
  Te  Te128  1  0.26213397  0.26556989  0.76028663  1
  Te  Te129  1  0.27292786  0.59451104  0.09017383  1
  Te  Te130  1  0.24923720  0.57087403  0.38189914  1
  Te  Te131  1  0.23892223  0.56871017  0.75626489  1
  Te  Te132  1  0.30092408  0.94706322  0.06581876  1
  Te  Te133  1  0.26835239  0.92602892  0.43169250  1
  Te  Te134  1  0.19465562  0.95255212  0.68177505  1
  Te  Te135  1  0.59422834  0.26502819  0.05041913  1
  Te  Te136  1  0.58327289  0.24201931  0.42287323  1
  Te  Te137  1  0.57124506  0.25183752  0.74437734  1
  Te  Te138  1  0.52503153  0.59574409  0.08246992  1
  Te  Te139  1  0.58104509  0.59549651  0.37826061  1
  Te  Te140  1  0.57643933  0.60485209  0.76773996  1
  Te  Te141  1  0.53238958  0.91936535  0.02324506  1
  Te  Te142  1  0.57948817  0.89439554  0.41965790  1
  Te  Te143  1  0.56978626  0.90272303  0.74833429  1
  Te  Te144  1  0.91910861  0.23845785  0.06899915  1
  Te  Te145  1  0.94584752  0.25645117  0.40232144  1
  Te  Te146  1  0.91161881  0.27440709  0.75653780  1
  Te  Te147  1  0.91564976  0.59498653  0.07988482  1
  Te  Te148  1  0.93401041  0.55357045  0.39190548  1
  Te  Te149  1  0.89596946  0.58879566  0.73812113  1
  Te  Te150  1  0.90330236  0.90912257  0.08958760  1
  Te  Te151  1  0.90007413  0.92129845  0.41463666  1
  Te  Te152  1  0.95350511  0.91314730  0.76885978  1
  Te  Te153  1  0.24004636  0.10567095  0.25202131  1
  Te  Te154  1  0.26171702  0.10123399  0.56997383  1
  Te  Te155  1  0.23651255  0.03526544  0.95329163  1
  Te  Te156  1  0.21437797  0.46604809  0.27106685  1
  Te  Te157  1  0.23696317  0.41821847  0.56695500  1
  Te  Te158  1  0.26144877  0.41551143  0.92670582  1
  Te  Te159  1  0.25379490  0.75928840  0.25409187  1
  Te  Te160  1  0.24418923  0.73400167  0.58654420  1
  Te  Te161  1  0.26613861  0.74147406  0.94515815  1
  Te  Te162  1  0.58274155  0.09565554  0.23508218  1
  Te  Te163  1  0.56203690  0.08749657  0.60026878  1
  Te  Te164  1  0.58201976  0.07414153  0.89416683  1
  Te  Te165  1  0.58936810  0.42640414  0.23350663  1
  Te  Te166  1  0.59662851  0.43024564  0.57212878  1
  Te  Te167  1  0.57574531  0.39598274  0.96763726  1
  Te  Te168  1  0.59209801  0.79520435  0.20078941  1
  Te  Te169  1  0.58709762  0.74819988  0.57335120  1
  Te  Te170  1  0.58563919  0.76541044  0.94953195  1
  Te  Te171  1  0.90953013  0.08688897  0.24263778  1
  Te  Te172  1  0.94752511  0.08776635  0.61181904  1
  Te  Te173  1  0.92752291  0.07523502  0.92392066  1
  Te  Te174  1  0.92806212  0.38891589  0.22666511  1
  Te  Te175  1  0.93322366  0.42642875  0.56843643  1
  Te  Te176  1  0.92068500  0.41667895  0.90856813  1
  Te  Te177  1  0.92650448  0.74124821  0.25289262  1
  Te  Te178  1  0.90462876  0.74464857  0.57271986  1
  Te  Te179  1  0.91326184  0.75041853  0.92210599  1
