# generated using pymatgen
data_In2Te3
_symmetry_space_group_name_H-M   'P 1'
_cell_length_a   18.87883948
_cell_length_b   18.88102506
_cell_length_c   18.90213799
_cell_angle_alpha   90.09384635
_cell_angle_beta   90.00699977
_cell_angle_gamma   90.02600574
_symmetry_Int_Tables_number   1
_chemical_formula_structural   In2Te3
_chemical_formula_sum   'In72 Te108'
_cell_volume   6737.69210766
_cell_formula_units_Z   36
loop_
 _symmetry_equiv_pos_site_id
 _symmetry_equiv_pos_as_xyz
  1  'x, y, z'
loop_
 _atom_site_type_symbol
 _atom_site_label
 _atom_site_symmetry_multiplicity
 _atom_site_fract_x
 _atom_site_fract_y
 _atom_site_fract_z
 _atom_site_occupancy
  In  In0  1  0.34196834  0.16463988  0.18882431  1
  In  In1  1  0.67225567  0.00469486  0.66508859  1
  In  In2  1  0.82164076  0.82872985  0.66701172  1
  In  In3  1  0.68028661  0.35285546  0.32872274  1
  In  In4  1  -0.01311789  0.16407298  0.16096505  1
  In  In5  1  0.48228966  0.66135672  0.83842457  1
  In  In6  1  0.82068609  0.67041388  0.81527512  1
  In  In7  1  0.52419046  0.70130965  0.21445612  1
  In  In8  1  -0.02359077  0.34403046  0.03256364  1
  In  In9  1  0.17223442  0.14887546  0.33274746  1
  In  In10  1  0.81665640  0.63938250  0.19609023  1
  In  In11  1  0.33449276  0.49096463  0.80851325  1
  In  In12  1  0.16500913  0.83877580  0.34067042  1
  In  In13  1  0.49504608  0.84464704  0.01091845  1
  In  In14  1  0.00700956  0.84912576  0.49170537  1
  In  In15  1  0.16828492  0.84164946  -0.01025432  1
  In  In16  1  0.17506341  0.70632884  0.85260682  1
  In  In17  1  0.82204667  -0.00264690  0.83969462  1
  In  In18  1  0.33801069  -0.01129723  -0.01826131  1
  In  In19  1  0.38009666  0.31783861  -0.01375554  1
  In  In20  1  0.30073132  0.32847189  0.66088863  1
  In  In21  1  0.36268817  0.52714360  0.18579215  1
  In  In22  1  0.32599532  0.17213588  0.50489445  1
  In  In23  1  0.51465502  -0.01541635  0.17481752  1
  In  In24  1  0.17670680  0.14942519  -0.01117709  1
  In  In25  1  0.82297067  0.33864877  0.48284936  1
  In  In26  1  0.00273807  0.16063776  0.81919447  1
  In  In27  1  0.82060163  0.32569221  0.17570421  1
  In  In28  1  -0.01419476  0.84130545  0.81186551  1
  In  In29  1  0.51762300  0.15485258  0.34046264  1
  In  In30  1  0.48145964  -0.00877136  0.50566585  1
  In  In31  1  0.84820410  -0.00655502  0.49043549  1
  In  In32  1  0.48837592  0.34054584  0.48698750  1
  In  In33  1  -0.00542352  0.33788713  0.34345882  1
  In  In34  1  0.48960080  0.85378732  0.65114366  1
  In  In35  1  0.17103900  -0.00626790  0.48746798  1
  In  In36  1  0.00238849  0.52068272  0.17756500  1
  In  In37  1  0.65191821  0.67044793  0.01548021  1
  In  In38  1  0.35532113  0.35371153  0.32345846  1
  In  In39  1  0.20221587  0.67657549  0.47700660  1
  In  In40  1  0.81665578  0.84964178  -0.00604797  1
  In  In41  1  0.80619014  0.48993888  0.64007444  1
  In  In42  1  0.63067688  0.33035945  0.67164546  1
  In  In43  1  0.53490787  0.16538470  0.02195384  1
  In  In44  1  0.35459607  0.83168088  0.17058844  1
  In  In45  1  0.85857887  0.15872837  0.66349179  1
  In  In46  1  0.20652465  0.33209763  0.18667098  1
  In  In47  1  -0.00425682  0.01791365  0.00944580  1
  In  In48  1  0.15575931  0.49905419  -0.02156596  1
  In  In49  1  0.82589534  0.68020424  0.47443361  1
  In  In50  1  -0.01595979  0.52054858  0.50197248  1
  In  In51  1  0.62693782  0.82633429  0.47248355  1
  In  In52  1  0.50508187  0.30312523  0.85656245  1
  In  In53  1  0.47327867  0.12451363  0.70069349  1
  In  In54  1  0.51094314  0.49777513  0.02084491  1
  In  In55  1  0.83057462  0.14796946  0.34037482  1
  In  In56  1  0.00889622  0.67129004  0.69307839  1
  In  In57  1  0.16401612  0.67704928  0.17467520  1
  In  In58  1  0.16820161  0.34118907  0.51798282  1
  In  In59  1  0.00564878  0.81396422  0.18629569  1
  In  In60  1  0.64422110  0.55708530  0.47444678  1
  In  In61  1  0.47198420  0.51382524  0.64135621  1
  In  In62  1  0.33421934  0.66299210  0.64740819  1
  In  In63  1  0.18294995  0.48666821  0.65034252  1
  In  In64  1  0.80938404  0.01748802  0.15608784  1
  In  In65  1  0.81717041  0.49605881  0.04295640  1
  In  In66  1  0.16944586  0.15644178  0.67348033  1
  In  In67  1  0.66023075  0.51101069  0.81713368  1
  In  In68  1  0.16065455  0.30358576  0.82771891  1
  In  In69  1  0.69660242  0.14389207  0.49878793  1
  In  In70  1  -0.00294011  0.47922856  0.84610538  1
  In  In71  1  0.29186333  0.69342209  0.00073209  1
  Te  Te72  1  0.10099541  0.08001916  0.10102737  1
  Te  Te73  1  0.07553618  0.08545125  0.42018632  1
  Te  Te74  1  0.08900407  0.06276534  0.75465098  1
  Te  Te75  1  0.09407422  0.41879855  0.09402690  1
  Te  Te76  1  0.08396983  0.42811524  0.42531725  1
  Te  Te77  1  0.08866404  0.40931368  0.74550052  1
  Te  Te78  1  0.08010932  0.74501708  0.06871744  1
  Te  Te79  1  0.07852336  0.73719707  0.41419968  1
  Te  Te80  1  0.10488320  0.78078107  0.73848171  1
  Te  Te81  1  0.41477342  0.07064271  0.09252394  1
  Te  Te82  1  0.40142389  0.08470799  0.40700292  1
  Te  Te83  1  0.40160127  0.00012543  0.75341494  1
  Te  Te84  1  0.41894187  0.40955705  0.10450923  1
  Te  Te85  1  0.46302220  0.44151445  0.37981469  1
  Te  Te86  1  0.44040165  0.40250662  0.74884911  1
  Te  Te87  1  0.42042519  0.72510716  0.07685632  1
  Te  Te88  1  0.49606877  0.74719634  0.45130475  1
  Te  Te89  1  0.41038037  0.75341645  0.74349981  1
  Te  Te90  1  0.73357740  0.07371597  0.04202810  1
  Te  Te91  1  0.73383722  0.04351236  0.39423416  1
  Te  Te92  1  0.74978515  0.10164845  0.75299792  1
  Te  Te93  1  0.71685771  0.39900035  0.09481556  1
  Te  Te94  1  0.74967510  0.45452881  0.42099688  1
  Te  Te95  1  0.74216924  0.40273961  0.74863875  1
  Te  Te96  1  0.76762761  0.73749784  0.08433767  1
  Te  Te97  1  0.73149818  0.75497263  0.38461191  1
  Te  Te98  1  0.72457025  0.76044167  0.75311680  1
  Te  Te99  1  0.07809005  0.25685038  0.24321484  1
  Te  Te100  1  0.08563131  0.24963537  0.59555270  1
  Te  Te101  1  0.07350196  0.25648450  0.94440666  1
  Te  Te102  1  0.09051794  0.59296981  0.26945192  1
  Te  Te103  1  0.09090827  0.59275371  0.58896114  1
  Te  Te104  1  0.07174925  0.59984990  0.90335804  1
  Te  Te105  1  0.09239227  0.91810609  0.24140295  1
  Te  Te106  1  0.09133595  0.91900838  0.58743119  1
  Te  Te107  1  0.06667589  0.92442699  0.91257892  1
  Te  Te108  1  0.44618600  0.25692358  0.24846770  1
  Te  Te109  1  0.42154111  0.25157856  0.59356520  1
  Te  Te110  1  0.42042635  0.19096007  0.91477578  1
  Te  Te111  1  0.41163799  0.62862653  0.28226600  1
  Te  Te112  1  0.42020403  0.60791269  0.53842685  1
  Te  Te113  1  0.40588734  0.56178512  0.92352050  1
  Te  Te114  1  0.44262374  0.89518401  0.27256559  1
  Te  Te115  1  0.37975917  0.89422091  0.55621093  1
  Te  Te116  1  0.46070343  0.94663902  0.90741152  1
  Te  Te117  1  0.73430312  0.22844150  0.25470399  1
  Te  Te118  1  0.74350269  0.25946301  0.58789414  1
  Te  Te119  1  0.67696402  0.21160639  0.97111602  1
  Te  Te120  1  0.71297938  0.54618672  0.24506119  1
  Te  Te121  1  0.73936403  0.61226600  0.58243228  1
  Te  Te122  1  0.74552634  0.58049023  0.92408201  1
  Te  Te123  1  0.72758557  0.90933765  0.21483862  1
  Te  Te124  1  0.73635734  0.90791230  0.56586963  1
  Te  Te125  1  0.71916503  0.91112847  0.90196946  1
  Te  Te126  1  0.26465791  0.24539963  0.07200782  1
  Te  Te127  1  0.25488844  0.26652124  0.40691698  1
  Te  Te128  1  0.27626876  0.22646783  0.76817466  1
  Te  Te129  1  0.24807224  0.57078276  0.08065242  1
  Te  Te130  1  0.25962031  0.54730288  0.44508954  1
  Te  Te131  1  0.23373883  0.59285923  0.75840991  1
  Te  Te132  1  0.25742758  0.91533218  0.08975500  1
  Te  Te133  1  0.27117767  0.90716310  0.41920269  1
  Te  Te134  1  0.27119939  0.93590288  0.78784516  1
  Te  Te135  1  0.59766745  0.28665749  0.08196431  1
  Te  Te136  1  0.60197482  0.25497036  0.42889324  1
  Te  Te137  1  0.58497459  0.21541284  0.75998053  1
  Te  Te138  1  0.58365962  0.58654152  0.12134640  1
  Te  Te139  1  0.56908783  0.64038335  0.37106773  1
  Te  Te140  1  0.56801986  0.59340601  0.73170152  1
  Te  Te141  1  0.60622292  0.89036535  0.10074805  1
  Te  Te142  1  0.55723547  0.93316410  0.39067628  1
  Te  Te143  1  0.58191216  0.92293846  0.74653956  1
  Te  Te144  1  0.88242056  0.23101833  0.07336143  1
  Te  Te145  1  0.92028318  0.23549044  0.42737908  1
  Te  Te146  1  0.91992369  0.26007708  0.75138452  1
  Te  Te147  1  0.92265212  0.59656157  0.07618673  1
  Te  Te148  1  0.90742999  0.58611678  0.39552267  1
  Te  Te149  1  0.90794879  0.56143735  0.74137941  1
  Te  Te150  1  0.91806741  0.91473285  0.08968854  1
  Te  Te151  1  0.90506579  0.89507628  0.39679800  1
  Te  Te152  1  0.90768081  0.93883084  0.72661711  1
  Te  Te153  1  0.26271583  0.06245368  0.25775211  1
  Te  Te154  1  0.26319739  0.06951292  0.59288784  1
  Te  Te155  1  0.23431382  0.05184284  0.89021471  1
  Te  Te156  1  0.25342033  0.45244618  0.26615299  1
  Te  Te157  1  0.29492459  0.43966413  0.55235742  1
  Te  Te158  1  0.25346402  0.40233375  0.90955356  1
  Te  Te159  1  0.26554273  0.74732263  0.26089164  1
  Te  Te160  1  0.25024252  0.76695817  0.58306850  1
  Te  Te161  1  0.28996583  0.80255578  0.89312071  1
  Te  Te162  1  0.59688275  0.09408984  0.23276466  1
  Te  Te163  1  0.57364444  0.09531806  0.57684895  1
  Te  Te164  1  0.61371872  0.06523400  0.94158027  1
  Te  Te165  1  0.58799992  0.45605649  0.27471898  1
  Te  Te166  1  0.58945566  0.43656306  0.56729221  1
  Te  Te167  1  0.58735346  0.41943138  0.91494986  1
  Te  Te168  1  0.64765645  0.77900030  0.24828671  1
  Te  Te169  1  0.57269795  0.74438757  0.58881755  1
  Te  Te170  1  0.57764941  0.75221574  0.91315275  1
  Te  Te171  1  0.92246869  0.06398777  0.25384227  1
  Te  Te172  1  0.93781012  0.07821393  0.57020765  1
  Te  Te173  1  0.90472804  0.09818538  0.91877115  1
  Te  Te174  1  0.90914838  0.42308816  0.25204781  1
  Te  Te175  1  0.91931270  0.40720872  0.58011973  1
  Te  Te176  1  0.88907111  0.41282473  0.93017548  1
  Te  Te177  1  0.90237669  0.74049742  0.26223849  1
  Te  Te178  1  0.92034579  0.74071542  0.59003119  1
  Te  Te179  1  0.90759130  0.75479125  0.90682227  1
