# generated using pymatgen
data_In2Te3
_symmetry_space_group_name_H-M   'P 1'
_cell_length_a   18.79249536
_cell_length_b   18.78988125
_cell_length_c   18.79897430
_cell_angle_alpha   90.03937539
_cell_angle_beta   90.05976410
_cell_angle_gamma   89.98904295
_symmetry_Int_Tables_number   1
_chemical_formula_structural   In2Te3
_chemical_formula_sum   'In72 Te108'
_cell_volume   6638.07713484
_cell_formula_units_Z   36
loop_
 _symmetry_equiv_pos_site_id
 _symmetry_equiv_pos_as_xyz
  1  'x, y, z'
loop_
 _atom_site_type_symbol
 _atom_site_label
 _atom_site_symmetry_multiplicity
 _atom_site_fract_x
 _atom_site_fract_y
 _atom_site_fract_z
 _atom_site_occupancy
  In  In0  1  0.80860861  -0.01069104  0.16993760  1
  In  In1  1  0.15958354  0.50496177  0.64015639  1
  In  In2  1  0.87879508  -0.03232834  0.48519158  1
  In  In3  1  0.16620134  0.33362336  0.50154359  1
  In  In4  1  0.17088513  0.67614600  0.83769506  1
  In  In5  1  0.32903448  -0.00270990  0.00146733  1
  In  In6  1  0.49931356  0.16407962  0.34038591  1
  In  In7  1  0.68742416  0.18045319  0.51163853  1
  In  In8  1  0.32567860  0.82062264  0.17580326  1
  In  In9  1  0.50072779  0.34079676  0.15251064  1
  In  In10  1  0.29353667  0.81522533  0.53407896  1
  In  In11  1  0.67160567  0.65118903  0.02168466  1
  In  In12  1  0.14288018  0.15930122  0.67090980  1
  In  In13  1  0.69780951  0.82660919  0.50138240  1
  In  In14  1  0.00079415  0.16785117  0.17260797  1
  In  In15  1  0.51125241  0.32946037  0.83630494  1
  In  In16  1  0.85011055  0.50716900  0.34040775  1
  In  In17  1  0.49735268  0.65642140  0.48840785  1
  In  In18  1  0.68073062  0.64909626  0.64823332  1
  In  In19  1  0.49803671  0.83647856  0.03335579  1
  In  In20  1  0.16911939  0.33440897  0.17191800  1
  In  In21  1  0.47679372  0.33043030  0.51780346  1
  In  In22  1  0.84491359  0.68484912  0.15903935  1
  In  In23  1  0.16180711  0.32996720  0.83310123  1
  In  In24  1  0.82880097  0.32475719  0.15562638  1
  In  In25  1  0.32542391  0.16262400  0.82369294  1
  In  In26  1  0.50905964  0.01610497  0.49734368  1
  In  In27  1  0.33902654  0.49462470  0.84198807  1
  In  In28  1  0.15994311  0.49643110  0.02410627  1
  In  In29  1  0.33135075  0.00004954  0.34662222  1
  In  In30  1  0.33099066  0.14779823  0.16586403  1
  In  In31  1  0.13980911  0.63780870  0.19649250  1
  In  In32  1  -0.03477077  0.49447542  0.79649788  1
  In  In33  1  0.49282112  0.16824905  -0.00435083  1
  In  In34  1  0.48794874  0.83872634  0.67917056  1
  In  In35  1  0.16908540  0.16749947  -0.00130114  1
  In  In36  1  0.32420739  0.34589709  0.35457155  1
  In  In37  1  -0.00470360  0.65364134  -0.00404339  1
  In  In38  1  0.83894268  0.84678697  0.66039135  1
  In  In39  1  0.14275427  -0.02385143  0.50394514  1
  In  In40  1  0.84713805  0.16921555  0.66287936  1
  In  In41  1  0.87048324  0.17541066  0.34372786  1
  In  In42  1  0.31505904  0.01950209  0.67538144  1
  In  In43  1  0.84846403  0.01257795  0.83920669  1
  In  In44  1  0.84004336  0.50796924  0.00027572  1
  In  In45  1  0.67821583  0.35268766  0.32121594  1
  In  In46  1  0.00610051  0.83014603  0.81786567  1
  In  In47  1  -0.01064082  0.01778289  0.00001581  1
  In  In48  1  0.67741430  -0.00890421  0.34348079  1
  In  In49  1  0.82636717  0.80001754  0.02108712  1
  In  In50  1  0.49283248  0.50379829  0.65875479  1
  In  In51  1  0.01991701  0.84825997  0.19978013  1
  In  In52  1  0.32300609  0.66794891  0.32489562  1
  In  In53  1  0.85442782  0.68327495  0.47374266  1
  In  In54  1  0.29442966  0.84689117  0.81408011  1
  In  In55  1  0.66450593  0.15026138  0.15277591  1
  In  In56  1  0.47111611  0.00919728  0.81284300  1
  In  In57  1  0.84300520  0.32889504  0.82001979  1
  In  In58  1  0.31411726  0.51550843  0.48899800  1
  In  In59  1  0.66374160  -0.00124716  0.00760128  1
  In  In60  1  0.67442595  0.46906025  0.83171808  1
  In  In61  1  0.66147026  0.50799742  0.16387039  1
  In  In62  1  0.47970833  0.67412016  0.83638996  1
  In  In63  1  0.17512051  0.82900232  -0.00201495  1
  In  In64  1  0.50416491  0.80391874  0.30827455  1
  In  In65  1  0.67880031  0.19304629  0.82045907  1
  In  In66  1  0.01133920  0.33219137  0.34688034  1
  In  In67  1  0.85678414  0.62990647  0.78578780  1
  In  In68  1  0.65555781  0.84625429  0.82726735  1
  In  In69  1  0.33630418  0.49893715  0.17659179  1
  In  In70  1  0.66149909  0.50216895  0.48868983  1
  In  In71  1  0.02167811  0.16434338  0.48891657  1
  Te  Te72  1  0.09514869  0.07434969  0.09433762  1
  Te  Te73  1  0.07388815  0.05837921  0.39457766  1
  Te  Te74  1  0.10018274  0.04347005  0.74892710  1
  Te  Te75  1  0.06675755  0.40610038  0.09271711  1
  Te  Te76  1  0.08264386  0.43392493  0.42856138  1
  Te  Te77  1  0.08096209  0.41205466  0.73365896  1
  Te  Te78  1  0.07754015  0.74716052  0.08411201  1
  Te  Te79  1  0.05385506  0.79820562  0.44080883  1
  Te  Te80  1  0.08993313  0.74313647  0.72960280  1
  Te  Te81  1  0.43437973  0.06422491  0.09014304  1
  Te  Te82  1  0.39903379  0.10481693  0.43795821  1
  Te  Te83  1  0.43316857  0.12428177  0.71454423  1
  Te  Te84  1  0.39960808  0.41272122  0.07413562  1
  Te  Te85  1  0.42756492  0.43753753  0.42077443  1
  Te  Te86  1  0.41360909  0.40551210  0.74278628  1
  Te  Te87  1  0.41548285  0.73337693  0.09768174  1
  Te  Te88  1  0.40347635  0.76187608  0.42799156  1
  Te  Te89  1  0.38486283  0.74529350  0.73974144  1
  Te  Te90  1  0.77226200  0.09311349  0.06119344  1
  Te  Te91  1  0.77245864  0.08196729  0.42263651  1
  Te  Te92  1  0.75007188  0.08114838  0.74572239  1
  Te  Te93  1  0.74043238  0.41591910  0.07068480  1
  Te  Te94  1  0.76979193  0.40972762  0.42751995  1
  Te  Te95  1  0.77276168  0.43062327  0.72635179  1
  Te  Te96  1  0.70912344  0.76713539  0.12022906  1
  Te  Te97  1  0.74114918  0.73766591  0.39341112  1
  Te  Te98  1  0.74848743  0.75408664  0.74488214  1
  Te  Te99  1  0.09961157  0.23687771  0.26708698  1
  Te  Te100  1  0.06467675  0.26623936  0.59428541  1
  Te  Te101  1  0.07406683  0.23693667  0.90868211  1
  Te  Te102  1  0.06072032  0.56762518  0.29844177  1
  Te  Te103  1  0.12122775  0.61431221  0.54367058  1
  Te  Te104  1  0.08111535  0.56997100  0.90260408  1
  Te  Te105  1  0.08845577  0.94627852  0.28465967  1
  Te  Te106  1  0.05192950  0.87632755  0.56947551  1
  Te  Te107  1  0.07750749  0.91663381  0.92086311  1
  Te  Te108  1  0.41243508  0.25579121  0.25302638  1
  Te  Te109  1  0.41412667  0.22338341  0.59296856  1
  Te  Te110  1  0.39982011  0.25727999  0.91718832  1
  Te  Te111  1  0.42462203  0.58669450  0.25771081  1
  Te  Te112  1  0.39748374  0.59977658  0.58859113  1
  Te  Te113  1  0.42621282  0.57549662  0.93079010  1
  Te  Te114  1  0.41844570  0.91697596  0.25134561  1
  Te  Te115  1  0.40211751  0.92443797  0.58480327  1
  Te  Te116  1  0.41661069  0.90340018  0.90871257  1
  Te  Te117  1  0.74659750  0.22872944  0.25887807  1
  Te  Te118  1  0.76480573  0.27350970  0.59604552  1
  Te  Te119  1  0.75204885  0.26936195  0.92112986  1
  Te  Te120  1  0.76116623  0.58718256  0.24665028  1
  Te  Te121  1  0.77621616  0.57823457  0.55838818  1
  Te  Te122  1  0.75406234  0.59296362  0.90371608  1
  Te  Te123  1  0.76474984  0.89377509  0.27396059  1
  Te  Te124  1  0.75318812  0.94276113  0.57875535  1
  Te  Te125  1  0.76350889  0.90922256  0.91935076  1
  Te  Te126  1  0.26360622  0.25490107  0.08076343  1
  Te  Te127  1  0.24248068  0.24006703  0.41589564  1
  Te  Te128  1  0.24735323  0.25434529  0.73132156  1
  Te  Te129  1  0.24506645  0.59939684  0.09424784  1
  Te  Te130  1  0.21897840  0.60744965  0.41623564  1
  Te  Te131  1  0.24473917  0.57203621  0.75172164  1
  Te  Te132  1  0.23933572  0.92312097  0.09964679  1
  Te  Te133  1  0.24137039  0.89646997  0.41666540  1
  Te  Te134  1  0.20282460  0.92861423  0.72554212  1
  Te  Te135  1  0.59565222  0.25601373  0.06699095  1
  Te  Te136  1  0.58757371  0.26384143  0.41476850  1
  Te  Te137  1  0.59573544  0.27224490  0.72883592  1
  Te  Te138  1  0.55853023  0.58139396  0.08527827  1
  Te  Te139  1  0.59991358  0.60173366  0.39862392  1
  Te  Te140  1  0.58478962  0.58889614  0.75211355  1
  Te  Te141  1  0.59071175  0.92244895  0.11021999  1
  Te  Te142  1  0.57583204  0.90127400  0.41988487  1
  Te  Te143  1  0.58681970  0.94221670  0.73235428  1
  Te  Te144  1  0.92336027  0.24668817  0.07522503  1
  Te  Te145  1  0.91561703  0.27115470  0.45147719  1
  Te  Te146  1  0.94207242  0.23875694  0.75422859  1
  Te  Te147  1  0.93217839  0.56915944  0.10530735  1
  Te  Te148  1  0.95627132  0.58566766  0.41585289  1
  Te  Te149  1  0.96316163  0.59780315  0.67922383  1
  Te  Te150  1  0.91919588  0.90603327  0.08609583  1
  Te  Te151  1  0.93406369  0.87081343  0.38201852  1
  Te  Te152  1  0.93499824  0.93881262  0.73680861  1
  Te  Te153  1  0.24090322  0.07663482  0.25688717  1
  Te  Te154  1  0.23094169  0.08619776  0.56750484  1
  Te  Te155  1  0.23717708  0.06702475  0.90223053  1
  Te  Te156  1  0.23324208  0.43358884  0.26913062  1
  Te  Te157  1  0.26790607  0.40951825  0.58785437  1
  Te  Te158  1  0.24600116  0.41062229  0.93100506  1
  Te  Te159  1  0.21523712  0.75578257  0.25993625  1
  Te  Te160  1  0.20648333  0.72607878  0.61295506  1
  Te  Te161  1  0.27613662  0.74088343  0.92796551  1
  Te  Te162  1  0.58096719  0.07012863  0.25270417  1
  Te  Te163  1  0.59114718  0.09752104  0.58805016  1
  Te  Te164  1  0.57968370  0.07845253  0.90555175  1
  Te  Te165  1  0.56591807  0.43101873  0.25797044  1
  Te  Te166  1  0.59088695  0.41139642  0.58844698  1
  Te  Te167  1  0.57161872  0.43029014  0.92777339  1
  Te  Te168  1  0.59210030  0.72966015  0.21893184  1
  Te  Te169  1  0.58128585  0.75353048  0.59065999  1
  Te  Te170  1  0.58761980  0.75243962  0.92595487  1
  Te  Te171  1  0.91684712  0.06533984  0.25032181  1
  Te  Te172  1  0.93693489  0.07420160  0.57771336  1
  Te  Te173  1  0.93462590  0.11619448  0.90256111  1
  Te  Te174  1  0.91863041  0.40545783  0.24863539  1
  Te  Te175  1  0.91201403  0.45576407  0.65330696  1
  Te  Te176  1  0.92757054  0.41346771  0.92218725  1
  Te  Te177  1  0.93520447  0.74345880  0.26429947  1
  Te  Te178  1  0.93262297  0.76193622  0.57786502  1
  Te  Te179  1  0.91161413  0.73889323  0.89980220  1
