# generated using pymatgen
data_In2Te3
_symmetry_space_group_name_H-M   'P 1'
_cell_length_a   18.78088219
_cell_length_b   18.78319732
_cell_length_c   18.78261501
_cell_angle_alpha   89.98821989
_cell_angle_beta   89.95972538
_cell_angle_gamma   89.94756738
_symmetry_Int_Tables_number   1
_chemical_formula_structural   In2Te3
_chemical_formula_sum   'In72 Te108'
_cell_volume   6625.84493315
_cell_formula_units_Z   36
loop_
 _symmetry_equiv_pos_site_id
 _symmetry_equiv_pos_as_xyz
  1  'x, y, z'
loop_
 _atom_site_type_symbol
 _atom_site_label
 _atom_site_symmetry_multiplicity
 _atom_site_fract_x
 _atom_site_fract_y
 _atom_site_fract_z
 _atom_site_occupancy
  In  In0  1  0.19303079  0.19434261  0.31441184  1
  In  In1  1  0.29938524  0.80806017  0.51304222  1
  In  In2  1  0.14634209  0.34014817  0.81400034  1
  In  In3  1  0.51079192  0.35733764  0.49121455  1
  In  In4  1  0.83694168  0.18311720  0.65346912  1
  In  In5  1  0.00147267  0.67018889  0.33542399  1
  In  In6  1  0.33233448  0.16983969  0.48026821  1
  In  In7  1  0.50335728  0.64990338  0.48905373  1
  In  In8  1  0.50902535  0.51500690  0.65967054  1
  In  In9  1  0.33549469  0.54783978  0.15505247  1
  In  In10  1  0.53007683  0.31931344  0.14046584  1
  In  In11  1  0.19285509  0.50551521  0.02334697  1
  In  In12  1  0.82968387  0.32374785  0.17507209  1
  In  In13  1  0.16887658  0.66895613  0.83031487  1
  In  In14  1  0.31869326  0.82188389  0.83911882  1
  In  In15  1  0.15875285  -0.01467705  0.50834752  1
  In  In16  1  0.33611367  0.15207007  0.84717835  1
  In  In17  1  0.49823741  0.52163285  -0.00399374  1
  In  In18  1  0.17150375  0.83896497  0.34358827  1
  In  In19  1  0.48799154  0.01689572  0.48549788  1
  In  In20  1  0.01228426  0.83377374  0.84724350  1
  In  In21  1  0.67585126  0.65512215  0.68888855  1
  In  In22  1  0.83580105  0.17198532  0.32308957  1
  In  In23  1  0.16080959  -0.01532659  0.15445318  1
  In  In24  1  0.35167772  0.52044728  0.86678231  1
  In  In25  1  0.65735776  0.16838762  0.84705443  1
  In  In26  1  0.82572964  -0.04402946  0.12019282  1
  In  In27  1  0.82318461  0.50433969  0.00821047  1
  In  In28  1  0.00704584  0.34291323  0.34662189  1
  In  In29  1  0.80348727  0.67763788  0.15338990  1
  In  In30  1  0.67240043  0.82798352  0.50813126  1
  In  In31  1  0.51970411  -0.01655955  0.15873284  1
  In  In32  1  0.67622507  0.01097499  0.30923915  1
  In  In33  1  0.84321328  0.85111929  0.32867454  1
  In  In34  1  0.00559901  0.12828336  0.15309261  1
  In  In35  1  0.01015891  0.18511288  0.49462357  1
  In  In36  1  -0.01344901  0.51019847  0.81419342  1
  In  In37  1  0.52410538  -0.00273202  0.87473754  1
  In  In38  1  0.66700122  0.50483552  0.16529204  1
  In  In39  1  -0.00440217  0.33383096  -0.02314491  1
  In  In40  1  0.64694439  0.65867572  0.32603088  1
  In  In41  1  -0.00283792  -0.00046117  0.34565210  1
  In  In42  1  0.33405107  0.66194242  0.33596292  1
  In  In43  1  0.37382061  0.81004833  0.15215605  1
  In  In44  1  0.19344160  0.32881442  0.15896658  1
  In  In45  1  0.15358622  0.51767312  0.35023803  1
  In  In46  1  0.15341164  0.52953977  0.64556037  1
  In  In47  1  0.66217754  0.49839391  0.81940887  1
  In  In48  1  0.51271741  0.82547773  0.30866991  1
  In  In49  1  0.83137214  0.50023312  0.65048582  1
  In  In50  1  0.68127507  0.17479874  0.48586957  1
  In  In51  1  0.80724767  0.15567597  -0.00346473  1
  In  In52  1  0.82897768  0.64731768  0.84145970  1
  In  In53  1  0.33829380  -0.01037486  0.00021722  1
  In  In54  1  0.50662239  0.32931242  0.83882026  1
  In  In55  1  0.49199548  0.17373629  0.68716933  1
  In  In56  1  0.82980255  0.81232667  0.66812471  1
  In  In57  1  0.00838727  0.50467366  0.19147057  1
  In  In58  1  -0.02191783  0.15388535  0.81942455  1
  In  In59  1  0.31233238  0.35771875  0.65496827  1
  In  In60  1  0.33603484  0.31543240  0.00904961  1
  In  In61  1  0.33234784  0.16852410  0.16726316  1
  In  In62  1  0.00641825  0.00042508  0.66203393  1
  In  In63  1  0.80750621  -0.02386568  0.86366185  1
  In  In64  1  0.48802921  0.83711307  0.69218870  1
  In  In65  1  0.13805062  0.16520359  0.66973627  1
  In  In66  1  0.01428102  0.68361056  -0.00699566  1
  In  In67  1  0.66689169  -0.01173085  0.67250847  1
  In  In68  1  0.31191983  -0.02614752  0.67942027  1
  In  In69  1  0.67699355  0.34724744  0.34879092  1
  In  In70  1  0.33867234  0.34381824  0.34808777  1
  In  In71  1  0.84622636  0.65487948  0.50409437  1
  Te  Te72  1  0.09191312  0.06663449  0.04973350  1
  Te  Te73  1  0.10091274  0.09626717  0.40559820  1
  Te  Te74  1  0.09322280  0.06112285  0.77225328  1
  Te  Te75  1  0.07775445  0.41141525  0.08394852  1
  Te  Te76  1  0.06305911  0.44208727  0.44314586  1
  Te  Te77  1  0.06473192  0.42290868  0.71582222  1
  Te  Te78  1  0.06763235  0.78953517  0.08279997  1
  Te  Te79  1  0.09668388  0.74104452  0.43004156  1
  Te  Te80  1  0.06036291  0.73167408  0.75174164  1
  Te  Te81  1  0.42469206  0.08230476  0.08361580  1
  Te  Te82  1  0.41885574  0.09874873  0.38464733  1
  Te  Te83  1  0.42774103  0.05413541  0.75707526  1
  Te  Te84  1  0.41002079  0.42417902  0.08512156  1
  Te  Te85  1  0.41654733  0.44556505  0.42008941  1
  Te  Te86  1  0.41250445  0.41819818  0.75833672  1
  Te  Te87  1  0.45223354  0.71348327  0.07003506  1
  Te  Te88  1  0.42525106  0.76659469  0.42163811  1
  Te  Te89  1  0.39438892  0.73659228  0.74244034  1
  Te  Te90  1  0.74714163  0.08079921  0.10872065  1
  Te  Te91  1  0.76792839  0.06990376  0.41655620  1
  Te  Te92  1  0.75531427  0.08332521  0.75463869  1
  Te  Te93  1  0.73809104  0.39928596  0.07921954  1
  Te  Te94  1  0.77584241  0.40052749  0.44408617  1
  Te  Te95  1  0.76479968  0.41649068  0.75303471  1
  Te  Te96  1  0.75213355  0.75966443  0.04026335  1
  Te  Te97  1  0.75235350  0.74557372  0.40725044  1
  Te  Te98  1  0.74044610  0.75942007  0.77888866  1
  Te  Te99  1  0.06905837  0.24690815  0.24030286  1
  Te  Te100  1  0.08843585  0.27342868  0.58377781  1
  Te  Te101  1  0.08531326  0.23479364  0.90488692  1
  Te  Te102  1  0.10588192  0.61082344  0.23609764  1
  Te  Te103  1  0.09569994  0.63523180  0.55445252  1
  Te  Te104  1  0.08269337  0.55769867  0.92186970  1
  Te  Te105  1  0.07028696  0.90523410  0.25019763  1
  Te  Te106  1  0.08780023  0.89369021  0.59766140  1
  Te  Te107  1  0.07537864  0.90129136  0.96527591  1
  Te  Te108  1  0.41799525  0.27092650  0.23917345  1
  Te  Te109  1  0.41418263  0.25573345  0.58380812  1
  Te  Te110  1  0.43708831  0.22989975  0.93137529  1
  Te  Te111  1  0.43392087  0.58871200  0.25549266  1
  Te  Te112  1  0.40807493  0.59298915  0.58604910  1
  Te  Te113  1  0.41775756  0.63648433  0.93637231  1
  Te  Te114  1  0.41148437  0.92201377  0.25013590  1
  Te  Te115  1  0.41627721  0.91633852  0.57944735  1
  Te  Te116  1  0.42802874  0.89079732  0.92525597  1
  Te  Te117  1  0.72371865  0.24107222  0.24678710  1
  Te  Te118  1  0.73373162  0.26744180  0.58759319  1
  Te  Te119  1  0.75863423  0.25912811  0.90435801  1
  Te  Te120  1  0.76151011  0.57629670  0.26060371  1
  Te  Te121  1  0.72772470  0.58128006  0.56805228  1
  Te  Te122  1  0.72139370  0.58733868  0.93166601  1
  Te  Te123  1  0.73579962  0.89551567  0.22897564  1
  Te  Te124  1  0.76772191  0.92360631  0.57860308  1
  Te  Te125  1  0.71738288  0.91162497  0.96784306  1
  Te  Te126  1  0.23078212  0.21763372  0.06174395  1
  Te  Te127  1  0.23182305  0.27689356  0.43582106  1
  Te  Te128  1  0.25837818  0.24315923  0.75093158  1
  Te  Te129  1  0.24623222  0.63529618  0.07190941  1
  Te  Te130  1  0.25322431  0.58852432  0.43613532  1
  Te  Te131  1  0.25621668  0.56754175  0.75750462  1
  Te  Te132  1  0.25964501  0.89031396  0.08462528  1
  Te  Te133  1  0.26946055  0.92808455  0.42070297  1
  Te  Te134  1  0.21652599  0.89437957  0.75727812  1
  Te  Te135  1  0.59226121  0.22691896  0.04586475  1
  Te  Te136  1  0.57170814  0.24524843  0.40761206  1
  Te  Te137  1  0.60145419  0.26521385  0.73812661  1
  Te  Te138  1  0.57770569  0.60426320  0.09610641  1
  Te  Te139  1  0.59463876  0.55713589  0.41971034  1
  Te  Te140  1  0.56027016  0.60432270  0.77428423  1
  Te  Te141  1  0.58299568  0.89140635  0.05822896  1
  Te  Te142  1  0.59164197  0.91866516  0.41391140  1
  Te  Te143  1  0.59698832  0.90283750  0.77701920  1
  Te  Te144  1  0.92407709  0.24473036  0.08250418  1
  Te  Te145  1  0.89826510  0.26501114  0.42552889  1
  Te  Te146  1  0.92921355  0.26432800  0.73532905  1
  Te  Te147  1  0.92618127  0.58722417  0.08568393  1
  Te  Te148  1  0.93074922  0.56593761  0.41762249  1
  Te  Te149  1  0.91704519  0.60787736  0.72105061  1
  Te  Te150  1  0.94939675  0.89490282  0.06188711  1
  Te  Te151  1  0.93245221  0.90162180  0.43509620  1
  Te  Te152  1  0.90825010  0.92147193  0.75708903  1
  Te  Te153  1  0.24970682  0.06962488  0.24913940  1
  Te  Te154  1  0.25318513  0.08980943  0.58784498  1
  Te  Te155  1  0.24657196  0.04791853  0.89852438  1
  Te  Te156  1  0.24728147  0.43454440  0.25190277  1
  Te  Te157  1  0.25066421  0.45267052  0.56054426  1
  Te  Te158  1  0.24733087  0.40417172  0.91336166  1
  Te  Te159  1  0.25945770  0.76018996  0.24762080  1
  Te  Te160  1  0.20922424  0.73123440  0.59980424  1
  Te  Te161  1  0.23601415  0.74443444  0.93936145  1
  Te  Te162  1  0.57273584  0.09269500  0.24488958  1
  Te  Te163  1  0.58262642  0.08614736  0.58713645  1
  Te  Te164  1  0.60136234  0.09072071  0.96582722  1
  Te  Te165  1  0.57785386  0.41492881  0.25058743  1
  Te  Te166  1  0.59727351  0.41639896  0.59485702  1
  Te  Te167  1  0.58939700  0.41760512  0.92977116  1
  Te  Te168  1  0.59647021  0.74604401  0.21654377  1
  Te  Te169  1  0.58144279  0.74722915  0.59892071  1
  Te  Te170  1  0.62254878  0.78121938  0.95446362  1
  Te  Te171  1  0.90008780  0.05718313  0.23820533  1
  Te  Te172  1  0.92051720  0.08581040  0.56909160  1
  Te  Te173  1  0.91190182  0.06767305  0.92791428  1
  Te  Te174  1  0.90233735  0.42270045  0.26476863  1
  Te  Te175  1  0.89773881  0.42808463  0.53839487  1
  Te  Te176  1  0.89630819  0.42111462  0.90091937  1
  Te  Te177  1  0.91077015  0.74783957  0.23819803  1
  Te  Te178  1  0.92660081  0.76121639  0.56892683  1
  Te  Te179  1  0.89965409  0.75709572  0.92190854  1
