# generated using pymatgen
data_In2Te3
_symmetry_space_group_name_H-M   'P 1'
_cell_length_a   18.77740472
_cell_length_b   18.78350061
_cell_length_c   18.77673777
_cell_angle_alpha   89.95938741
_cell_angle_beta   89.98434136
_cell_angle_gamma   90.02243370
_symmetry_Int_Tables_number   1
_chemical_formula_structural   In2Te3
_chemical_formula_sum   'In72 Te108'
_cell_volume   6622.65425569
_cell_formula_units_Z   36
loop_
 _symmetry_equiv_pos_site_id
 _symmetry_equiv_pos_as_xyz
  1  'x, y, z'
loop_
 _atom_site_type_symbol
 _atom_site_label
 _atom_site_symmetry_multiplicity
 _atom_site_fract_x
 _atom_site_fract_y
 _atom_site_fract_z
 _atom_site_occupancy
  In  In0  1  0.01207766  0.66462179  -0.02358728  1
  In  In1  1  0.82540884  0.84157294  0.34038734  1
  In  In2  1  0.15125569  0.17114153  0.67508494  1
  In  In3  1  0.51290292  0.35206044  0.84304106  1
  In  In4  1  0.33915232  0.66402065  -0.01357499  1
  In  In5  1  0.83273694  0.47690066  0.00513008  1
  In  In6  1  0.51901267  0.81521265  0.00612723  1
  In  In7  1  -0.00684578  0.82728770  0.50270838  1
  In  In8  1  0.49485605  0.00573841  0.83837490  1
  In  In9  1  0.84175210  0.50397212  0.67516070  1
  In  In10  1  -0.01630637  -0.00623186  -0.01217357  1
  In  In11  1  0.17835154  0.35257650  0.49794285  1
  In  In12  1  0.67124901  0.00507209  0.32113624  1
  In  In13  1  0.30313885  0.62394156  0.68555652  1
  In  In14  1  0.31162149  0.19155765  0.51424155  1
  In  In15  1  0.83542719  0.32585646  0.51062602  1
  In  In16  1  0.84914496  0.31862713  0.85699194  1
  In  In17  1  0.13688433  0.83119411  0.32214961  1
  In  In18  1  0.68772218  0.15751142  0.16827516  1
  In  In19  1  -0.01500964  0.17095468  0.17446824  1
  In  In20  1  0.65586969  0.18521487  0.49816281  1
  In  In21  1  0.00302657  0.33122221  0.01117036  1
  In  In22  1  0.32238554  0.34258849  0.66060810  1
  In  In23  1  0.83754078  0.67772401  0.82714643  1
  In  In24  1  0.30913135  0.82246019  0.47597903  1
  In  In25  1  0.02215270  0.14115600  0.47638391  1
  In  In26  1  0.03422794  0.63855275  0.65303723  1
  In  In27  1  0.66845112  0.33566122  0.65648778  1
  In  In28  1  0.17047368  0.17337419  -0.00825552  1
  In  In29  1  0.85258322  0.00129061  0.15210606  1
  In  In30  1  0.14748973  0.82440178  0.66765204  1
  In  In31  1  0.15683495  0.83512478  -0.00562735  1
  In  In32  1  0.16170004  0.34175581  0.84009212  1
  In  In33  1  0.51979850  0.81471518  0.65017929  1
  In  In34  1  0.01190202  0.32135749  0.33866421  1
  In  In35  1  0.82721977  0.00398111  0.50632460  1
  In  In36  1  0.32986861  0.82441010  0.13616419  1
  In  In37  1  0.34120578  0.16712259  0.18008834  1
  In  In38  1  0.32743182  0.01775956  0.65979208  1
  In  In39  1  0.32113535  -0.00072736  0.32097269  1
  In  In40  1  0.34257112  0.34399570  0.00503113  1
  In  In41  1  0.49883100  0.47688924  0.34933012  1
  In  In42  1  0.18231215  0.50285942  0.33887754  1
  In  In43  1  0.15769697  0.01493376  0.85317823  1
  In  In44  1  0.33340074  0.49788200  0.17927522  1
  In  In45  1  0.51432634  -0.02408226  0.14227407  1
  In  In46  1  0.32949635  0.83164349  0.84371753  1
  In  In47  1  0.50685545  0.19234054  0.34607910  1
  In  In48  1  0.82070720  0.32873118  0.16059385  1
  In  In49  1  0.49116973  0.65497136  0.83331489  1
  In  In50  1  0.69117396  -0.00428920  0.68176540  1
  In  In51  1  0.67834439  0.51324225  0.47939902  1
  In  In52  1  0.68539253  0.16512708  0.84283007  1
  In  In53  1  0.49589481  -0.00414912  0.49571222  1
  In  In54  1  0.65672778  0.50718102  0.84866061  1
  In  In55  1  0.34298793  0.64548826  0.34722261  1
  In  In56  1  -0.03221976  -0.02663425  0.69126470  1
  In  In57  1  0.50131523  0.33352315  0.17696841  1
  In  In58  1  0.01532345  0.49416450  0.15018065  1
  In  In59  1  -0.01603467  0.67200498  0.34582601  1
  In  In60  1  0.80033288  0.66498756  0.16492938  1
  In  In61  1  0.50395754  0.16147652  -0.00202542  1
  In  In62  1  0.83196644  0.52083519  0.32677536  1
  In  In63  1  0.16075350  -0.01425272  0.17837411  1
  In  In64  1  0.47368218  0.18807341  0.64199531  1
  In  In65  1  0.71256827  0.84417019  0.85021745  1
  In  In66  1  0.00066416  0.34266119  0.69012473  1
  In  In67  1  0.48853508  0.50755944  0.67166570  1
  In  In68  1  0.67283900  0.81702805  0.50182399  1
  In  In69  1  0.83594713  0.68697254  0.50626342  1
  In  In70  1  0.51865241  0.79310020  0.30230688  1
  In  In71  1  0.17865169  0.67705453  0.15742513  1
  Te  Te72  1  0.08025390  0.08031128  0.07852015  1
  Te  Te73  1  0.11490739  0.06488405  0.39373268  1
  Te  Te74  1  0.05994249  0.08116900  0.75712442  1
  Te  Te75  1  0.10941932  0.41508424  0.07049908  1
  Te  Te76  1  0.07153240  0.43388748  0.42045020  1
  Te  Te77  1  0.10772433  0.43708758  0.73547186  1
  Te  Te78  1  0.06994056  0.75792660  0.09243268  1
  Te  Te79  1  0.09344530  0.73587627  0.43302462  1
  Te  Te80  1  0.06089932  0.74424043  0.75533300  1
  Te  Te81  1  0.41056632  0.07348087  0.08175600  1
  Te  Te82  1  0.40348184  0.09138892  0.42163007  1
  Te  Te83  1  0.41002695  0.10156708  0.75508838  1
  Te  Te84  1  0.43657348  0.43585616  0.08334468  1
  Te  Te85  1  0.39896214  0.40336633  0.42815488  1
  Te  Te86  1  0.40208598  0.42356804  0.76449664  1
  Te  Te87  1  0.43220616  0.72176158  0.09471756  1
  Te  Te88  1  0.42994452  0.74830428  0.42250276  1
  Te  Te89  1  0.40959186  0.74991403  0.74265823  1
  Te  Te90  1  0.75694642  0.07777426  0.06612947  1
  Te  Te91  1  0.74964719  0.09715761  0.41263367  1
  Te  Te92  1  0.78126381  0.08843611  0.75596894  1
  Te  Te93  1  0.72870832  0.43123133  0.10197658  1
  Te  Te94  1  0.76002677  0.40730632  0.40606586  1
  Te  Te95  1  0.75127913  0.41218437  0.76035433  1
  Te  Te96  1  0.72687708  0.74724348  0.06288779  1
  Te  Te97  1  0.73976532  0.72806035  0.39482613  1
  Te  Te98  1  0.74034903  0.74959102  0.73993497  1
  Te  Te99  1  0.08701504  0.26428369  0.22634926  1
  Te  Te100  1  0.07572237  0.25961283  0.57523404  1
  Te  Te101  1  0.06555886  0.23974681  0.90403976  1
  Te  Te102  1  0.08414360  0.59643083  0.25445794  1
  Te  Te103  1  0.13331862  0.57605960  0.56113916  1
  Te  Te104  1  0.11602068  0.58480988  0.91107307  1
  Te  Te105  1  0.04724703  0.91762989  0.24386385  1
  Te  Te106  1  0.07325670  0.92828358  0.58572455  1
  Te  Te107  1  0.06457210  0.90139354  0.89385006  1
  Te  Te108  1  0.39913345  0.27347113  0.27390664  1
  Te  Te109  1  0.42472336  0.30306935  0.54589591  1
  Te  Te110  1  0.41816421  0.25085130  0.90960447  1
  Te  Te111  1  0.43745130  0.58551249  0.24717226  1
  Te  Te112  1  0.40198431  0.58759009  0.58218387  1
  Te  Te113  1  0.41951424  0.55954960  0.91875341  1
  Te  Te114  1  0.41939175  0.90585854  0.24947115  1
  Te  Te115  1  0.40515943  0.90940889  0.58365832  1
  Te  Te116  1  0.41837679  0.91390976  0.93386323  1
  Te  Te117  1  0.75321973  0.24710584  0.26397571  1
  Te  Te118  1  0.76086617  0.22732135  0.60123964  1
  Te  Te119  1  0.73342531  0.27018909  0.93477603  1
  Te  Te120  1  0.71987976  0.55806640  0.23437985  1
  Te  Te121  1  0.75085404  0.59172414  0.59102929  1
  Te  Te122  1  0.75935494  0.58611474  0.92659370  1
  Te  Te123  1  0.74476372  0.91083884  0.23166430  1
  Te  Te124  1  0.76709476  0.89431112  0.59379525  1
  Te  Te125  1  0.79437096  0.94906123  0.92347604  1
  Te  Te126  1  0.25241710  0.25520508  0.09132025  1
  Te  Te127  1  0.23493251  0.25294443  0.40493016  1
  Te  Te128  1  0.25402329  0.24650703  0.75702070  1
  Te  Te129  1  0.24802516  0.57388312  0.07525026  1
  Te  Te130  1  0.24666465  0.58729571  0.44710912  1
  Te  Te131  1  0.20558373  0.56836685  0.78245556  1
  Te  Te132  1  0.25100846  0.93267189  0.06594677  1
  Te  Te133  1  0.22082201  0.93179384  0.41695185  1
  Te  Te134  1  0.24553192  0.92351454  0.75146513  1
  Te  Te135  1  0.59094987  0.24750153  0.08766108  1
  Te  Te136  1  0.59172497  0.28986720  0.41681660  1
  Te  Te137  1  0.57905359  0.24497272  0.74470062  1
  Te  Te138  1  0.61456423  0.64818418  0.07959028  1
  Te  Te139  1  0.57636303  0.59133747  0.40701363  1
  Te  Te140  1  0.59575359  0.59296391  0.73913722  1
  Te  Te141  1  0.62043345  0.90683836  0.06710302  1
  Te  Te142  1  0.58503325  0.90901514  0.40746009  1
  Te  Te143  1  0.58197891  0.91076892  0.75398009  1
  Te  Te144  1  0.89804520  0.23595946  0.06648886  1
  Te  Te145  1  0.91427242  0.23397922  0.41538446  1
  Te  Te146  1  0.91087176  0.24167362  0.74779723  1
  Te  Te147  1  0.91493203  0.58838029  0.08412464  1
  Te  Te148  1  0.91840628  0.57518119  0.44240193  1
  Te  Te149  1  0.93753907  0.57893835  0.76361568  1
  Te  Te150  1  0.91146383  0.89096186  0.06927696  1
  Te  Te151  1  0.92528117  0.93064680  0.41325145  1
  Te  Te152  1  0.87212776  0.91317411  0.79076202  1
  Te  Te153  1  0.22406699  0.10176579  0.25959784  1
  Te  Te154  1  0.22200145  0.08085259  0.57245356  1
  Te  Te155  1  0.26679054  0.08978230  0.91663181  1
  Te  Te156  1  0.24375023  0.40390484  0.24962461  1
  Te  Te157  1  0.23686917  0.45028412  0.59767582  1
  Te  Te158  1  0.25176745  0.42765490  0.92154258  1
  Te  Te159  1  0.26508894  0.75812130  0.26110222  1
  Te  Te160  1  0.25717372  0.74693515  0.59733822  1
  Te  Te161  1  0.22912006  0.73402361  0.90375909  1
  Te  Te162  1  0.55948854  0.08417433  0.24969059  1
  Te  Te163  1  0.58340483  0.07519091  0.59233362  1
  Te  Te164  1  0.60207713  0.06733297  0.92724512  1
  Te  Te165  1  0.59553508  0.42698636  0.24493316  1
  Te  Te166  1  0.58672375  0.43419901  0.57822949  1
  Te  Te167  1  0.58905989  0.42208621  0.94845435  1
  Te  Te168  1  0.61809997  0.74017057  0.20434938  1
  Te  Te169  1  0.58202198  0.71544348  0.56178184  1
  Te  Te170  1  0.59477227  0.74860687  0.89212808  1
  Te  Te171  1  0.91001856  0.08093951  0.26356901  1
  Te  Te172  1  0.92999224  0.08279513  0.58547692  1
  Te  Te173  1  0.88890595  0.06927500  0.90148591  1
  Te  Te174  1  0.92120219  0.42070130  0.24744517  1
  Te  Te175  1  0.92962911  0.42389687  0.57993482  1
  Te  Te176  1  0.94135206  0.42885538  0.90882902  1
  Te  Te177  1  0.90482703  0.75064683  0.24435279  1
  Te  Te178  1  0.92700525  0.74637765  0.61299604  1
  Te  Te179  1  0.90405007  0.75738312  0.93523078  1
