# generated using pymatgen
data_In2Te3
_symmetry_space_group_name_H-M   'P 1'
_cell_length_a   18.79165222
_cell_length_b   18.79793320
_cell_length_c   18.78096006
_cell_angle_alpha   89.96624541
_cell_angle_beta   90.00132058
_cell_angle_gamma   90.07141064
_symmetry_Int_Tables_number   1
_chemical_formula_structural   In2Te3
_chemical_formula_sum   'In72 Te108'
_cell_volume   6634.25934080
_cell_formula_units_Z   36
loop_
 _symmetry_equiv_pos_site_id
 _symmetry_equiv_pos_as_xyz
  1  'x, y, z'
loop_
 _atom_site_type_symbol
 _atom_site_label
 _atom_site_symmetry_multiplicity
 _atom_site_fract_x
 _atom_site_fract_y
 _atom_site_fract_z
 _atom_site_occupancy
  In  In0  1  0.86309216  0.83936631  -0.00943282  1
  In  In1  1  0.32354581  0.50459917  0.19604034  1
  In  In2  1  0.49906589  -0.00234356  0.83582529  1
  In  In3  1  0.01095484  0.81018574  0.48667784  1
  In  In4  1  0.66601551  0.80936990  0.51811116  1
  In  In5  1  -0.00807850  0.00507863  0.67147467  1
  In  In6  1  0.65250561  0.16766800  0.81091503  1
  In  In7  1  0.82946737  0.37024399  0.50586480  1
  In  In8  1  0.48779624  0.65054085  0.49657871  1
  In  In9  1  0.66250847  0.83423655  0.17437687  1
  In  In10  1  0.47185436  -0.00467150  0.50019069  1
  In  In11  1  0.82160271  0.34927228  0.77847455  1
  In  In12  1  0.51215607  0.49310573  0.00878801  1
  In  In13  1  0.67499601  0.20173348  0.16489589  1
  In  In14  1  0.64277410  0.62857299  0.33554657  1
  In  In15  1  0.66049014  0.33322955  0.00029959  1
  In  In16  1  0.35318623  0.33145710  0.65527094  1
  In  In17  1  0.00939825  0.65222906  0.64974232  1
  In  In18  1  0.16075441  0.33023158  0.48646856  1
  In  In19  1  0.48154024  0.84080835  0.35166734  1
  In  In20  1  0.00554734  0.02576208  0.01740850  1
  In  In21  1  0.02044260  0.35076428  -0.00836346  1
  In  In22  1  0.47699854  0.01073666  0.16918846  1
  In  In23  1  0.32426324  0.51519410  0.48206550  1
  In  In24  1  0.85018538  -0.00647433  0.85698183  1
  In  In25  1  0.68480534  0.01562137  0.34527848  1
  In  In26  1  0.82728996  0.15775712  -0.00303020  1
  In  In27  1  0.83298454  0.65354571  0.17885152  1
  In  In28  1  0.02297629  0.84587000  0.16324081  1
  In  In29  1  0.31635772  0.02512744  0.31301517  1
  In  In30  1  0.84982067  0.34411212  0.18828491  1
  In  In31  1  0.32156278  -0.00791612  0.02135347  1
  In  In32  1  0.84822995  0.63110680  0.50716467  1
  In  In33  1  0.67126290  0.03210285  -0.00115462  1
  In  In34  1  0.16656367  0.34104031  0.15704539  1
  In  In35  1  0.65700710  0.00109131  0.67691138  1
  In  In36  1  0.47757477  0.82187643  0.01362220  1
  In  In37  1  0.00200449  0.35327765  0.34863178  1
  In  In38  1  0.66169092  0.80401631  0.82272208  1
  In  In39  1  -0.00180095  0.82532752  0.83482169  1
  In  In40  1  0.33717645  0.30907935  -0.00637786  1
  In  In41  1  0.02406167  0.01356900  0.32275280  1
  In  In42  1  0.16452637  0.36936647  0.80887231  1
  In  In43  1  0.47546219  0.64657104  0.15751170  1
  In  In44  1  0.51590165  0.18806055  0.34824273  1
  In  In45  1  0.15641668  0.52030678  0.66361950  1
  In  In46  1  0.01428575  0.50033148  0.82181230  1
  In  In47  1  0.17909413  0.80991478  0.64902048  1
  In  In48  1  0.81757326  0.01372510  0.51141122  1
  In  In49  1  0.83760638  0.82751629  0.35178950  1
  In  In50  1  0.51239291  0.35398331  0.19228251  1
  In  In51  1  0.83893332  0.50730589  0.01340136  1
  In  In52  1  0.33575821  0.49283882  0.80779671  1
  In  In53  1  0.02023905  0.65481083  0.34997696  1
  In  In54  1  0.17275395  0.01635648  0.49480502  1
  In  In55  1  0.34559269  0.16252689  0.84047621  1
  In  In56  1  0.17679420  -0.01591244  0.80783142  1
  In  In57  1  0.32092242  0.81110825  0.49582933  1
  In  In58  1  0.17420621  0.82407421  0.00427935  1
  In  In59  1  0.15201819  0.17792522  0.01483147  1
  In  In60  1  0.83629219  0.64354721  0.82332423  1
  In  In61  1  0.67204768  0.64785391  0.00560102  1
  In  In62  1  0.66225374  0.19752866  0.48196741  1
  In  In63  1  0.15515549  0.50474202  0.01928966  1
  In  In64  1  0.33538808  0.32858260  0.35615811  1
  In  In65  1  0.01005076  0.17279494  0.17179736  1
  In  In66  1  0.31887465  0.66487964  -0.00383112  1
  In  In67  1  0.84191365  0.18280706  0.64323188  1
  In  In68  1  0.50054876  0.17622522  0.65816414  1
  In  In69  1  0.16979940  0.17373932  0.63699959  1
  In  In70  1  0.65722497  0.64222715  0.65452990  1
  In  In71  1  0.47089991  0.67335447  0.79423120  1
  Te  Te72  1  0.11648445  0.06364609  0.11841831  1
  Te  Te73  1  0.09294186  0.10923402  0.41245904  1
  Te  Te74  1  0.08878394  0.09280304  0.74787873  1
  Te  Te75  1  0.05560166  0.43718568  0.11262808  1
  Te  Te76  1  0.07444692  0.44635368  0.44467764  1
  Te  Te77  1  0.05690675  0.40530528  0.70693340  1
  Te  Te78  1  0.07295997  0.74055221  0.07359929  1
  Te  Te79  1  0.12143216  0.75876700  0.39978481  1
  Te  Te80  1  0.08777419  0.73670776  0.75092076  1
  Te  Te81  1  0.41535302  0.09677030  0.06753961  1
  Te  Te82  1  0.40684295  0.09889018  0.41410224  1
  Te  Te83  1  0.41349068  0.07506987  0.73471825  1
  Te  Te84  1  0.40196681  0.41866079  0.08828621  1
  Te  Te85  1  0.42712861  0.42490209  0.42310818  1
  Te  Te86  1  0.44131758  0.42217644  0.73390599  1
  Te  Te87  1  0.38106533  0.75456591  0.10969767  1
  Te  Te88  1  0.39873654  0.72051544  0.39338039  1
  Te  Te89  1  0.37631074  0.77580620  0.75441284  1
  Te  Te90  1  0.75861260  0.08370971  0.11187427  1
  Te  Te91  1  0.77441813  0.11989414  0.41024809  1
  Te  Te92  1  0.76524748  0.07979135  0.75376999  1
  Te  Te93  1  0.74950517  0.41431966  0.09472692  1
  Te  Te94  1  0.73969403  0.38795914  0.38293129  1
  Te  Te95  1  0.72439925  0.44751869  0.72800328  1
  Te  Te96  1  0.75482748  0.75569771  0.07842630  1
  Te  Te97  1  0.74461765  0.72546512  0.41669495  1
  Te  Te98  1  0.75926010  0.73621602  0.72929757  1
  Te  Te99  1  0.09204427  0.25943482  0.26417507  1
  Te  Te100  1  0.06573275  0.25656957  0.57522569  1
  Te  Te101  1  0.09665978  0.25991646  0.89829286  1
  Te  Te102  1  0.12304680  0.59840160  0.25577744  1
  Te  Te103  1  0.08235271  0.57501741  0.54398040  1
  Te  Te104  1  0.09979185  0.58397293  0.90717612  1
  Te  Te105  1  0.10537934  0.90065394  0.27276940  1
  Te  Te106  1  0.08132987  0.91343530  0.58456313  1
  Te  Te107  1  0.07546651  0.92818993  0.91806616  1
  Te  Te108  1  0.41693479  0.24968131  0.25036656  1
  Te  Te109  1  0.42967451  0.25459479  0.55499397  1
  Te  Te110  1  0.43359529  0.27105702  0.88962935  1
  Te  Te111  1  0.44212217  0.55546558  0.26857755  1
  Te  Te112  1  0.39861930  0.58074183  0.59353330  1
  Te  Te113  1  0.42000764  0.58052435  0.91892379  1
  Te  Te114  1  0.39503789  0.90820751  0.24585100  1
  Te  Te115  1  0.41621146  0.88820130  0.58246529  1
  Te  Te116  1  0.40171773  0.91145508  0.91709056  1
  Te  Te117  1  0.75336050  0.26556170  0.27591798  1
  Te  Te118  1  0.72601615  0.27141808  0.60115616  1
  Te  Te119  1  0.75112187  0.25287553  0.90433779  1
  Te  Te120  1  0.75312525  0.56246409  0.26242412  1
  Te  Te121  1  0.72529288  0.55200486  0.55064808  1
  Te  Te122  1  0.74015126  0.55721548  0.90516286  1
  Te  Te123  1  0.76137299  0.91836933  0.25471364  1
  Te  Te124  1  0.75135693  0.90785493  0.59883783  1
  Te  Te125  1  0.73141591  0.91199725  0.91581369  1
  Te  Te126  1  0.26381374  0.23426577  0.10590488  1
  Te  Te127  1  0.24767248  0.22830079  0.42290013  1
  Te  Te128  1  0.25367897  0.25663283  0.75337544  1
  Te  Te129  1  0.23799215  0.59760197  0.10847776  1
  Te  Te130  1  0.23288832  0.57399750  0.37141036  1
  Te  Te131  1  0.24734379  0.59601789  0.75229647  1
  Te  Te132  1  0.24188487  0.90363731  0.10861127  1
  Te  Te133  1  0.25569002  0.92170369  0.40917362  1
  Te  Te134  1  0.27305364  0.89472428  0.73556782  1
  Te  Te135  1  0.55922734  0.25415191  0.08341807  1
  Te  Te136  1  0.57898065  0.30593285  0.41804403  1
  Te  Te137  1  0.57503685  0.27265684  0.74306895  1
  Te  Te138  1  0.59921368  0.56676006  0.11118972  1
  Te  Te139  1  0.58573784  0.54835098  0.44775659  1
  Te  Te140  1  0.57827147  0.57932869  0.76339831  1
  Te  Te141  1  0.57774711  0.92070071  0.07926298  1
  Te  Te142  1  0.59976214  0.91262963  0.42249858  1
  Te  Te143  1  0.56792530  0.89646832  0.74352673  1
  Te  Te144  1  0.91957112  0.25853011  0.07242454  1
  Te  Te145  1  0.91385014  0.27056606  0.43459381  1
  Te  Te146  1  0.91931456  0.24291579  0.75411591  1
  Te  Te147  1  0.93328353  0.59348936  0.08686299  1
  Te  Te148  1  0.91581685  0.55614355  0.39778280  1
  Te  Te149  1  0.90449996  0.55687634  0.71555177  1
  Te  Te150  1  0.91249022  0.93513044  0.09732275  1
  Te  Te151  1  0.92106416  0.92736601  0.43050332  1
  Te  Te152  1  0.90346119  0.90314653  0.74488887  1
  Te  Te153  1  0.22934100  0.10037568  0.22269402  1
  Te  Te154  1  0.26557768  0.06979958  0.59713180  1
  Te  Te155  1  0.23688075  0.08300200  0.91758873  1
  Te  Te156  1  0.23190845  0.41233171  0.27631750  1
  Te  Te157  1  0.24954749  0.41883104  0.58492189  1
  Te  Te158  1  0.25084458  0.42090672  0.93101814  1
  Te  Te159  1  0.23944988  0.70379431  0.29573076  1
  Te  Te160  1  0.24767814  0.70464465  0.57018718  1
  Te  Te161  1  0.25358884  0.75585898  0.89906445  1
  Te  Te162  1  0.58691992  0.08551920  0.25009095  1
  Te  Te163  1  0.59230930  0.07967560  0.56302017  1
  Te  Te164  1  0.56432645  0.10623767  0.92176840  1
  Te  Te165  1  0.62472718  0.40234916  0.27662606  1
  Te  Te166  1  0.65583111  0.41459687  0.59880927  1
  Te  Te167  1  0.58596004  0.41838886  0.90581782  1
  Te  Te168  1  0.57155175  0.74792738  0.25864117  1
  Te  Te169  1  0.55609485  0.74479546  0.59799097  1
  Te  Te170  1  0.57103376  0.73462797  0.92800453  1
  Te  Te171  1  0.91810092  0.08944397  0.25114179  1
  Te  Te172  1  0.93760880  0.09579142  0.56159292  1
  Te  Te173  1  0.93935439  0.10681431  0.90559067  1
  Te  Te174  1  0.92568517  0.44997255  0.26143612  1
  Te  Te175  1  0.90621851  0.43164086  0.61798793  1
  Te  Te176  1  0.91213910  0.41504820  0.90393156  1
  Te  Te177  1  0.92902786  0.75073648  0.25736602  1
  Te  Te178  1  0.90898381  0.74907389  0.58161550  1
  Te  Te179  1  0.92741562  0.71942945  0.92031362  1
