# generated using pymatgen
data_In2Te3
_symmetry_space_group_name_H-M   'P 1'
_cell_length_a   18.82905893
_cell_length_b   18.82659894
_cell_length_c   18.82779240
_cell_angle_alpha   90.03952057
_cell_angle_beta   89.90201507
_cell_angle_gamma   90.01507802
_symmetry_Int_Tables_number   1
_chemical_formula_structural   In2Te3
_chemical_formula_sum   'In72 Te108'
_cell_volume   6674.19872009
_cell_formula_units_Z   36
loop_
 _symmetry_equiv_pos_site_id
 _symmetry_equiv_pos_as_xyz
  1  'x, y, z'
loop_
 _atom_site_type_symbol
 _atom_site_label
 _atom_site_symmetry_multiplicity
 _atom_site_fract_x
 _atom_site_fract_y
 _atom_site_fract_z
 _atom_site_occupancy
  In  In0  1  0.32932902  0.69082070  0.67069152  1
  In  In1  1  0.83630638  0.00260285  0.50143307  1
  In  In2  1  0.13718092  0.69550821  0.14416442  1
  In  In3  1  0.36328618  0.48591400  0.14624455  1
  In  In4  1  0.32645426  0.67298633  0.34722058  1
  In  In5  1  0.84137532  -0.01638526  0.14969871  1
  In  In6  1  0.14877327  -0.01405956  0.15215877  1
  In  In7  1  0.66810273  0.35172014  0.30663357  1
  In  In8  1  0.79677801  0.34933374  0.14080753  1
  In  In9  1  0.67065912  0.68355156  0.30778979  1
  In  In10  1  0.30760800  0.16113598  0.82245596  1
  In  In11  1  0.30390443  0.13613882  0.50965076  1
  In  In12  1  0.00669726  0.84051132  0.83999419  1
  In  In13  1  0.33470742  0.30721840  0.66545345  1
  In  In14  1  0.65865231  0.00270018  0.36513663  1
  In  In15  1  0.84322185  0.82402630  0.67052457  1
  In  In16  1  0.85258855  0.32262859  0.47437680  1
  In  In17  1  0.00657891  0.68987224  0.68073487  1
  In  In18  1  0.83433455  0.31191678  0.85728391  1
  In  In19  1  -0.00267566  0.50851127  0.82972268  1
  In  In20  1  0.31616443  -0.03584047  0.34121132  1
  In  In21  1  0.49490065  0.68534459  0.47924023  1
  In  In22  1  0.63008738  0.83491828  0.16798490  1
  In  In23  1  -0.00137156  0.52794421  0.15994300  1
  In  In24  1  0.82657848  0.50215293  0.67815540  1
  In  In25  1  0.68731095  0.16448270  0.16628239  1
  In  In26  1  -0.00103174  0.16030503  0.15396458  1
  In  In27  1  0.64808022  0.01627697  0.69497404  1
  In  In28  1  0.35285251  0.83050938  0.16813827  1
  In  In29  1  0.85252208  0.50873736  0.34913261  1
  In  In30  1  0.49787779  0.66876610  0.83681841  1
  In  In31  1  0.16894753  0.15314693  0.00938289  1
  In  In32  1  0.34138326  0.17692984  0.17621944  1
  In  In33  1  0.19300460  0.33820688  0.16759720  1
  In  In34  1  0.67496132  0.17277398  0.84770849  1
  In  In35  1  0.33325120  0.50285996  0.85919702  1
  In  In36  1  0.48968512  0.52268219  0.65937520  1
  In  In37  1  0.83019097  0.16364000  0.66266544  1
  In  In38  1  0.64941896  0.65518203  0.01506141  1
  In  In39  1  0.46522564  -0.03514673  0.51468139  1
  In  In40  1  0.49639677  0.16608670  0.31986930  1
  In  In41  1  0.83167477  0.67128968  0.16289457  1
  In  In42  1  0.18181451  0.51409544  0.30047935  1
  In  In43  1  0.50768781  0.18029555  0.01031247  1
  In  In44  1  0.48580528  0.15041846  0.65860099  1
  In  In45  1  0.15066824  0.68011148  0.83810314  1
  In  In46  1  0.49710128  0.50316261  0.33900033  1
  In  In47  1  -0.02394815  0.12573163  0.85522419  1
  In  In48  1  0.68358113  0.68163849  0.65782369  1
  In  In49  1  0.14248401  0.68909335  0.49036818  1
  In  In50  1  0.02887872  0.32954417  0.65966955  1
  In  In51  1  0.03063802  -0.02073350  0.66600949  1
  In  In52  1  0.33090111  0.01600515  0.00173749  1
  In  In53  1  0.65757726  0.82891821  0.50753593  1
  In  In54  1  0.66931894  0.17803750  0.49476457  1
  In  In55  1  0.18229438  0.31955753  0.49754341  1
  In  In56  1  0.01223597  -0.01092813  0.33550968  1
  In  In57  1  0.85530894  0.84105313  -0.00893079  1
  In  In58  1  -0.00285353  0.51093084  0.48223108  1
  In  In59  1  0.32243093  0.66888351  -0.00876522  1
  In  In60  1  0.00206476  0.33425554  -0.00436062  1
  In  In61  1  -0.01644368  0.33320611  0.34241181  1
  In  In62  1  0.49882407  0.83885904  0.00401477  1
  In  In63  1  0.65346074  0.49486479  0.87342972  1
  In  In64  1  0.19180247  0.50344249  -0.02154483  1
  In  In65  1  0.84621550  0.84082319  0.32383750  1
  In  In66  1  0.51449741  0.34266840  0.84234532  1
  In  In67  1  0.49993421  -0.01058682  0.83581086  1
  In  In68  1  0.16040940  0.14970649  0.34605450  1
  In  In69  1  0.17616875  0.47543181  0.66512009  1
  In  In70  1  0.65996746  0.50228794  0.53928120  1
  In  In71  1  0.63698514  0.36913497  0.65832738  1
  Te  Te72  1  0.05640114  0.05855905  0.05615471  1
  Te  Te73  1  0.09565215  0.05651064  0.44139767  1
  Te  Te74  1  0.08316881  0.07060705  0.77047510  1
  Te  Te75  1  0.09155726  0.42068973  0.08777081  1
  Te  Te76  1  0.09423006  0.41807962  0.40495966  1
  Te  Te77  1  0.09544603  0.40553716  0.77465299  1
  Te  Te78  1  0.07148465  0.78735951  0.04476572  1
  Te  Te79  1  0.10937845  0.79169399  0.38742236  1
  Te  Te80  1  0.11233066  0.78392022  0.73295612  1
  Te  Te81  1  0.42911992  0.07962838  0.09660095  1
  Te  Te82  1  0.41245401  0.07254694  0.41113658  1
  Te  Te83  1  0.40053581  0.06377695  0.74666405  1
  Te  Te84  1  0.42615898  0.42491600  0.02870807  1
  Te  Te85  1  0.42204866  0.43113472  0.44073647  1
  Te  Te86  1  0.41800102  0.41759166  0.74709706  1
  Te  Te87  1  0.42861548  0.72845380  0.08251868  1
  Te  Te88  1  0.39907076  0.78093507  0.41873062  1
  Te  Te89  1  0.40354678  0.76304471  0.77520072  1
  Te  Te90  1  0.76330832  0.08047524  0.06585325  1
  Te  Te91  1  0.76783123  0.10131404  0.40706998  1
  Te  Te92  1  0.76607037  0.07681283  0.76988533  1
  Te  Te93  1  0.71850448  0.45649546  0.07571493  1
  Te  Te94  1  0.74361216  0.42125343  0.42868030  1
  Te  Te95  1  0.74400176  0.40726149  0.76619739  1
  Te  Te96  1  0.74086177  0.76749579  0.08397711  1
  Te  Te97  1  0.75346766  0.75619967  0.41391256  1
  Te  Te98  1  0.74368830  0.76580115  0.76188746  1
  Te  Te99  1  0.09098681  0.24920900  0.24077738  1
  Te  Te100  1  0.09625021  0.22872260  0.57621627  1
  Te  Te101  1  0.07745632  0.23147389  0.91471238  1
  Te  Te102  1  0.07336896  0.61162190  0.26194680  1
  Te  Te103  1  0.08043479  0.57459869  0.59860265  1
  Te  Te104  1  0.07430347  0.58990171  0.93433475  1
  Te  Te105  1  0.09513722  0.89172985  0.25577194  1
  Te  Te106  1  0.12285199  0.92494032  0.56016692  1
  Te  Te107  1  0.10038139  0.89359986  0.94054294  1
  Te  Te108  1  0.44259855  0.27275289  0.22942006  1
  Te  Te109  1  0.41398261  0.23492556  0.55668984  1
  Te  Te110  1  0.42056253  0.23621768  0.89838403  1
  Te  Te111  1  0.41227481  0.59025516  0.24755095  1
  Te  Te112  1  0.40116928  0.59984998  0.56661700  1
  Te  Te113  1  0.44138248  0.57086547  0.94129679  1
  Te  Te114  1  0.42354732  0.93411264  0.24511506  1
  Te  Te115  1  0.36827724  0.90485452  0.61008487  1
  Te  Te116  1  0.39721310  0.90901400  0.91450642  1
  Te  Te117  1  0.77450882  0.25324740  0.25767513  1
  Te  Te118  1  0.74515112  0.26943386  0.59164075  1
  Te  Te119  1  0.73581818  0.25765907  0.95213262  1
  Te  Te120  1  0.75491599  0.57038963  0.24941279  1
  Te  Te121  1  0.77693781  0.59763574  0.57042165  1
  Te  Te122  1  0.75038526  0.59036499  0.92697475  1
  Te  Te123  1  0.73763774  0.92176821  0.25456642  1
  Te  Te124  1  0.73764923  0.92901448  0.59158698  1
  Te  Te125  1  0.77498008  0.94639083  0.92657098  1
  Te  Te126  1  0.26919533  0.25411750  0.06559235  1
  Te  Te127  1  0.26922627  0.24237882  0.39841555  1
  Te  Te128  1  0.22216671  0.23411859  0.72589810  1
  Te  Te129  1  0.24246422  0.58327993  0.09904312  1
  Te  Te130  1  0.23401450  0.58043758  0.42656710  1
  Te  Te131  1  0.24740163  0.57971911  0.75467415  1
  Te  Te132  1  0.25489156  0.90680659  0.07730744  1
  Te  Te133  1  0.20855720  0.90866827  0.42818580  1
  Te  Te134  1  0.24770323  0.91677448  0.70614853  1
  Te  Te135  1  0.57529695  0.25402014  0.12191194  1
  Te  Te136  1  0.58457794  0.26210183  0.40136983  1
  Te  Te137  1  0.58160035  0.23987693  0.73863121  1
  Te  Te138  1  0.60801648  0.55915117  0.12025291  1
  Te  Te139  1  0.60439909  0.59061119  0.42400905  1
  Te  Te140  1  0.59932245  0.57880435  0.74922631  1
  Te  Te141  1  0.58692820  0.93605977  0.07095430  1
  Te  Te142  1  0.56051499  0.89738082  0.41211335  1
  Te  Te143  1  0.58235507  0.89905611  0.75211456  1
  Te  Te144  1  0.90473998  0.25319981  0.07992807  1
  Te  Te145  1  0.94557870  0.21936302  0.42713253  1
  Te  Te146  1  0.92574760  0.24888947  0.75111035  1
  Te  Te147  1  0.91074058  0.59367210  0.06377929  1
  Te  Te148  1  0.92969386  0.61901530  0.40912706  1
  Te  Te149  1  0.90331382  0.60558417  0.75961190  1
  Te  Te150  1  0.94354633  0.87959967  0.10903453  1
  Te  Te151  1  0.92918807  0.90198216  0.43597323  1
  Te  Te152  1  0.91553062  0.92732251  0.75429226  1
  Te  Te153  1  0.24415650  0.07439505  0.24053384  1
  Te  Te154  1  0.24842034  0.03549368  0.60800709  1
  Te  Te155  1  0.22542127  0.05838709  0.90035036  1
  Te  Te156  1  0.28608335  0.41125894  0.26222410  1
  Te  Te157  1  0.27644846  0.41618859  0.56782556  1
  Te  Te158  1  0.25252155  0.38929696  0.90845403  1
  Te  Te159  1  0.24738507  0.74687670  0.23950533  1
  Te  Te160  1  0.25492653  0.75804345  0.56091593  1
  Te  Te161  1  0.24882999  0.76571303  0.90876110  1
  Te  Te162  1  0.59271853  0.07316225  0.24757858  1
  Te  Te163  1  0.57967996  0.07157922  0.55978667  1
  Te  Te164  1  0.58541837  0.07688593  0.92635243  1
  Te  Te165  1  0.57233001  0.43542654  0.22655201  1
  Te  Te166  1  0.53271185  0.40934903  0.55050504  1
  Te  Te167  1  0.58169881  0.39876029  0.96471403  1
  Te  Te168  1  0.54968574  0.74500046  0.25230039  1
  Te  Te169  1  0.56181278  0.75383170  0.60012458  1
  Te  Te170  1  0.59344549  0.75837010  0.91461334  1
  Te  Te171  1  0.91726039  0.07342190  0.24874484  1
  Te  Te172  1  0.93193865  0.07947262  0.59116804  1
  Te  Te173  1  0.88624329  0.04989925  0.94849278  1
  Te  Te174  1  0.91537350  0.41711739  0.23534508  1
  Te  Te175  1  0.92053208  0.41656541  0.58824416  1
  Te  Te176  1  0.90590776  0.42907192  0.92455242  1
  Te  Te177  1  0.93099404  0.76179925  0.23009581  1
  Te  Te178  1  0.93277261  0.75851989  0.57372199  1
  Te  Te179  1  0.91674282  0.74033387  0.90199418  1
