# generated using pymatgen
data_In2Te3
_symmetry_space_group_name_H-M   'P 1'
_cell_length_a   18.97440864
_cell_length_b   18.96339640
_cell_length_c   18.98229623
_cell_angle_alpha   89.96649855
_cell_angle_beta   90.12705608
_cell_angle_gamma   90.00455110
_symmetry_Int_Tables_number   1
_chemical_formula_structural   In2Te3
_chemical_formula_sum   'In72 Te108'
_cell_volume   6830.17727758
_cell_formula_units_Z   36
loop_
 _symmetry_equiv_pos_site_id
 _symmetry_equiv_pos_as_xyz
  1  'x, y, z'
loop_
 _atom_site_type_symbol
 _atom_site_label
 _atom_site_symmetry_multiplicity
 _atom_site_fract_x
 _atom_site_fract_y
 _atom_site_fract_z
 _atom_site_occupancy
  In  In0  1  0.49707779  0.68656963  0.16645915  1
  In  In1  1  0.51253786  0.01211228  0.49929700  1
  In  In2  1  0.81011471  0.15634342  -0.01585399  1
  In  In3  1  0.18409965  0.47566725  0.64797980  1
  In  In4  1  0.18813671  0.34443889  0.84752858  1
  In  In5  1  0.18166655  0.16345062  0.02604428  1
  In  In6  1  0.32797677  -0.03006367  0.01049890  1
  In  In7  1  0.17077958  0.83662112  0.34239328  1
  In  In8  1  0.33674489  0.81981918  0.85456480  1
  In  In9  1  0.50103405  -0.01855413  0.14270444  1
  In  In10  1  -0.00738951  0.49982029  0.49159363  1
  In  In11  1  0.31586640  0.34867225  0.36229231  1
  In  In12  1  0.50816133  0.50824103  -0.00150245  1
  In  In13  1  0.16445592  0.83003431  0.68314340  1
  In  In14  1  0.00760231  -0.01439898  0.00369325  1
  In  In15  1  0.83364680  0.49828779  0.34532931  1
  In  In16  1  0.51370612  0.83236354  -0.01723983  1
  In  In17  1  -0.00712970  -0.01262548  0.34144965  1
  In  In18  1  0.34750666  0.15269141  0.84012775  1
  In  In19  1  0.50590035  0.29871339  0.14707519  1
  In  In20  1  0.32881381  0.16179082  0.17398441  1
  In  In21  1  0.14295710  0.02487908  0.52536844  1
  In  In22  1  0.16811806  0.66513023  0.51203269  1
  In  In23  1  0.67199617  0.84643965  0.83748526  1
  In  In24  1  0.35309474  0.00332892  0.31815267  1
  In  In25  1  0.66955632  0.00560533  0.32110824  1
  In  In26  1  -0.02030653  0.16004128  0.49527780  1
  In  In27  1  0.01441631  0.33456278  0.34465943  1
  In  In28  1  -0.01271125  0.80775200  0.48797854  1
  In  In29  1  0.67295579  0.35205871  0.66603941  1
  In  In30  1  -0.00319805  0.16210806  0.83569139  1
  In  In31  1  0.00756125  0.84167205  0.82762855  1
  In  In32  1  0.04336274  0.76986789  0.15591908  1
  In  In33  1  0.82527880  0.81782053  0.00799586  1
  In  In34  1  0.32496304  0.65600208  -0.00576211  1
  In  In35  1  0.66400139  0.31383126  0.31916496  1
  In  In36  1  0.34959986  -0.01621405  0.66700035  1
  In  In37  1  0.49617933  0.16289401  0.34763556  1
  In  In38  1  0.15571273  0.51633953  0.01026377  1
  In  In39  1  0.85744392  0.35200126  0.50184933  1
  In  In40  1  0.48693824  0.65267664  0.50626963  1
  In  In41  1  0.31552990  0.48017342  0.17651216  1
  In  In42  1  0.15356494  0.19089851  0.65589402  1
  In  In43  1  0.48541765  0.48848554  0.65594851  1
  In  In44  1  0.81093491  0.14391975  0.69404776  1
  In  In45  1  -0.01170188  0.59072517  0.13374092  1
  In  In46  1  0.66217902  0.84477480  0.49095702  1
  In  In47  1  0.64685603  0.67973006  0.32736270  1
  In  In48  1  0.51085552  0.82291024  0.70316621  1
  In  In49  1  0.01302093  0.34948433  0.01888271  1
  In  In50  1  -0.00729429  0.51317099  0.83395055  1
  In  In51  1  0.66669607  0.52054199  0.84170276  1
  In  In52  1  -0.01048427  -0.00638986  0.69047252  1
  In  In53  1  0.33543977  0.29623684  0.00598882  1
  In  In54  1  0.83954406  0.00024226  0.14794270  1
  In  In55  1  -0.00238707  0.36326062  0.63228601  1
  In  In56  1  0.33197421  0.50931467  0.82146676  1
  In  In57  1  0.47637968  0.20090224  0.64658302  1
  In  In58  1  0.68213950  0.63242722  0.64174177  1
  In  In59  1  0.82687286  0.32744286  0.18502941  1
  In  In60  1  0.33888264  0.82446221  0.47440399  1
  In  In61  1  0.49578017  0.49131760  0.34117318  1
  In  In62  1  0.00010294  0.18093956  0.17915210  1
  In  In63  1  0.51985647  0.36314416  0.82641842  1
  In  In64  1  0.85226109  0.81535069  0.31985327  1
  In  In65  1  0.30921086  0.67097136  0.32922589  1
  In  In66  1  0.82714710  0.84208704  0.64802097  1
  In  In67  1  0.67510726  0.17628567  0.48409383  1
  In  In68  1  0.83367843  0.68606960  0.84335664  1
  In  In69  1  0.54087951  0.13302092  -0.01645024  1
  In  In70  1  0.85935500  0.32404567  0.82788208  1
  In  In71  1  0.67482497  0.50099120  0.14531163  1
  Te  Te72  1  0.08301875  0.07767213  0.09951025  1
  Te  Te73  1  0.08233828  0.09300910  0.40495363  1
  Te  Te74  1  0.09490033  0.08288782  0.75176952  1
  Te  Te75  1  0.06506313  0.45293672  0.11327902  1
  Te  Te76  1  0.09580471  0.44374559  0.40487215  1
  Te  Te77  1  0.08120869  0.40220445  0.75813190  1
  Te  Te78  1  0.13876239  0.80344785  0.04173397  1
  Te  Te79  1  0.08220452  0.72738322  0.40358446  1
  Te  Te80  1  0.05580753  0.74386565  0.72805059  1
  Te  Te81  1  0.41507105  0.09374996  0.07020467  1
  Te  Te82  1  0.39778627  0.08901327  0.43506578  1
  Te  Te83  1  0.43747280  0.08308275  0.74113620  1
  Te  Te84  1  0.42287408  0.41381605  0.08147623  1
  Te  Te85  1  0.40138126  0.44049436  0.43990241  1
  Te  Te86  1  0.39819330  0.39804145  0.74436628  1
  Te  Te87  1  0.40863258  0.75857492  0.06766720  1
  Te  Te88  1  0.43174889  0.73924614  0.39296476  1
  Te  Te89  1  0.40101578  0.74060996  0.74862709  1
  Te  Te90  1  0.73605694  0.08864758  0.09173894  1
  Te  Te91  1  0.75599433  0.07705379  0.41519590  1
  Te  Te92  1  0.72199250  0.06537221  0.77808640  1
  Te  Te93  1  0.76544728  0.40741850  0.07945286  1
  Te  Te94  1  0.74125557  0.40252525  0.41627585  1
  Te  Te95  1  0.75730802  0.42472425  0.76782399  1
  Te  Te96  1  0.79458926  0.72046807  0.11517166  1
  Te  Te97  1  0.75118067  0.74915038  0.41415500  1
  Te  Te98  1  0.73731300  0.74161655  0.73298326  1
  Te  Te99  1  0.09972458  0.25038974  0.25987844  1
  Te  Te100  1  0.07644679  0.26609899  0.54782383  1
  Te  Te101  1  0.09257829  0.24828991  0.92528159  1
  Te  Te102  1  0.08618487  0.64536703  0.22807631  1
  Te  Te103  1  0.07923479  0.57245178  0.59275566  1
  Te  Te104  1  0.06905486  0.59896029  0.92665896  1
  Te  Te105  1  0.06640417  0.89475938  0.24988055  1
  Te  Te106  1  0.06525764  0.90820359  0.58288302  1
  Te  Te107  1  0.10119674  0.92221065  0.90970368  1
  Te  Te108  1  0.40954075  0.26359655  0.26177848  1
  Te  Te109  1  0.37417581  0.26559118  0.56051154  1
  Te  Te110  1  0.44159063  0.25240473  0.90881909  1
  Te  Te111  1  0.41804318  0.57701148  0.24056166  1
  Te  Te112  1  0.39242009  0.58571374  0.59539901  1
  Te  Te113  1  0.42897890  0.59339569  0.90174831  1
  Te  Te114  1  0.41114606  0.90377643  0.22967020  1
  Te  Te115  1  0.43432864  0.90101550  0.57188414  1
  Te  Te116  1  0.42898596  0.93122664  0.90476564  1
  Te  Te117  1  0.74564692  0.22075912  0.24299591  1
  Te  Te118  1  0.76848705  0.25298944  0.58778801  1
  Te  Te119  1  0.75029269  0.24219716  0.88099185  1
  Te  Te120  1  0.73903674  0.57871771  0.25787151  1
  Te  Te121  1  0.77417747  0.55953774  0.55481567  1
  Te  Te122  1  0.75128859  0.59996130  0.93448773  1
  Te  Te123  1  0.76157530  0.91031454  0.24415857  1
  Te  Te124  1  0.73759901  0.93491722  0.57815877  1
  Te  Te125  1  0.74128930  0.92401219  0.94530130  1
  Te  Te126  1  0.23415349  0.27487503  0.11390950  1
  Te  Te127  1  0.25022028  0.25904970  0.46233019  1
  Te  Te128  1  0.25551837  0.24316368  0.75906048  1
  Te  Te129  1  0.24390722  0.59497665  0.10697554  1
  Te  Te130  1  0.26511399  0.58285502  0.43673879  1
  Te  Te131  1  0.22268812  0.57344571  0.74980635  1
  Te  Te132  1  0.23903612  0.89658168  0.10121061  1
  Te  Te133  1  0.23587671  0.93130926  0.44175685  1
  Te  Te134  1  0.25534637  0.91858284  0.76402491  1
  Te  Te135  1  0.60856801  0.23290166  0.06768871  1
  Te  Te136  1  0.56683121  0.26819284  0.42846906  1
  Te  Te137  1  0.58379993  0.25493690  0.74283792  1
  Te  Te138  1  0.59129324  0.60813003  0.07551457  1
  Te  Te139  1  0.58992629  0.57601139  0.42409841  1
  Te  Te140  1  0.57658423  0.58211446  0.73796042  1
  Te  Te141  1  0.60291249  0.89168313  0.08602125  1
  Te  Te142  1  0.56899631  0.91851441  0.39527096  1
  Te  Te143  1  0.60467504  0.93089871  0.73433066  1
  Te  Te144  1  0.91718724  0.24150417  0.06618168  1
  Te  Te145  1  0.90204304  0.24831910  0.40072134  1
  Te  Te146  1  0.93814429  0.24607647  0.72162405  1
  Te  Te147  1  0.86074974  0.59813010  0.05889182  1
  Te  Te148  1  0.89399129  0.59701960  0.43839923  1
  Te  Te149  1  0.90236191  0.59380574  0.75140947  1
  Te  Te150  1  0.93392337  0.89208019  0.09707314  1
  Te  Te151  1  0.89621736  0.91361619  0.43033445  1
  Te  Te152  1  0.88768926  0.91601695  0.76843890  1
  Te  Te153  1  0.24379442  0.06916215  0.24698497  1
  Te  Te154  1  0.25488425  0.08775856  0.60417598  1
  Te  Te155  1  0.25070948  0.07453436  0.92590448  1
  Te  Te156  1  0.22436542  0.43435003  0.28139539  1
  Te  Te157  1  0.25637839  0.37030543  0.57573380  1
  Te  Te158  1  0.26575008  0.42939294  0.94541682  1
  Te  Te159  1  0.26503701  0.78196190  0.24180673  1
  Te  Te160  1  0.25925425  0.75977251  0.58762731  1
  Te  Te161  1  0.22827524  0.73678040  0.91461975  1
  Te  Te162  1  0.56493951  0.08376486  0.24180002  1
  Te  Te163  1  0.58610560  0.10889306  0.58700338  1
  Te  Te164  1  0.63221771  0.04964592  0.90478964  1
  Te  Te165  1  0.57917868  0.41012462  0.23360072  1
  Te  Te166  1  0.58169680  0.41631907  0.57286331  1
  Te  Te167  1  0.60901689  0.41400234  0.93686088  1
  Te  Te168  1  0.59655513  0.77647865  0.22768667  1
  Te  Te169  1  0.58489246  0.74601062  0.58095312  1
  Te  Te170  1  0.59319564  0.74100291  0.90109176  1
  Te  Te171  1  0.91253093  0.08156315  0.25376777  1
  Te  Te172  1  0.90341906  0.07384067  0.59483292  1
  Te  Te173  1  0.91293235  0.06653509  0.91451769  1
  Te  Te174  1  0.92426383  0.41994547  0.25417155  1
  Te  Te175  1  0.87835860  0.45775929  0.61200973  1
  Te  Te176  1  0.91544436  0.42220858  0.92924522  1
  Te  Te177  1  0.91818687  0.71089654  0.23382325  1
  Te  Te178  1  0.91826178  0.73852524  0.59639747  1
  Te  Te179  1  0.93830623  0.75331682  0.93090456  1
