# generated using pymatgen
data_In2Te3
_symmetry_space_group_name_H-M   'P 1'
_cell_length_a   19.03873054
_cell_length_b   19.01772487
_cell_length_c   19.00326329
_cell_angle_alpha   90.10925508
_cell_angle_beta   90.10351727
_cell_angle_gamma   90.23294796
_symmetry_Int_Tables_number   1
_chemical_formula_structural   In2Te3
_chemical_formula_sum   'In72 Te108'
_cell_volume   6880.49429532
_cell_formula_units_Z   36
loop_
 _symmetry_equiv_pos_site_id
 _symmetry_equiv_pos_as_xyz
  1  'x, y, z'
loop_
 _atom_site_type_symbol
 _atom_site_label
 _atom_site_symmetry_multiplicity
 _atom_site_fract_x
 _atom_site_fract_y
 _atom_site_fract_z
 _atom_site_occupancy
  In  In0  1  0.17797576  0.84759109  0.01190966  1
  In  In1  1  0.50017389  0.13699097  0.30570402  1
  In  In2  1  0.52839602  0.15852601  0.67865717  1
  In  In3  1  0.13884896  0.15147770  0.02336989  1
  In  In4  1  0.82207743  0.15243798  0.69355243  1
  In  In5  1  0.65964816  0.83364595  0.19363961  1
  In  In6  1  0.33746078  0.18523136  0.47023791  1
  In  In7  1  0.51772348  0.67926756  0.85182454  1
  In  In8  1  0.64445858  0.28896829  0.31048990  1
  In  In9  1  0.67026250  0.69044670  0.03267963  1
  In  In10  1  0.34947532  0.01703248  0.19938078  1
  In  In11  1  0.68771783  -0.02767142  0.01122956  1
  In  In12  1  0.31632937  0.34677203  0.31931412  1
  In  In13  1  0.48672706  0.66186904  0.15032028  1
  In  In14  1  0.15628715  0.01996246  0.83861093  1
  In  In15  1  0.83573467  0.51877853  -0.01169608  1
  In  In16  1  0.82925731  0.82665863  0.65907177  1
  In  In17  1  0.31668314  0.31239087  -0.00007790  1
  In  In18  1  0.41354406  0.86184511  0.38939864  1
  In  In19  1  -0.01662165  0.14976762  0.88428668  1
  In  In20  1  0.64987292  0.50993932  0.84311907  1
  In  In21  1  -0.00031003  0.50110628  0.48374611  1
  In  In22  1  0.17908927  0.81621419  0.67743543  1
  In  In23  1  0.46557486  0.34049212  0.85190689  1
  In  In24  1  0.00480682  0.00829987  0.63889061  1
  In  In25  1  0.64074106  0.83592109  0.43366266  1
  In  In26  1  0.34078363  0.80671876  0.16279328  1
  In  In27  1  0.35050430  0.00352777  0.65977267  1
  In  In28  1  0.02420339  -0.00810848  0.32724887  1
  In  In29  1  -0.03335842  0.12542240  0.15002595  1
  In  In30  1  0.17201643  0.48393556  0.65468865  1
  In  In31  1  0.66328565  0.68586667  0.64834736  1
  In  In32  1  0.32953654  0.33990220  0.68776643  1
  In  In33  1  0.15129212  0.68171567  0.16579023  1
  In  In34  1  -0.01143909  0.69852766  -0.03082456  1
  In  In35  1  0.00920200  0.51514816  0.81383607  1
  In  In36  1  0.83559420  0.31206398  0.95754161  1
  In  In37  1  0.68586264  0.49021228  0.50730787  1
  In  In38  1  0.21764502  -0.00108345  0.36662864  1
  In  In39  1  0.86202548  0.70164662  0.20629467  1
  In  In40  1  0.32742323  0.50524231  0.16152945  1
  In  In41  1  0.15992574  0.67850461  0.80926639  1
  In  In42  1  -0.06785838  0.91472140  0.87335847  1
  In  In43  1  0.66456177  0.16292190  0.51781635  1
  In  In44  1  -0.00807507  0.34957432  0.31188543  1
  In  In45  1  0.14037753  0.31694460  0.16287257  1
  In  In46  1  0.48706911  0.51513421  0.00021143  1
  In  In47  1  0.15203448  0.67996251  0.47362548  1
  In  In48  1  0.47642542  0.35189264  0.51855879  1
  In  In49  1  0.51347337  0.29453826  0.14582115  1
  In  In50  1  0.81229713  0.01232778  0.49740690  1
  In  In51  1  0.53134423  -0.04500032  0.87356429  1
  In  In52  1  0.16819516  0.17906201  0.65967167  1
  In  In53  1  0.34924129  0.86158922  0.86589844  1
  In  In54  1  0.70273392  0.14547854  0.13854944  1
  In  In55  1  -0.01216802  0.31576012  0.69088106  1
  In  In56  1  0.84591905  0.50975828  0.32739460  1
  In  In57  1  0.34898768  0.65932825  0.67061594  1
  In  In58  1  0.68293002  0.65813833  0.33211715  1
  In  In59  1  0.51758885  0.49954482  0.29581509  1
  In  In60  1  0.50125152  0.83585831  0.64753248  1
  In  In61  1  0.18341063  0.48712685  0.01153617  1
  In  In62  1  0.31018030  0.52605080  0.50642966  1
  In  In63  1  0.04240773  0.85316895  0.48504407  1
  In  In64  1  0.81159778  0.52176385  0.68209038  1
  In  In65  1  0.34280671  0.13758275  0.83582316  1
  In  In66  1  -0.01126919  0.67783915  0.66720169  1
  In  In67  1  0.85326660  0.35722156  0.49914459  1
  In  In68  1  0.68056077  -0.00717282  0.68475731  1
  In  In69  1  0.00580542  0.50999950  0.14608396  1
  In  In70  1  0.65868308  0.32971936  0.67817952  1
  In  In71  1  0.83336022  0.17511732  0.34857900  1
  Te  Te72  1  0.07804128  0.03923692  0.09889857  1
  Te  Te73  1  0.10275524  0.06626742  0.42690133  1
  Te  Te74  1  0.06032133  0.09806223  0.75158751  1
  Te  Te75  1  0.06911900  0.40263780  0.06016198  1
  Te  Te76  1  0.08467597  0.41729129  0.40331426  1
  Te  Te77  1  0.09487117  0.40434074  0.75699120  1
  Te  Te78  1  0.06406792  0.77213656  0.07739563  1
  Te  Te79  1  0.06099032  0.75082653  0.37814655  1
  Te  Te80  1  0.05759704  0.77821592  0.75929817  1
  Te  Te81  1  0.44771350  0.06789910  0.10089389  1
  Te  Te82  1  0.43090847  0.08168972  0.42251976  1
  Te  Te83  1  0.44997719  0.05440360  0.76379115  1
  Te  Te84  1  0.41351062  0.40552528  0.08917825  1
  Te  Te85  1  0.42721858  0.42134804  0.39325179  1
  Te  Te86  1  0.42232777  0.43333725  0.74912327  1
  Te  Te87  1  0.41957109  0.74690653  0.05332115  1
  Te  Te88  1  0.44643711  0.71953567  0.36591147  1
  Te  Te89  1  0.41091588  0.77086951  0.75734193  1
  Te  Te90  1  0.77915487  0.01188535  0.12730889  1
  Te  Te91  1  0.72066757  0.08656237  0.39996230  1
  Te  Te92  1  0.71298629  0.10276935  0.77895692  1
  Te  Te93  1  0.75700324  0.40587721  0.03731268  1
  Te  Te94  1  0.75115449  0.40568031  0.39884021  1
  Te  Te95  1  0.74492887  0.41716519  0.76794530  1
  Te  Te96  1  0.77012157  0.77703115  0.10750127  1
  Te  Te97  1  0.76624805  0.75437375  0.40851915  1
  Te  Te98  1  0.74545767  0.75050925  0.75054060  1
  Te  Te99  1  0.04865447  0.22949400  0.24078410  1
  Te  Te100  1  0.07360192  0.26146877  0.58666476  1
  Te  Te101  1  0.08617778  0.24439171  0.92423009  1
  Te  Te102  1  0.06728839  0.59413420  0.24771975  1
  Te  Te103  1  0.08638289  0.59244609  0.59052199  1
  Te  Te104  1  0.08990005  0.59180105  0.91949670  1
  Te  Te105  1  0.06932994  0.86624596  0.26263759  1
  Te  Te106  1  0.12312544  0.92808237  0.58942379  1
  Te  Te107  1  0.07947059  0.92155538  0.92101435  1
  Te  Te108  1  0.41824126  0.24965443  0.25373982  1
  Te  Te109  1  0.42265419  0.24025935  0.60875781  1
  Te  Te110  1  0.41979549  0.22140350  0.93595628  1
  Te  Te111  1  0.40000672  0.59178559  0.26214900  1
  Te  Te112  1  0.42543550  0.58471088  0.57138151  1
  Te  Te113  1  0.41124796  0.59730823  0.90834036  1
  Te  Te114  1  0.43269700  0.89888086  0.24109559  1
  Te  Te115  1  0.39409378  0.89857132  0.56707162  1
  Te  Te116  1  0.41411904  0.95171577  0.96340656  1
  Te  Te117  1  0.76756595  0.25047002  0.23600999  1
  Te  Te118  1  0.76153514  0.26483370  0.58711380  1
  Te  Te119  1  0.78664381  0.17939815  1.01083014  1
  Te  Te120  1  0.76093240  0.58568369  0.22715745  1
  Te  Te121  1  0.76452998  0.60539381  0.56647504  1
  Te  Te122  1  0.73522207  0.60827616  0.92013253  1
  Te  Te123  1  0.72955716  0.88030079  0.31679525  1
  Te  Te124  1  0.73272681  0.90526138  0.56867308  1
  Te  Te125  1  0.77723847  0.91785789  0.90209934  1
  Te  Te126  1  0.24785437  0.22962561  0.10423573  1
  Te  Te127  1  0.23310443  0.25593283  0.39880180  1
  Te  Te128  1  0.25168204  0.23953747  0.77047197  1
  Te  Te129  1  0.25162154  0.60371625  0.07717923  1
  Te  Te130  1  0.23034889  0.58195429  0.39976288  1
  Te  Te131  1  0.25026620  0.57383550  0.74904073  1
  Te  Te132  1  0.25204008  0.92196896  0.11822988  1
  Te  Te133  1  0.26179974  0.85952634  0.38004137  1
  Te  Te134  1  0.25247316  0.93084532  0.75983233  1
  Te  Te135  1  0.60834118  0.22943365  0.05737021  1
  Te  Te136  1  0.57894824  0.26368011  0.44327530  1
  Te  Te137  1  0.57634327  0.25763414  0.78093002  1
  Te  Te138  1  0.59318996  0.57304129  0.09183485  1
  Te  Te139  1  0.59451145  0.56419096  0.41111133  1
  Te  Te140  1  0.57977805  0.59709184  0.74145902  1
  Te  Te141  1  0.58141974  0.91770335  0.10094045  1
  Te  Te142  1  0.54134837  0.93907978  0.39861399  1
  Te  Te143  1  0.59706351  0.88799982  0.75365842  1
  Te  Te144  1  0.91753823  0.24184126  0.06722029  1
  Te  Te145  1  0.93540649  0.25703916  0.42428595  1
  Te  Te146  1  0.89728831  0.24248778  0.78762686  1
  Te  Te147  1  0.91621592  0.61615082  0.08000820  1
  Te  Te148  1  0.91246880  0.59853443  0.42207611  1
  Te  Te149  1  0.89978226  0.61059989  0.76850786  1
  Te  Te150  1  0.91904620  1.00500207  0.06385799  1
  Te  Te151  1  0.92388706  0.93557198  0.43388401  1
  Te  Te152  1  0.89989152  0.94381280  0.72543229  1
  Te  Te153  1  0.25033666  0.10075814  0.26803498  1
  Te  Te154  1  0.26634149  0.09901074  0.57878185  1
  Te  Te155  1  0.24964049  0.07919665  0.93992170  1
  Te  Te156  1  0.22066609  0.42663970  0.23340142  1
  Te  Te157  1  0.25748253  0.39718226  0.56590105  1
  Te  Te158  1  0.25905447  0.41336780  0.91283584  1
  Te  Te159  1  0.24543687  0.74848088  0.26139402  1
  Te  Te160  1  0.25346371  0.73402440  0.57764804  1
  Te  Te161  1  0.24463571  0.75956277  0.90874129  1
  Te  Te162  1  0.57002154  0.07199294  0.18995495  1
  Te  Te163  1  0.58283870  0.05463918  0.58427590  1
  Te  Te164  1  0.61615640  0.06603459  0.91906998  1
  Te  Te165  1  0.60237021  0.40036963  0.21943288  1
  Te  Te166  1  0.58020653  0.43015690  0.59815542  1
  Te  Te167  1  0.57445136  0.41332713  0.93147082  1
  Te  Te168  1  0.55971600  0.73279509  0.26629040  1
  Te  Te169  1  0.57323289  0.75032525  0.54717919  1
  Te  Te170  1  0.58390796  0.77147277  0.94462775  1
  Te  Te171  1  0.90136685  0.06364194  0.27453857  1
  Te  Te172  1  0.90449001  0.10470772  0.57697081  1
  Te  Te173  1  0.87231849  0.05455760  0.91817298  1
  Te  Te174  1  0.90245392  0.42363801  0.21624738  1
  Te  Te175  1  0.91901310  0.43781150  0.61117470  1
  Te  Te176  1  0.92259073  0.42940953  0.90126636  1
  Te  Te177  1  0.92385141  0.83241930  0.23071961  1
  Te  Te178  1  0.93548145  0.77332068  0.56599547  1
  Te  Te179  1  0.87765572  0.78705978  0.92970329  1
