# generated using pymatgen
data_In2Te3
_symmetry_space_group_name_H-M   'P 1'
_cell_length_a   18.96871778
_cell_length_b   18.98471377
_cell_length_c   18.97881952
_cell_angle_alpha   90.01909750
_cell_angle_beta   90.00294459
_cell_angle_gamma   90.04031587
_symmetry_Int_Tables_number   1
_chemical_formula_structural   In2Te3
_chemical_formula_sum   'In72 Te108'
_cell_volume   6834.56836975
_cell_formula_units_Z   36
loop_
 _symmetry_equiv_pos_site_id
 _symmetry_equiv_pos_as_xyz
  1  'x, y, z'
loop_
 _atom_site_type_symbol
 _atom_site_label
 _atom_site_symmetry_multiplicity
 _atom_site_fract_x
 _atom_site_fract_y
 _atom_site_fract_z
 _atom_site_occupancy
  In  In0  1  0.20304917  0.47647888  0.00736410  1
  In  In1  1  0.25000083  0.64329282  0.87056060  1
  In  In2  1  0.49786006  0.82714202  0.64811657  1
  In  In3  1  0.81511960  0.80945179  0.02036640  1
  In  In4  1  0.00919646  0.32441872  0.31599650  1
  In  In5  1  0.00247907  0.48002589  0.46815972  1
  In  In6  1  0.64357019  0.15826894  0.18135756  1
  In  In7  1  0.32789999  0.32860908  0.65822126  1
  In  In8  1  0.48088063  0.01348639  0.50254707  1
  In  In9  1  0.18836635  0.65723911  0.46953263  1
  In  In10  1  0.17184457  0.17155175  0.01360505  1
  In  In11  1  0.52272977  0.31810272  0.85685979  1
  In  In12  1  0.31963242  0.65769056  0.66506726  1
  In  In13  1  0.62875768  0.49409693  0.48138480  1
  In  In14  1  0.67681480  -0.01400849  0.01782937  1
  In  In15  1  0.33716982  0.66586398  0.29839612  1
  In  In16  1  0.34572208  0.69403087  0.02310402  1
  In  In17  1  0.03827399  0.83451883  0.85140196  1
  In  In18  1  0.78139204  0.47287410  0.63079120  1
  In  In19  1  0.66436450  0.48644860  0.83156049  1
  In  In20  1  0.33262629  0.47024763  0.19148870  1
  In  In21  1  0.85096508  0.49865581  -0.00286446  1
  In  In22  1  0.25750490  0.07784367  0.47956585  1
  In  In23  1  0.32471294  0.17956375  0.83470916  1
  In  In24  1  0.76379782  0.65158564  0.40022645  1
  In  In25  1  0.81922944  0.84472597  0.66271279  1
  In  In26  1  -0.00037753  0.69378536  0.66692219  1
  In  In27  1  0.14947350  0.51345223  0.65148577  1
  In  In28  1  0.47977472  0.17794943  0.66280661  1
  In  In29  1  0.82075471  -0.00386099  0.48305749  1
  In  In30  1  0.00757615  0.84906850  0.49872104  1
  In  In31  1  -0.00632260  0.01664872  0.68621028  1
  In  In32  1  0.50728665  0.84943993  0.01594647  1
  In  In33  1  -0.00665165  0.65836865  -0.00533087  1
  In  In34  1  -0.01937716  0.87226574  0.16545619  1
  In  In35  1  0.02287082  0.49717521  0.16709296  1
  In  In36  1  0.67327884  0.51713278  0.14963746  1
  In  In37  1  0.84407339  0.15634678  0.33435279  1
  In  In38  1  0.48627731  0.48095295  0.67633333  1
  In  In39  1  0.65116830  0.67695901  0.01486423  1
  In  In40  1  0.38250817  0.47591390  0.48183849  1
  In  In41  1  0.63996389  0.00045876  0.65374051  1
  In  In42  1  0.64415482  -0.01533650  0.32718023  1
  In  In43  1  0.34478334  -0.02736328  0.32163238  1
  In  In44  1  0.16576609  0.69378260  0.15541267  1
  In  In45  1  0.64468278  0.64199739  0.65424301  1
  In  In46  1  0.51405393  0.00598414  0.83721425  1
  In  In47  1  0.83358681  0.16578308  0.65720876  1
  In  In48  1  0.34085684  0.31578385  0.00120104  1
  In  In49  1  0.01997384  0.33179214  0.00537522  1
  In  In50  1  0.16658089  0.00486154  0.85026274  1
  In  In51  1  -0.00804511  0.30415649  0.66738846  1
  In  In52  1  0.80988579  0.69863024  0.17303471  1
  In  In53  1  0.69627550  0.16182203  0.82732587  1
  In  In54  1  0.01668505  0.48324117  0.82830755  1
  In  In55  1  0.34571119  0.82879283  0.85581912  1
  In  In56  1  0.33223088  0.85445347  0.51526118  1
  In  In57  1  0.81729245  0.16620363  0.00385499  1
  In  In58  1  0.17549080  0.18754954  0.32373189  1
  In  In59  1  0.02026620  0.01617501  0.33048092  1
  In  In60  1  -0.00160210  0.66376456  0.32952854  1
  In  In61  1  0.64630715  0.31361981  0.34550993  1
  In  In62  1  0.84200591  -0.00784745  0.86220222  1
  In  In63  1  0.14640874  0.84026795  0.69359094  1
  In  In64  1  0.50689044  0.67474077  0.46227366  1
  In  In65  1  0.82833398  0.65686001  0.80894688  1
  In  In66  1  0.19353602  -0.01361740  0.13907792  1
  In  In67  1  0.15640568  0.32924312  0.50567647  1
  In  In68  1  0.38274673  0.15605051  0.17437835  1
  In  In69  1  0.82622126  0.32082225  0.48886511  1
  In  In70  1  0.50116155  0.33251272  0.15959996  1
  In  In71  1  0.83825363  0.34692410  0.15724254  1
  Te  Te72  1  0.08729734  0.06191582  0.06748243  1
  Te  Te73  1  0.11038527  0.09227015  0.42343175  1
  Te  Te74  1  0.08276936  0.09515641  0.77022695  1
  Te  Te75  1  0.11611816  0.39720520  0.10458076  1
  Te  Te76  1  0.11444208  0.42513253  0.38077294  1
  Te  Te77  1  0.09596172  0.39744411  0.73294624  1
  Te  Te78  1  0.05621378  0.76495211  0.08064264  1
  Te  Te79  1  0.09026065  0.75660449  0.40904335  1
  Te  Te80  1  0.10345217  0.71726380  0.77451673  1
  Te  Te81  1  0.42704633  0.03496909  0.10754256  1
  Te  Te82  1  0.39537418  0.08882856  0.40660256  1
  Te  Te83  1  0.41086908  0.08072049  0.75574712  1
  Te  Te84  1  0.41743907  0.42462089  0.07129732  1
  Te  Te85  1  0.43980607  0.39375270  0.37236238  1
  Te  Te86  1  0.41461274  0.38609529  0.76864207  1
  Te  Te87  1  0.41802644  0.78496977  0.12102700  1
  Te  Te88  1  0.38632332  0.75379189  0.41769191  1
  Te  Te89  1  0.41288801  0.74671572  0.74524778  1
  Te  Te90  1  0.75224901  0.07899914  0.11042284  1
  Te  Te91  1  0.73063997  0.08965055  0.40784271  1
  Te  Te92  1  0.75844119  0.04839217  0.73931493  1
  Te  Te93  1  0.74265460  0.41432180  0.06121519  1
  Te  Te94  1  0.74114007  0.41516263  0.40940720  1
  Te  Te95  1  0.76264928  0.40793916  0.75835540  1
  Te  Te96  1  0.69835703  0.78623377  0.12016023  1
  Te  Te97  1  0.71621923  0.78574021  0.35849663  1
  Te  Te98  1  0.73132275  0.74385675  0.73511359  1
  Te  Te99  1  0.07282858  0.22778552  0.22781183  1
  Te  Te100  1  0.07390403  0.22933396  0.57272740  1
  Te  Te101  1  0.11084922  0.26182652  0.91188726  1
  Te  Te102  1  0.10574426  0.59181625  0.25160656  1
  Te  Te103  1  0.06975108  0.59796929  0.55366016  1
  Te  Te104  1  0.09129923  0.55963774  0.93642795  1
  Te  Te105  1  0.09979752  0.92047284  0.24429894  1
  Te  Te106  1  0.08775979  0.93584598  0.59296855  1
  Te  Te107  1  0.07174791  0.94052642  0.94664289  1
  Te  Te108  1  0.41731842  0.26854222  0.26589124  1
  Te  Te109  1  0.41529083  0.26216106  0.55876486  1
  Te  Te110  1  0.43504912  0.21969884  0.93265083  1
  Te  Te111  1  0.43087935  0.57472068  0.23020700  1
  Te  Te112  1  0.42656527  0.59172931  0.57910559  1
  Te  Te113  1  0.38131584  0.59973384  0.91665416  1
  Te  Te114  1  0.46213580  0.90805270  0.25400356  1
  Te  Te115  1  0.40490707  0.94162901  0.61346172  1
  Te  Te116  1  0.41599753  0.93836415  0.93191736  1
  Te  Te117  1  0.75897773  0.25753134  0.25071497  1
  Te  Te118  1  0.74042433  0.24583819  0.57887899  1
  Te  Te119  1  0.73494903  0.26043704  0.92764388  1
  Te  Te120  1  0.75168320  0.59068359  0.26074095  1
  Te  Te121  1  0.74997460  0.59782967  0.55366746  1
  Te  Te122  1  0.75664006  0.59712973  0.92878993  1
  Te  Te123  1  0.73123597  0.89469209  0.24835879  1
  Te  Te124  1  0.72572244  0.91092646  0.56351135  1
  Te  Te125  1  0.73996293  0.89377700  0.91389528  1
  Te  Te126  1  0.27070369  0.23811791  0.10855108  1
  Te  Te127  1  0.25660510  0.26228119  0.42163270  1
  Te  Te128  1  0.23832897  0.22296375  0.71688048  1
  Te  Te129  1  0.25852518  0.58685038  0.09753889  1
  Te  Te130  1  0.28476538  0.56481266  0.40214382  1
  Te  Te131  1  0.26111184  0.54905744  0.75173009  1
  Te  Te132  1  0.28309416  0.86784947  0.12410684  1
  Te  Te133  1  0.23961387  0.93118563  0.42720702  1
  Te  Te134  1  0.25535373  0.91342156  0.76511444  1
  Te  Te135  1  0.57554054  0.23538427  0.07834000  1
  Te  Te136  1  0.53753484  0.30756775  0.44920712  1
  Te  Te137  1  0.59135350  0.23896354  0.74756475  1
  Te  Te138  1  0.56279702  0.60507077  0.10786893  1
  Te  Te139  1  0.56477911  0.57255706  0.37578311  1
  Te  Te140  1  0.56371865  0.57919413  0.76387184  1
  Te  Te141  1  0.56130719  0.95922224  0.11362321  1
  Te  Te142  1  0.55483906  0.90795942  0.42527069  1
  Te  Te143  1  0.58229185  0.90070713  0.75296220  1
  Te  Te144  1  0.92482871  0.24691733  0.08610137  1
  Te  Te145  1  0.93539512  0.24251938  0.42052271  1
  Te  Te146  1  0.91334132  0.22716249  0.76504426  1
  Te  Te147  1  0.91036565  0.59097829  0.10591368  1
  Te  Te148  1  0.90467838  0.58461653  0.41652955  1
  Te  Te149  1  0.93232080  0.57527754  0.73689684  1
  Te  Te150  1  0.89197258  0.92572935  0.06187998  1
  Te  Te151  1  0.91808802  0.91857904  0.39880286  1
  Te  Te152  1  0.92872859  0.89676645  0.75655840  1
  Te  Te153  1  0.25936926  0.07605020  0.24288461  1
  Te  Te154  1  0.26008584  0.10361320  0.62102990  1
  Te  Te155  1  0.26648043  0.08210046  0.93545196  1
  Te  Te156  1  0.21989090  0.41650127  0.26506882  1
  Te  Te157  1  0.25543600  0.43879234  0.56913462  1
  Te  Te158  1  0.23825489  0.37247387  0.90838834  1
  Te  Te159  1  0.24792697  0.77659509  0.24946109  1
  Te  Te160  1  0.22857334  0.75342122  0.58902588  1
  Te  Te161  1  0.23571201  0.77357938  0.94446257  1
  Te  Te162  1  0.57002339  0.10931601  0.29781615  1
  Te  Te163  1  0.58049981  0.10763956  0.56744063  1
  Te  Te164  1  0.60763008  0.08395200  0.92505352  1
  Te  Te165  1  0.60399880  0.41163666  0.23765660  1
  Te  Te166  1  0.58634418  0.40956202  0.59389020  1
  Te  Te167  1  0.56940270  0.43703848  0.92967809  1
  Te  Te168  1  0.56403105  0.80642274  0.30572002  1
  Te  Te169  1  0.59392411  0.75028911  0.55978661  1
  Te  Te170  1  0.56085702  0.74709587  0.92509677  1
  Te  Te171  1  0.91766045  0.07179882  0.24156874  1
  Te  Te172  1  0.91685055  0.07649350  0.56753759  1
  Te  Te173  1  0.91538606  0.10960750  0.90705901  1
  Te  Te174  1  0.91818095  0.43062638  0.25533966  1
  Te  Te175  1  0.91733221  0.42083198  0.58132612  1
  Te  Te176  1  0.92081198  0.39839208  0.90930342  1
  Te  Te177  1  0.91581575  0.76706222  0.25653658  1
  Te  Te178  1  0.90485348  0.76042543  0.56931963  1
  Te  Te179  1  0.91387579  0.74632676  0.90060318  1
