# generated using pymatgen
data_In2Te3
_symmetry_space_group_name_H-M   'P 1'
_cell_length_a   18.96714139
_cell_length_b   18.98871504
_cell_length_c   18.97264577
_cell_angle_alpha   90.25105705
_cell_angle_beta   90.18019680
_cell_angle_gamma   90.03292529
_symmetry_Int_Tables_number   1
_chemical_formula_structural   In2Te3
_chemical_formula_sum   'In72 Te108'
_cell_volume   6833.11869690
_cell_formula_units_Z   36
loop_
 _symmetry_equiv_pos_site_id
 _symmetry_equiv_pos_as_xyz
  1  'x, y, z'
loop_
 _atom_site_type_symbol
 _atom_site_label
 _atom_site_symmetry_multiplicity
 _atom_site_fract_x
 _atom_site_fract_y
 _atom_site_fract_z
 _atom_site_occupancy
  In  In0  1  0.81657157  0.51631969  0.01779236  1
  In  In1  1  0.50423059  0.85015854  0.01597221  1
  In  In2  1  0.35165230  0.51271758  0.17716281  1
  In  In3  1  0.19611411  0.16432539  0.06390817  1
  In  In4  1  0.19838141  0.83913834  0.32132060  1
  In  In5  1  0.17555729  -0.01232871  0.84312162  1
  In  In6  1  0.62867419  0.36507615  0.32420951  1
  In  In7  1  0.85025635  0.16976367  -0.01254500  1
  In  In8  1  0.17996572  0.35654019  0.83397577  1
  In  In9  1  0.51038949  0.00308828  0.83209259  1
  In  In10  1  0.16224777  0.49693397  0.65013107  1
  In  In11  1  0.83822047  0.01287182  0.14977612  1
  In  In12  1  0.16618555  -0.00515294  0.49211900  1
  In  In13  1  0.04067729  0.16605710  0.84394640  1
  In  In14  1  0.63938612  0.65222035  0.32938625  1
  In  In15  1  -0.00428868  0.66369620  0.01045748  1
  In  In16  1  0.83023026  0.17042013  0.68852201  1
  In  In17  1  0.01229234  0.36492050  0.02784843  1
  In  In18  1  0.65055211  0.16431418  0.19538056  1
  In  In19  1  0.82374950  -0.00180403  0.83224995  1
  In  In20  1  -0.01720781  0.52032848  0.83630218  1
  In  In21  1  0.82100849  -0.00572946  0.50401576  1
  In  In22  1  0.18908569  -0.01198820  0.16424276  1
  In  In23  1  0.66108919  -0.00807441  0.35462871  1
  In  In24  1  0.03741013  0.30620710  0.31096346  1
  In  In25  1  0.34994096  0.80929844  0.52614085  1
  In  In26  1  -0.01774614  -0.00871573  0.69119580  1
  In  In27  1  0.35411108  0.12986424  0.45987773  1
  In  In28  1  0.35051742  0.32703792  0.68752585  1
  In  In29  1  0.81213016  0.50146704  0.32522070  1
  In  In30  1  0.66567432  0.67940953  0.02684116  1
  In  In31  1  0.65591363  0.35609136  0.68084193  1
  In  In32  1  0.84305208  0.32889688  0.16616441  1
  In  In33  1  -0.02133200  0.83752055  0.49266683  1
  In  In34  1  0.67355724  0.83827262  0.83237540  1
  In  In35  1  0.16473004  0.82810272  0.69209791  1
  In  In36  1  0.81973224  0.82587577  -0.00269801  1
  In  In37  1  0.06133097  0.66195344  0.34390179  1
  In  In38  1  0.83059059  0.34549631  0.48573452  1
  In  In39  1  0.02730189  0.15252413  0.49061347  1
  In  In40  1  0.47942066  0.37144059  0.89872866  1
  In  In41  1  0.02640955  0.46310584  0.14450750  1
  In  In42  1  0.79927042  0.64948921  0.49380354  1
  In  In43  1  0.50398530  0.53099715  0.64879181  1
  In  In44  1  0.35742328  -0.00664573  0.64016130  1
  In  In45  1  0.80617072  0.84393878  0.66223218  1
  In  In46  1  0.45843410  0.35158622  0.47690160  1
  In  In47  1  0.60381566  0.49884355  0.15024750  1
  In  In48  1  0.47892754  0.17001616  0.02136278  1
  In  In49  1  0.33038933  0.70897264  -0.03709611  1
  In  In50  1  0.84538111  0.15843284  0.31445702  1
  In  In51  1  0.19850277  0.30195075  0.49025336  1
  In  In52  1  0.52911302  0.77942285  0.66220002  1
  In  In53  1  0.65722144  0.82998368  0.18749611  1
  In  In54  1  -0.00295513  0.83387492  0.15831401  1
  In  In55  1  0.82279170  0.36065382  0.80899850  1
  In  In56  1  0.50919806  0.15482767  0.65398652  1
  In  In57  1  0.32796438  0.51237705  0.84343344  1
  In  In58  1  0.64080219  0.20376934  0.49271263  1
  In  In59  1  0.36022852  0.14670581  0.20145522  1
  In  In60  1  -0.01326065  0.33677925  0.63641091  1
  In  In61  1  0.32927710  0.55707733  0.41727497  1
  In  In62  1  0.32362737  -0.00956408  0.00026978  1
  In  In63  1  0.63434416  0.32085020  -0.00454855  1
  In  In64  1  0.86481536  0.83439242  0.33272331  1
  In  In65  1  -0.00122278  0.48503185  0.48768483  1
  In  In66  1  0.17145397  0.48044960  0.02923815  1
  In  In67  1  0.66566091  0.15241977  0.82397245  1
  In  In68  1  0.00563824  0.68175998  0.68029413  1
  In  In69  1  0.48012546  0.83157074  0.33150439  1
  In  In70  1  0.32754731  0.65209481  0.67552777  1
  In  In71  1  0.17545942  0.65839413  0.16505187  1
  Te  Te72  1  0.10113978  0.05525547  0.06641794  1
  Te  Te73  1  0.10904727  0.08516724  0.39015370  1
  Te  Te74  1  0.09899647  0.07481546  0.73899821  1
  Te  Te75  1  0.16319900  0.37661912  0.14265958  1
  Te  Te76  1  0.10033228  0.39529134  0.41807661  1
  Te  Te77  1  0.06509187  0.41974840  0.74098802  1
  Te  Te78  1  0.09769175  0.75477213  0.07734494  1
  Te  Te79  1  0.10180359  0.78072399  0.42914853  1
  Te  Te80  1  0.08418364  0.74873138  0.79133879  1
  Te  Te81  1  0.42323015  0.05213689  0.09656815  1
  Te  Te82  1  0.44701732  0.04500595  0.37852948  1
  Te  Te83  1  0.41416078  0.08562990  0.74857490  1
  Te  Te84  1  0.46464127  0.45015017  0.10327764  1
  Te  Te85  1  0.35901173  0.41080460  0.38253983  1
  Te  Te86  1  0.43495901  0.43296913  0.75764431  1
  Te  Te87  1  0.39149071  0.77729619  0.08150381  1
  Te  Te88  1  0.40413416  0.72956191  0.41240158  1
  Te  Te89  1  0.41278991  0.74574426  0.75195869  1
  Te  Te90  1  0.74678646  0.11620023  0.08629471  1
  Te  Te91  1  0.74980539  0.11078789  0.42274592  1
  Te  Te92  1  0.73456409  0.05934641  0.72553934  1
  Te  Te93  1  0.73908117  0.39867653  0.08239115  1
  Te  Te94  1  0.72247895  0.43244939  0.42589710  1
  Te  Te95  1  0.73530723  0.46015327  0.74769630  1
  Te  Te96  1  0.76625291  0.75145058  0.11787275  1
  Te  Te97  1  0.75601202  0.74129902  0.38148493  1
  Te  Te98  1  0.73565858  0.74298194  0.73917116  1
  Te  Te99  1  0.10998048  0.24291374  0.20127791  1
  Te  Te100  1  0.09557108  0.24354992  0.59086423  1
  Te  Te101  1  0.09627151  0.27528797  0.93295010  1
  Te  Te102  1  0.10414936  0.55284934  0.24698007  1
  Te  Te103  1  0.06917104  0.58953993  0.57634929  1
  Te  Te104  1  0.08678650  0.56758164  0.93351072  1
  Te  Te105  1  0.08581378  0.91305124  0.25185906  1
  Te  Te106  1  0.07191373  0.91337469  0.59513011  1
  Te  Te107  1  0.10098525  0.87677273  0.90301457  1
  Te  Te108  1  0.45706761  0.24778665  0.25185475  1
  Te  Te109  1  0.41153842  0.23827868  0.56953714  1
  Te  Te110  1  0.41922039  0.24034777  0.90696545  1
  Te  Te111  1  0.38279507  0.61156312  0.28588841  1
  Te  Te112  1  0.38583084  0.56883011  0.56411744  1
  Te  Te113  1  0.41941192  0.60339202  0.91232029  1
  Te  Te114  1  0.38082146  0.93756694  0.29537167  1
  Te  Te115  1  0.45556839  0.90285816  0.57561637  1
  Te  Te116  1  0.41631758  0.91340609  0.90721176  1
  Te  Te117  1  0.74256247  0.27068398  0.26999676  1
  Te  Te118  1  0.75421497  0.26293265  0.59543582  1
  Te  Te119  1  0.75547921  0.25114357  0.89910198  1
  Te  Te120  1  0.72059606  0.57041491  0.22964095  1
  Te  Te121  1  0.68203316  0.59791073  0.56765296  1
  Te  Te122  1  0.75239524  0.61057996  0.92718765  1
  Te  Te123  1  0.76760415  0.93186581  0.25754974  1
  Te  Te124  1  0.72544449  0.89436326  0.54936376  1
  Te  Te125  1  0.73483470  0.93572258  0.93496057  1
  Te  Te126  1  0.32102856  0.23760752  0.08857619  1
  Te  Te127  1  0.26678779  0.22295019  0.38631188  1
  Te  Te128  1  0.24465219  0.25263414  0.75434064  1
  Te  Te129  1  0.27011676  0.59094915  0.06613859  1
  Te  Te130  1  0.18673915  0.59265928  0.40111390  1
  Te  Te131  1  0.22254462  0.58213856  0.76060680  1
  Te  Te132  1  0.26712300  0.88546436  0.08896232  1
  Te  Te133  1  0.27781101  0.91146968  0.43203739  1
  Te  Te134  1  0.27158938  0.92042259  0.74315784  1
  Te  Te135  1  0.55971867  0.26215437  0.12073701  1
  Te  Te136  1  0.53960212  0.24858280  0.38495177  1
  Te  Te137  1  0.57533391  0.25115437  0.75343682  1
  Te  Te138  1  0.54383227  0.60499357  0.06706937  1
  Te  Te139  1  0.57730719  0.58506346  0.44575383  1
  Te  Te140  1  0.54426847  0.64479827  0.73570417  1
  Te  Te141  1  0.59578547  0.92859923  0.10080751  1
  Te  Te142  1  0.59442623  0.87730552  0.41621409  1
  Te  Te143  1  0.58099997  0.91033035  0.73747979  1
  Te  Te144  1  0.93786308  0.24210497  0.08805021  1
  Te  Te145  1  0.92915394  0.25150774  0.41887422  1
  Te  Te146  1  0.93401983  0.25239475  0.76283268  1
  Te  Te147  1  0.92301276  0.57293896  0.10820910  1
  Te  Te148  1  0.91256048  0.58284187  0.40871104  1
  Te  Te149  1  0.90318686  0.59717194  0.74229275  1
  Te  Te150  1  0.92072029  0.92094201  0.06115208  1
  Te  Te151  1  0.92948098  0.95193847  0.40767486  1
  Te  Te152  1  0.90858703  0.88841274  0.77031507  1
  Te  Te153  1  0.24940822  0.07492724  0.27027697  1
  Te  Te154  1  0.25764951  0.08515139  0.57260992  1
  Te  Te155  1  0.24182303  0.09418690  0.92866791  1
  Te  Te156  1  0.27071154  0.41389009  0.25226176  1
  Te  Te157  1  0.26117069  0.40324556  0.58777213  1
  Te  Te158  1  0.27481997  0.40901506  0.94066704  1
  Te  Te159  1  0.27297644  0.73271578  0.25069278  1
  Te  Te160  1  0.23299403  0.73733158  0.59210254  1
  Te  Te161  1  0.21700394  0.77332117  0.89430871  1
  Te  Te162  1  0.56696875  0.06196963  0.26342917  1
  Te  Te163  1  0.59219593  0.08326035  0.55758536  1
  Te  Te164  1  0.58241309  0.09171590  0.93218075  1
  Te  Te165  1  0.52880481  0.45862521  0.27161144  1
  Te  Te166  1  0.56206230  0.40922650  0.57379766  1
  Te  Te167  1  0.60848279  0.43694578  0.90931242  1
  Te  Te168  1  0.55293246  0.73291629  0.23459431  1
  Te  Te169  1  0.57828586  0.71004423  0.53631569  1
  Te  Te170  1  0.58413292  0.75979604  0.92509836  1
  Te  Te171  1  0.93820687  0.08740392  0.22927211  1
  Te  Te172  1  0.91739208  0.09206294  0.58941822  1
  Te  Te173  1  0.93579532  0.07534314  0.90539002  1
  Te  Te174  1  0.92520220  0.40955718  0.26566804  1
  Te  Te175  1  0.89011415  0.44241430  0.58691965  1
  Te  Te176  1  0.90358829  0.41612505  0.92802641  1
  Te  Te177  1  0.94953165  0.73260824  0.25938233  1
  Te  Te178  1  0.89896041  0.74070545  0.57482913  1
  Te  Te179  1  0.89697791  0.72617965  0.92020355  1
