# generated using pymatgen
data_In2Te3
_symmetry_space_group_name_H-M   'P 1'
_cell_length_a   18.97180902
_cell_length_b   18.96932670
_cell_length_c   18.97516385
_cell_angle_alpha   89.94353958
_cell_angle_beta   90.15858528
_cell_angle_gamma   89.76950710
_symmetry_Int_Tables_number   1
_chemical_formula_structural   In2Te3
_chemical_formula_sum   'In72 Te108'
_cell_volume   6828.74352784
_cell_formula_units_Z   36
loop_
 _symmetry_equiv_pos_site_id
 _symmetry_equiv_pos_as_xyz
  1  'x, y, z'
loop_
 _atom_site_type_symbol
 _atom_site_label
 _atom_site_symmetry_multiplicity
 _atom_site_fract_x
 _atom_site_fract_y
 _atom_site_fract_z
 _atom_site_occupancy
  In  In0  1  0.48385896  0.16061355  0.66527080  1
  In  In1  1  0.13369412  0.52261358  0.04264088  1
  In  In2  1  0.17179734  0.32507836  0.15822168  1
  In  In3  1  -0.00500770  0.31234917  -0.02622560  1
  In  In4  1  0.00429499  0.34280767  0.32221658  1
  In  In5  1  0.52826240  0.49704466  0.01205177  1
  In  In6  1  0.46991075  0.16232038  0.33867381  1
  In  In7  1  0.13888061  0.67728513  0.84387013  1
  In  In8  1  0.18686651  0.02021760  0.18764518  1
  In  In9  1  0.82496318  0.83418807  0.31304895  1
  In  In10  1  0.51710497  0.83826838  0.68716755  1
  In  In11  1  -0.03034210  -0.02262685  0.01588003  1
  In  In12  1  0.52009527  0.32568779  0.18118510  1
  In  In13  1  0.12543852  0.81208766  0.35154244  1
  In  In14  1  -0.00179167  0.01080893  0.31054794  1
  In  In15  1  0.50143366  0.01836572  0.84571556  1
  In  In16  1  0.85758500  0.80371110  0.64502060  1
  In  In17  1  0.14793894  0.17547270  0.67191705  1
  In  In18  1  0.48713483  0.46730026  0.32904972  1
  In  In19  1  0.51370331  0.64130750  0.17828376  1
  In  In20  1  0.66528076  0.15487158  0.16451077  1
  In  In21  1  0.33425553  0.81493894  0.20394668  1
  In  In22  1  0.86047693  0.36758145  0.20369477  1
  In  In23  1  0.50544687  0.65664856  0.51610381  1
  In  In24  1  0.68544693  0.68409319  0.36443948  1
  In  In25  1  -0.00203559  0.14970095  0.14146503  1
  In  In26  1  0.52448478  0.83991732  0.31237893  1
  In  In27  1  0.82948409  0.34231159  0.80980508  1
  In  In28  1  0.32077954  0.65019598  0.35375097  1
  In  In29  1  0.30112546  0.46923309  0.14698186  1
  In  In30  1  0.85861919  0.21484091  0.64145705  1
  In  In31  1  -0.00246556  0.38418840  0.64352068  1
  In  In32  1  0.14218488  0.84726125  0.01409448  1
  In  In33  1  0.32223784  0.15200007  0.84161715  1
  In  In34  1  0.31739286  0.82300737  0.46843201  1
  In  In35  1  -0.00900361  0.50489447  0.82517891  1
  In  In36  1  0.18482586  0.32953754  0.49792749  1
  In  In37  1  0.69706374  -0.00248458  0.68317197  1
  In  In38  1  0.32500859  0.32114464  0.32646894  1
  In  In39  1  0.83570458  -0.00002390  0.48562512  1
  In  In40  1  0.71367433  0.54646561  0.17913961  1
  In  In41  1  0.84082573  0.18199085  0.32952603  1
  In  In42  1  0.32346176  0.47228557  0.81652557  1
  In  In43  1  0.68971667  0.35723308  0.02088243  1
  In  In44  1  0.50109813  -0.01416836  0.15991012  1
  In  In45  1  0.63975789  0.15522884  0.48598435  1
  In  In46  1  0.54399870  0.84409457  0.01085577  1
  In  In47  1  -0.00504576  0.00929468  0.65793835  1
  In  In48  1  0.68145270  0.65682761  0.65911057  1
  In  In49  1  0.83443360  -0.00899201  0.84888914  1
  In  In50  1  0.69764333  0.37174085  0.35105371  1
  In  In51  1  0.28962862  0.66146445  0.64508362  1
  In  In52  1  0.50050232  -0.02097974  0.48000668  1
  In  In53  1  0.14493575  0.01951516  0.47419480  1
  In  In54  1  0.35492559  0.67397573  0.00309826  1
  In  In55  1  0.67892108  0.14318579  0.83879987  1
  In  In56  1  0.50783778  0.32932710  0.50935382  1
  In  In57  1  0.33105994  0.83253426  0.81488670  1
  In  In58  1  0.33881716  -0.00155063  0.00100256  1
  In  In59  1  0.16936009  0.32542908  0.84066715  1
  In  In60  1  0.32709924  0.31739293  -0.02215296  1
  In  In61  1  0.13832303  0.81617719  0.66303822  1
  In  In62  1  0.11715538  0.52949927  0.53463331  1
  In  In63  1  0.69287239  0.50563999  0.48651877  1
  In  In64  1  0.68976695  0.52731988  0.85723074  1
  In  In65  1  0.66357700  0.33332915  0.67375299  1
  In  In66  1  0.30237566  -0.02313172  0.63424576  1
  In  In67  1  -0.05419767  0.76270644  0.15018940  1
  In  In68  1  0.83154652  0.15014551  0.00647299  1
  In  In69  1  0.84957276  0.68598942  0.84147832  1
  In  In70  1  0.49862517  0.68769178  0.85803096  1
  In  In71  1  0.47821548  0.51279505  0.67521015  1
  Te  Te72  1  0.09332022  0.05531445  0.07385469  1
  Te  Te73  1  0.05546332  0.10977192  0.40163275  1
  Te  Te74  1  0.07612224  0.08106024  0.75570193  1
  Te  Te75  1  0.05559170  0.39676178  0.08527773  1
  Te  Te76  1  0.08410251  0.41819281  0.42621973  1
  Te  Te77  1  0.09748869  0.42598987  0.75258194  1
  Te  Te78  1  0.08026139  0.73455586  0.08507037  1
  Te  Te79  1  0.04379070  0.68960566  0.37733024  1
  Te  Te80  1  0.05408089  0.77747418  0.77769712  1
  Te  Te81  1  0.42705743  0.08297818  0.07879142  1
  Te  Te82  1  0.40455906  0.08136416  0.44133737  1
  Te  Te83  1  0.40492144  0.04703854  0.73047189  1
  Te  Te84  1  0.42677149  0.40913714  0.08385306  1
  Te  Te85  1  0.39590475  0.40720089  0.43013806  1
  Te  Te86  1  0.42321808  0.39627243  0.74280148  1
  Te  Te87  1  0.43961673  0.75598637  0.09922051  1
  Te  Te88  1  0.43633986  0.74363730  0.40256403  1
  Te  Te89  1  0.40925220  0.73160274  0.73203671  1
  Te  Te90  1  0.73390529  0.06306800  0.07092318  1
  Te  Te91  1  0.74326967  0.08609092  0.39993403  1
  Te  Te92  1  0.78531928  0.10962656  0.73497614  1
  Te  Te93  1  0.78863472  0.44667817  0.09342124  1
  Te  Te94  1  0.80907225  0.41486495  0.44482144  1
  Te  Te95  1  0.74378646  0.44464048  0.73955173  1
  Te  Te96  1  0.81463294  0.79079502  0.07395330  1
  Te  Te97  1  0.78437509  0.76317597  0.43696979  1
  Te  Te98  1  0.75192085  0.75792879  0.74584267  1
  Te  Te99  1  0.07534120  0.23683022  0.23643838  1
  Te  Te100  1  0.07125586  0.26640273  0.57854166  1
  Te  Te101  1  0.11037011  0.22905045  0.93570201  1
  Te  Te102  1  0.06980697  0.54337393  0.17925583  1
  Te  Te103  1  0.04216798  0.61660038  0.64043215  1
  Te  Te104  1  0.05036188  0.59386350  0.93260328  1
  Te  Te105  1  0.09272773  0.91427701  0.24222122  1
  Te  Te106  1  0.07761566  0.92028152  0.56748628  1
  Te  Te107  1  0.04501433  0.89768041  0.91437526  1
  Te  Te108  1  0.40395830  0.24075610  0.22485061  1
  Te  Te109  1  0.40788041  0.24380709  0.57202861  1
  Te  Te110  1  0.42353889  0.23223166  0.90983423  1
  Te  Te111  1  0.40235849  0.56441280  0.24637783  1
  Te  Te112  1  0.38943603  0.57450440  0.56831522  1
  Te  Te113  1  0.42118413  0.56553518  0.91844490  1
  Te  Te114  1  0.40894163  0.92909520  0.26827957  1
  Te  Te115  1  0.41024164  0.88214221  0.57865423  1
  Te  Te116  1  0.42890633  0.89477587  0.91362810  1
  Te  Te117  1  0.74303769  0.26843801  0.24150982  1
  Te  Te118  1  0.72989421  0.24933292  0.56658724  1
  Te  Te119  1  0.75462252  0.25696667  0.91623629  1
  Te  Te120  1  0.78336416  0.58927550  0.30133909  1
  Te  Te121  1  0.77756965  0.59570702  0.56622407  1
  Te  Te122  1  0.78650247  0.59630057  0.94020890  1
  Te  Te123  1  0.70986912  0.90545433  0.25379160  1
  Te  Te124  1  0.76017009  0.90889588  0.57977362  1
  Te  Te125  1  0.78091660  0.88951168  0.94010835  1
  Te  Te126  1  0.23669325  0.23494533  0.05901479  1
  Te  Te127  1  0.23104232  0.22650815  0.39261572  1
  Te  Te128  1  0.25918562  0.25025104  0.74466644  1
  Te  Te129  1  0.25675006  0.60439476  0.09312142  1
  Te  Te130  1  0.21310270  0.58987973  0.42781873  1
  Te  Te131  1  0.23748040  0.58881131  0.76622058  1
  Te  Te132  1  0.26459010  0.89834662  0.09725298  1
  Te  Te133  1  0.23050266  0.91924806  0.39434368  1
  Te  Te134  1  0.22347251  0.91371216  0.74680039  1
  Te  Te135  1  0.59141019  0.25234860  0.07018109  1
  Te  Te136  1  0.58263539  0.26840025  0.39209097  1
  Te  Te137  1  0.58484757  0.23124916  0.75367300  1
  Te  Te138  1  0.61562249  0.60308402  0.07142198  1
  Te  Te139  1  0.57214580  0.57331252  0.40657144  1
  Te  Te140  1  0.57720059  0.59325725  0.75820812  1
  Te  Te141  1  0.62444211  0.90605455  0.12170674  1
  Te  Te142  1  0.60957065  0.91527754  0.40647093  1
  Te  Te143  1  0.60397272  0.92220468  0.77572303  1
  Te  Te144  1  0.89858329  0.25826920  0.09022044  1
  Te  Te145  1  0.91225991  0.27308026  0.41775789  1
  Te  Te146  1  0.94659550  0.27227048  0.74878318  1
  Te  Te147  1  0.95706791  0.61336345  0.11359093  1
  Te  Te148  1  0.97956967  0.59137376  0.49893401  1
  Te  Te149  1  0.91155703  0.59586564  0.73793268  1
  Te  Te150  1  0.90137320  0.91054809  0.12923100  1
  Te  Te151  1  0.92626333  0.91365933  0.40161869  1
  Te  Te152  1  0.90564254  0.91634911  0.73780373  1
  Te  Te153  1  0.23787434  0.12150254  0.27718808  1
  Te  Te154  1  0.23391817  0.09517306  0.57279292  1
  Te  Te155  1  0.24264441  0.04701148  0.90302293  1
  Te  Te156  1  0.22593113  0.42115331  0.26630053  1
  Te  Te157  1  0.21772342  0.43595757  0.59408270  1
  Te  Te158  1  0.23275163  0.43463053  0.93463191  1
  Te  Te159  1  0.22629828  0.73100776  0.26430377  1
  Te  Te160  1  0.21291613  0.74563296  0.54642544  1
  Te  Te161  1  0.25343845  0.75579778  0.92162793  1
  Te  Te162  1  0.57104593  0.08302165  0.25833632  1
  Te  Te163  1  0.58700954  0.06057646  0.59387898  1
  Te  Te164  1  0.60640859  0.06314776  0.93849795  1
  Te  Te165  1  0.60731610  0.44031387  0.23219498  1
  Te  Te166  1  0.58758701  0.43761684  0.58126449  1
  Te  Te167  1  0.60075643  0.41320230  0.90933241  1
  Te  Te168  1  0.61260863  0.73742840  0.24156918  1
  Te  Te169  1  0.59478517  0.75859874  0.58247466  1
  Te  Te170  1  0.61285815  0.75068689  0.92199652  1
  Te  Te171  1  0.89168402  0.08277559  0.22748162  1
  Te  Te172  1  0.92023751  0.10063427  0.56109797  1
  Te  Te173  1  0.93002128  0.08969253  0.91164088  1
  Te  Te174  1  0.93879443  0.47006332  0.27557346  1
  Te  Te175  1  0.87179845  0.43378400  0.58668545  1
  Te  Te176  1  0.90434447  0.42057393  0.91633828  1
  Te  Te177  1  0.91855862  0.71019486  0.29365062  1
  Te  Te178  1  0.97067217  0.73885526  0.57208507  1
  Te  Te179  1  0.89919858  0.78936719  0.94100788  1
