# generated using pymatgen
data_In2Te3
_symmetry_space_group_name_H-M   'P 1'
_cell_length_a   18.77233122
_cell_length_b   18.77886269
_cell_length_c   18.77396121
_cell_angle_alpha   89.93615132
_cell_angle_beta   90.00608396
_cell_angle_gamma   89.98216881
_symmetry_Int_Tables_number   1
_chemical_formula_structural   In2Te3
_chemical_formula_sum   'In72 Te108'
_cell_volume   6618.24923090
_cell_formula_units_Z   36
loop_
 _symmetry_equiv_pos_site_id
 _symmetry_equiv_pos_as_xyz
  1  'x, y, z'
loop_
 _atom_site_type_symbol
 _atom_site_label
 _atom_site_symmetry_multiplicity
 _atom_site_fract_x
 _atom_site_fract_y
 _atom_site_fract_z
 _atom_site_occupancy
  In  In0  1  0.66788984  0.68685833  0.33233337  1
  In  In1  1  0.48992397  0.35157770  0.51017779  1
  In  In2  1  0.02259348  0.51578312  0.51636252  1
  In  In3  1  0.18344225  0.64585460  0.17454511  1
  In  In4  1  -0.02836680  -0.01746657  0.35155815  1
  In  In5  1  0.49522711  0.50452497  0.34172998  1
  In  In6  1  0.67191583  0.33293554  0.31654290  1
  In  In7  1  0.16173242  0.48634000  0.33723088  1
  In  In8  1  0.82459636  0.12555466  0.67816592  1
  In  In9  1  0.68032424  0.82864296  0.50294319  1
  In  In10  1  -0.00229966  0.34922409  0.01284680  1
  In  In11  1  0.00449049  0.66767385  0.34393334  1
  In  In12  1  0.16232129  0.34962540  0.83200893  1
  In  In13  1  0.83355480  0.32901840  0.48859752  1
  In  In14  1  0.14930151  0.16178281  0.66630053  1
  In  In15  1  0.35048676  0.82803436  0.50292462  1
  In  In16  1  0.66437641  0.13931408  0.48929999  1
  In  In17  1  0.49221681  0.66810586  0.50750277  1
  In  In18  1  0.34897137  0.16414923  0.85996537  1
  In  In19  1  0.32666742  0.18732595  0.17715806  1
  In  In20  1  0.85674937  0.16638427  0.01915104  1
  In  In21  1  0.69834258  -0.01284796  0.34480438  1
  In  In22  1  -0.01155811  0.17348826  0.50464447  1
  In  In23  1  0.14269810  0.82752827  0.35129514  1
  In  In24  1  0.31511597  0.35517290  0.66747809  1
  In  In25  1  0.33711174  0.69327704  0.70460605  1
  In  In26  1  0.33506401  0.84532416  0.14698566  1
  In  In27  1  0.50278807  0.18039824  0.64097332  1
  In  In28  1  0.33131658  0.01653864  0.31411671  1
  In  In29  1  0.67021937  0.12613391  0.83191004  1
  In  In30  1  0.31550258  0.51255057  0.50045139  1
  In  In31  1  0.19655888  0.81019484  -0.01797590  1
  In  In32  1  0.85102915  0.66745986  0.15595078  1
  In  In33  1  0.65603078  0.67749745  -0.02103006  1
  In  In34  1  0.00923499  0.00126658  -0.00178823  1
  In  In35  1  0.83482373  0.66949560  0.52215639  1
  In  In36  1  0.01903611  0.82554176  0.15362897  1
  In  In37  1  0.51415396  -0.02916931  0.81254272  1
  In  In38  1  0.00007886  0.81236545  0.82798109  1
  In  In39  1  0.00875556  0.14339732  0.82244312  1
  In  In40  1  0.48866007  0.32228156  0.83435766  1
  In  In41  1  0.68669107  0.17276119  0.16514729  1
  In  In42  1  0.85405549  0.32626075  0.87087764  1
  In  In43  1  0.48709542  0.17358199  0.32587592  1
  In  In44  1  0.80602466  0.84056746  -0.02548356  1
  In  In45  1  0.33830428  0.48741704  0.12304826  1
  In  In46  1  0.48728142  0.83455561  -0.00617474  1
  In  In47  1  0.32571580  0.00055833  -0.00391684  1
  In  In48  1  0.85494255  0.45761873  0.31747019  1
  In  In49  1  0.33285868  0.65971011  0.34794437  1
  In  In50  1  0.50470868  0.00258667  0.51366966  1
  In  In51  1  0.14622456  0.35029355  0.17019113  1
  In  In52  1  0.83136054  0.00423457  0.17727157  1
  In  In53  1  0.67128780  0.51402594  0.15700847  1
  In  In54  1  0.50614507  0.18845871  -0.02526125  1
  In  In55  1  0.16264170  0.14969463  0.00903241  1
  In  In56  1  0.51015719  0.68632610  0.16586178  1
  In  In57  1  0.33647054  0.51441349  0.83589527  1
  In  In58  1  0.84875635  0.66912866  0.82714974  1
  In  In59  1  0.65305112  0.34113189  0.00009586  1
  In  In60  1  0.15221326  -0.01219658  0.51544898  1
  In  In61  1  0.51477552  0.00094847  0.14896293  1
  In  In62  1  0.67509729  0.67141266  0.68889556  1
  In  In63  1  0.16149953  0.83232602  0.66787170  1
  In  In64  1  0.01673592  0.33381407  0.67766801  1
  In  In65  1  0.84303724  0.83218407  0.66100814  1
  In  In66  1  0.83806722  0.51619238  0.68422692  1
  In  In67  1  0.18748361  0.19837871  0.35221749  1
  In  In68  1  0.65114123  0.50130873  0.81877155  1
  In  In69  1  0.66302235  0.34724181  0.64503499  1
  In  In70  1  0.85520265  0.48697002  0.00241837  1
  In  In71  1  0.31027036  -0.00019872  0.68253205  1
  Te  Te72  1  0.05196232  0.10415074  0.09706095  1
  Te  Te73  1  0.08610837  0.08148868  0.41539562  1
  Te  Te74  1  0.08180135  0.04983881  0.73512899  1
  Te  Te75  1  0.09695601  0.44607808  0.06510181  1
  Te  Te76  1  0.06795242  0.41047353  0.42291623  1
  Te  Te77  1  0.10958920  0.44384275  0.72366880  1
  Te  Te78  1  0.10055768  0.72847908  0.07058927  1
  Te  Te79  1  0.05707262  0.75827167  0.45077372  1
  Te  Te80  1  0.11089776  0.73260622  0.76921382  1
  Te  Te81  1  0.41242024  0.09499814  0.07904564  1
  Te  Te82  1  0.41039064  0.08603293  0.42548969  1
  Te  Te83  1  0.42807073  0.09400863  0.74863871  1
  Te  Te84  1  0.43401340  0.40783637  0.04681319  1
  Te  Te85  1  0.39032385  0.41318683  0.40829117  1
  Te  Te86  1  0.42734205  0.42556604  0.74042796  1
  Te  Te87  1  0.39789509  0.73034953  0.06925810  1
  Te  Te88  1  0.43774294  0.75883092  0.39690575  1
  Te  Te89  1  0.46043327  0.75432709  0.76787138  1
  Te  Te90  1  0.74573607  0.07249761  0.06765357  1
  Te  Te91  1  0.78056409  0.09002883  0.41265282  1
  Te  Te92  1  0.75005465  0.01958684  0.76166726  1
  Te  Te93  1  0.75673496  0.40575488  0.09172746  1
  Te  Te94  1  0.73810662  0.42491274  0.41849721  1
  Te  Te95  1  0.75812629  0.40378908  0.76336772  1
  Te  Te96  1  0.74308631  0.74779591  0.08263175  1
  Te  Te97  1  0.78011150  0.76074739  0.40851788  1
  Te  Te98  1  0.75143314  0.77343037  0.77186351  1
  Te  Te99  1  0.08020864  0.26922344  0.27698157  1
  Te  Te100  1  0.09654844  0.26385051  0.56651106  1
  Te  Te101  1  0.07274648  0.24752720  0.91499204  1
  Te  Te102  1  0.07054645  0.57112807  0.24644969  1
  Te  Te103  1  0.08964821  0.57904628  0.63042389  1
  Te  Te104  1  0.00147387  0.58965676  0.88797349  1
  Te  Te105  1  0.08235496  0.92377410  0.25125571  1
  Te  Te106  1  0.05710428  0.89595495  0.58041977  1
  Te  Te107  1  0.09172830  0.90312201  0.91710080  1
  Te  Te108  1  0.42058813  0.27755482  0.24571305  1
  Te  Te109  1  0.38711944  0.25345608  0.57171009  1
  Te  Te110  1  0.38573252  0.28724060  0.94811452  1
  Te  Te111  1  0.40980413  0.58428149  0.23877821  1
  Te  Te112  1  0.39923273  0.59279711  0.59887599  1
  Te  Te113  1  0.39957288  0.62480581  0.91487695  1
  Te  Te114  1  0.42621908  0.91865287  0.24493419  1
  Te  Te115  1  0.41652716  0.91791738  0.60585080  1
  Te  Te116  1  0.39573947  0.91135597  0.89609684  1
  Te  Te117  1  0.76830767  0.22912047  0.27466922  1
  Te  Te118  1  0.75221342  0.23648836  0.58682452  1
  Te  Te119  1  0.73886366  0.23684683  0.92470796  1
  Te  Te120  1  0.76198756  0.58229822  0.25895783  1
  Te  Te121  1  0.73425668  0.57338448  0.58683253  1
  Te  Te122  1  0.75635463  0.57301385  0.91435892  1
  Te  Te123  1  0.74685835  0.89870358  0.23742633  1
  Te  Te124  1  0.77798711  0.92898293  0.56087578  1
  Te  Te125  1  0.72828773  0.93283664  0.89198973  1
  Te  Te126  1  0.23626234  0.26197012  0.07865008  1
  Te  Te127  1  0.29569775  0.26559592  0.42190581  1
  Te  Te128  1  0.25152947  0.24146327  0.75984827  1
  Te  Te129  1  0.23088260  0.56771120  0.05478461  1
  Te  Te130  1  0.21544467  0.60259484  0.42330306  1
  Te  Te131  1  0.23782105  0.58756192  0.74665994  1
  Te  Te132  1  0.22453901  0.92815787  0.08365281  1
  Te  Te133  1  0.25832980  0.91705896  0.41536390  1
  Te  Te134  1  0.25423931  0.89484811  0.76837005  1
  Te  Te135  1  0.57514419  0.25226782  0.09789818  1
  Te  Te136  1  0.58208253  0.25615279  0.42910524  1
  Te  Te137  1  0.59621567  0.24580807  0.75339878  1
  Te  Te138  1  0.57057535  0.58566997  0.06724518  1
  Te  Te139  1  0.59222871  0.58810597  0.42373805  1
  Te  Te140  1  0.56166702  0.59988731  0.75479035  1
  Te  Te141  1  0.59295835  0.90104624  0.07380807  1
  Te  Te142  1  0.58416557  0.91412984  0.41870026  1
  Te  Te143  1  0.57510268  0.86753933  0.72680252  1
  Te  Te144  1  0.91456595  0.27043225  0.11219264  1
  Te  Te145  1  0.92147054  0.25316898  0.39806410  1
  Te  Te146  1  0.91065598  0.24202495  0.74505456  1
  Te  Te147  1  0.94024382  0.57023901  0.09021318  1
  Te  Te148  1  0.90859927  0.57035275  0.41857349  1
  Te  Te149  1  0.95325074  0.59982660  0.73919819  1
  Te  Te150  1  0.91314944  0.90685765  0.07473806  1
  Te  Te151  1  0.87932389  0.91137366  0.44165327  1
  Te  Te152  1  0.91746959  0.91443691  0.76067411  1
  Te  Te153  1  0.22597652  0.09110914  0.23732381  1
  Te  Te154  1  0.25069310  0.08893579  0.57538104  1
  Te  Te155  1  0.23171229  0.07320486  0.89702242  1
  Te  Te156  1  0.26157779  0.42256005  0.24186722  1
  Te  Te157  1  0.22250527  0.42197017  0.57362404  1
  Te  Te158  1  0.23891069  0.43743416  0.92220810  1
  Te  Te159  1  0.25084649  0.76255855  0.25327560  1
  Te  Te160  1  0.25349281  0.74336721  0.57943927  1
  Te  Te161  1  0.26943747  0.69939119  0.90532526  1
  Te  Te162  1  0.59080036  0.08208293  0.25842150  1
  Te  Te163  1  0.60358061  0.06778596  0.61034904  1
  Te  Te164  1  0.57151071  0.05791602  0.92594882  1
  Te  Te165  1  0.57643802  0.42442940  0.23914399  1
  Te  Te166  1  0.57036604  0.44678613  0.58993197  1
  Te  Te167  1  0.55873847  0.43324909  0.92223715  1
  Te  Te168  1  0.59516888  0.77940565  0.24234382  1
  Te  Te169  1  0.57959412  0.75981797  0.59361881  1
  Te  Te170  1  0.56454182  0.75532674  0.88750066  1
  Te  Te171  1  0.93697157  0.08149816  0.24466415  1
  Te  Te172  1  0.93225571  0.06986704  0.59420984  1
  Te  Te173  1  0.90509799  0.07238957  0.90930295  1
  Te  Te174  1  0.93384726  0.38618737  0.21772537  1
  Te  Te175  1  0.91145501  0.41729136  0.59130323  1
  Te  Te176  1  0.95834872  0.44293925  0.88289142  1
  Te  Te177  1  0.92251609  0.76088942  0.25359206  1
  Te  Te178  1  0.94186666  0.74048440  0.59602941  1
  Te  Te179  1  0.91790801  0.73873049  0.94449044  1
