# generated using pymatgen
data_In2Te3
_symmetry_space_group_name_H-M   'P 1'
_cell_length_a   18.89735757
_cell_length_b   18.89032017
_cell_length_c   18.89135290
_cell_angle_alpha   89.92075851
_cell_angle_beta   89.91503440
_cell_angle_gamma   89.83045350
_symmetry_Int_Tables_number   1
_chemical_formula_structural   In2Te3
_chemical_formula_sum   'In72 Te108'
_cell_volume   6743.73768593
_cell_formula_units_Z   36
loop_
 _symmetry_equiv_pos_site_id
 _symmetry_equiv_pos_as_xyz
  1  'x, y, z'
loop_
 _atom_site_type_symbol
 _atom_site_label
 _atom_site_symmetry_multiplicity
 _atom_site_fract_x
 _atom_site_fract_y
 _atom_site_fract_z
 _atom_site_occupancy
  In  In0  1  0.17876856  0.82616552  0.66570010  1
  In  In1  1  0.82181711  0.16819142  0.68497605  1
  In  In2  1  0.01176877  0.51663360  0.48996357  1
  In  In3  1  0.00033137  0.02065557  0.00773359  1
  In  In4  1  0.80150652  0.67763643  0.16409357  1
  In  In5  1  0.35342876  0.67250257  0.66941626  1
  In  In6  1  0.00041998  -0.01152478  0.65956282  1
  In  In7  1  0.20380546  0.15811389  0.67037972  1
  In  In8  1  0.68295132  0.28650289  0.34162517  1
  In  In9  1  0.84997542  0.84115579  -0.00689020  1
  In  In10  1  0.14214172  0.17369140  0.01341343  1
  In  In11  1  0.03237776  0.85652618  0.16426984  1
  In  In12  1  0.49047795  0.82196370  0.32058346  1
  In  In13  1  0.83648581  0.85642623  0.33572955  1
  In  In14  1  0.33996073  0.16236267  0.13979873  1
  In  In15  1  0.87394886  0.66187955  0.49424581  1
  In  In16  1  0.14514744  0.17469806  0.32715752  1
  In  In17  1  0.48608714  0.83099292  -0.00292091  1
  In  In18  1  0.47689674  0.48462929  0.71567960  1
  In  In19  1  0.00184219  0.33674630  0.67780175  1
  In  In20  1  0.83300887  0.46960964  0.02008696  1
  In  In21  1  0.18006204  0.33850601  0.18309246  1
  In  In22  1  -0.00708837  0.31564730  0.02582621  1
  In  In23  1  0.01258760  0.17081649  0.49198058  1
  In  In24  1  0.65399992  0.48457469  0.14315939  1
  In  In25  1  0.17069134  0.66273139  0.82811754  1
  In  In26  1  0.32302892  -0.01972677  -0.01120682  1
  In  In27  1  0.84831354  0.30395846  0.49688828  1
  In  In28  1  -0.03477662  0.32104643  0.33570828  1
  In  In29  1  0.19163262  0.48223509  0.67205276  1
  In  In30  1  0.34375410  0.00577870  0.66850134  1
  In  In31  1  0.66183052  0.83410599  0.81757031  1
  In  In32  1  0.16394440  -0.00904752  0.81925623  1
  In  In33  1  0.50588869  0.00501463  0.51737229  1
  In  In34  1  0.00627021  0.84905233  0.47671214  1
  In  In35  1  0.18416103  0.49702589  0.32798248  1
  In  In36  1  0.32766488  0.33260373  0.34547081  1
  In  In37  1  0.19106794  0.85394674  -0.00584118  1
  In  In38  1  0.65208496  0.33336562  0.71361218  1
  In  In39  1  0.50659206  0.18111868  0.34729942  1
  In  In40  1  0.67794482  0.15097924  0.12906906  1
  In  In41  1  0.68612611  0.85554059  0.50535065  1
  In  In42  1  0.32330848  0.65077883  0.33169836  1
  In  In43  1  0.17455158  0.65511184  0.15802515  1
  In  In44  1  -0.00281207  0.64721318  -0.00537797  1
  In  In45  1  0.20702985  0.48104535  -0.02839456  1
  In  In46  1  0.33586159  0.18926555  0.83920678  1
  In  In47  1  -0.01231703  0.18615737  0.84157505  1
  In  In48  1  0.81588744  0.64801180  0.83059464  1
  In  In49  1  0.81847484  0.86944560  0.67052171  1
  In  In50  1  0.67343383  0.03463582  0.35824545  1
  In  In51  1  0.66986050  0.86579481  0.18193595  1
  In  In52  1  0.47273587  0.19296233  0.66468189  1
  In  In53  1  0.82667912  0.02782021  0.82846969  1
  In  In54  1  -0.00656558  0.46752956  0.18389090  1
  In  In55  1  0.49034344  0.36201131  0.14763491  1
  In  In56  1  -0.01389389  0.68500505  0.34258480  1
  In  In57  1  0.48881381  0.84745324  0.69088751  1
  In  In58  1  0.65714016  0.67298896  0.32104057  1
  In  In59  1  0.49107757  0.67251538  0.49612115  1
  In  In60  1  0.80767901  0.48408288  0.67099373  1
  In  In61  1  0.49746546  0.01292246  0.13402423  1
  In  In62  1  0.66612934  0.47271891  0.51404982  1
  In  In63  1  0.36897203  0.65243859  -0.02196022  1
  In  In64  1  0.48430175  0.47882830  0.34128596  1
  In  In65  1  0.63024847  0.65074601  0.00904560  1
  In  In66  1  -0.00033787  0.66370582  0.66940124  1
  In  In67  1  0.63639940  0.32220320  -0.03020076  1
  In  In68  1  0.16660579  0.83930406  0.33289710  1
  In  In69  1  0.63058958  0.64165777  0.66399711  1
  In  In70  1  0.34411661  0.00067907  0.32933963  1
  In  In71  1  0.18914152  0.35309457  0.50434197  1
  Te  Te72  1  0.10550439  0.06243615  0.10983638  1
  Te  Te73  1  0.07514618  0.06886812  0.40368633  1
  Te  Te74  1  0.07143754  0.09612618  0.74955639  1
  Te  Te75  1  0.10155233  0.43186271  0.08371334  1
  Te  Te76  1  0.07924679  0.40141996  0.40095003  1
  Te  Te77  1  0.08343675  0.42899601  0.75638436  1
  Te  Te78  1  0.08937725  0.74582130  0.06702115  1
  Te  Te79  1  0.09775993  0.73653868  0.42855052  1
  Te  Te80  1  0.07665352  0.75987716  0.75821153  1
  Te  Te81  1  0.42030045  0.09325486  0.03058294  1
  Te  Te82  1  0.41570713  0.09155758  0.42937817  1
  Te  Te83  1  0.42274644  0.08580096  0.76910711  1
  Te  Te84  1  0.42522806  0.42503646  0.02640419  1
  Te  Te85  1  0.43169021  0.38115438  0.43988910  1
  Te  Te86  1  0.41555637  0.36723893  0.78909818  1
  Te  Te87  1  0.39069302  0.75682550  0.07995423  1
  Te  Te88  1  0.39393173  0.75742378  0.41722608  1
  Te  Te89  1  0.44343037  0.73316327  0.76933888  1
  Te  Te90  1  0.75257653  0.04090680  0.06228892  1
  Te  Te91  1  0.74920634  0.14335228  0.42179169  1
  Te  Te92  1  0.71504408  0.10319117  0.76493484  1
  Te  Te93  1  0.73605219  0.37250087  0.08179793  1
  Te  Te94  1  0.75886413  0.40035908  0.41909771  1
  Te  Te95  1  0.73639054  0.43068192  0.78738313  1
  Te  Te96  1  0.73379373  0.76671051  0.06297540  1
  Te  Te97  1  0.75717049  0.74762185  0.40995405  1
  Te  Te98  1  0.74680816  0.73965589  0.72840402  1
  Te  Te99  1  0.06152595  0.25455445  0.22779076  1
  Te  Te100  1  0.09552923  0.25671134  0.58712275  1
  Te  Te101  1  0.08845525  0.27415483  0.91165018  1
  Te  Te102  1  0.07835507  0.58702969  0.25540666  1
  Te  Te103  1  0.10159551  0.58228527  0.59117699  1
  Te  Te104  1  0.08860734  0.56340417  0.90865105  1
  Te  Te105  1  0.05909428  0.93315362  0.28678630  1
  Te  Te106  1  0.10270471  0.92156042  0.57197419  1
  Te  Te107  1  0.07519838  0.91690812  0.91842060  1
  Te  Te108  1  0.41565064  0.25220372  0.24159352  1
  Te  Te109  1  0.38507142  0.27022472  0.57434359  1
  Te  Te110  1  0.40221428  0.29512827  0.92676993  1
  Te  Te111  1  0.43127189  0.58405117  0.25287847  1
  Te  Te112  1  0.43367039  0.56950575  0.58943907  1
  Te  Te113  1  0.44416491  0.54655355  0.90393373  1
  Te  Te114  1  0.41897006  0.91747844  0.22553751  1
  Te  Te115  1  0.40960264  0.90271281  0.57464866  1
  Te  Te116  1  0.42666754  0.92515474  0.90004397  1
  Te  Te117  1  0.75723937  0.20384471  0.24437082  1
  Te  Te118  1  0.74705029  0.27237117  0.60355994  1
  Te  Te119  1  0.72023788  0.22139976  0.89468001  1
  Te  Te120  1  0.73786619  0.56826543  0.24566867  1
  Te  Te121  1  0.75467795  0.59026438  0.57213113  1
  Te  Te122  1  0.74933169  0.57653605  0.94740777  1
  Te  Te123  1  0.76325910  0.96176246  0.25447748  1
  Te  Te124  1  0.74248214  0.96310766  0.58680656  1
  Te  Te125  1  0.75039032  0.91942230  0.90753532  1
  Te  Te126  1  0.25156466  0.26541717  0.07064685  1
  Te  Te127  1  0.24482741  0.23468520  0.42595743  1
  Te  Te128  1  0.23448810  0.26737514  0.76216852  1
  Te  Te129  1  0.27066602  0.57609616  0.07297193  1
  Te  Te130  1  0.26695847  0.55727523  0.43109821  1
  Te  Te131  1  0.27380735  0.57646804  0.75912823  1
  Te  Te132  1  0.23844800  0.93955392  0.10376378  1
  Te  Te133  1  0.25740487  0.91964685  0.41596787  1
  Te  Te134  1  0.27102888  0.90391631  0.75862213  1
  Te  Te135  1  0.55920276  0.24602515  0.08123465  1
  Te  Te136  1  0.59236798  0.24249962  0.45202723  1
  Te  Te137  1  0.55600986  0.24213906  0.78016267  1
  Te  Te138  1  0.54793999  0.58337557  0.11178783  1
  Te  Te139  1  0.58778123  0.57830878  0.42075175  1
  Te  Te140  1  0.59325387  0.55560544  0.77690175  1
  Te  Te141  1  0.59371520  0.92030825  0.06176417  1
  Te  Te142  1  0.58331368  0.91182502  0.40093176  1
  Te  Te143  1  0.59854352  0.93500878  0.73038219  1
  Te  Te144  1  0.89344491  0.21754720  0.07683142  1
  Te  Te145  1  0.89893417  0.19397388  0.38775766  1
  Te  Te146  1  0.89269138  0.27719857  0.76518460  1
  Te  Te147  1  0.91350477  0.58149584  0.10361645  1
  Te  Te148  1  0.90723544  0.56093185  0.38562183  1
  Te  Te149  1  0.91435085  0.56571037  0.74797579  1
  Te  Te150  1  0.91377659  0.92736583  0.09961548  1
  Te  Te151  1  0.89435948  0.93841469  0.44199793  1
  Te  Te152  1  0.92076695  0.92099032  0.76976214  1
  Te  Te153  1  0.25679267  0.10024348  0.25054035  1
  Te  Te154  1  0.25076446  0.06467936  0.57023530  1
  Te  Te155  1  0.23068453  0.09104284  0.91205592  1
  Te  Te156  1  0.28623299  0.43245678  0.23557572  1
  Te  Te157  1  0.29509342  0.39574127  0.60135283  1
  Te  Te158  1  0.28303273  0.39996255  0.87060147  1
  Te  Te159  1  0.25370894  0.75321426  0.24031354  1
  Te  Te160  1  0.25490889  0.73536416  0.58054276  1
  Te  Te161  1  0.26281473  0.74831411  0.91253259  1
  Te  Te162  1  0.57101743  0.08051667  0.24992838  1
  Te  Te163  1  0.57281634  0.12260353  0.57467681  1
  Te  Te164  1  0.65201336  0.11645395  0.97832470  1
  Te  Te165  1  0.59179974  0.39684079  0.26073073  1
  Te  Te166  1  0.56993289  0.41203450  0.61029476  1
  Te  Te167  1  0.55916967  0.44888193  0.94649740  1
  Te  Te168  1  0.57618115  0.74951665  0.21804169  1
  Te  Te169  1  0.58612896  0.76320679  0.57570273  1
  Te  Te170  1  0.57468314  0.74168738  0.90070003  1
  Te  Te171  1  0.96919946  0.12360141  0.16186764  1
  Te  Te172  1  0.92005417  0.09737673  0.59089527  1
  Te  Te173  1  0.89679990  0.11121257  0.93777258  1
  Te  Te174  1  0.88283630  0.38655432  0.23286568  1
  Te  Te175  1  0.92145726  0.42391963  0.57160552  1
  Te  Te176  1  0.92260138  0.40069051  0.92753160  1
  Te  Te177  1  0.91163804  0.76085936  0.23210604  1
  Te  Te178  1  0.92082217  0.77164232  0.58956495  1
  Te  Te179  1  0.91705668  0.73779884  0.90258356  1
