# generated using pymatgen
data_In2Te3
_symmetry_space_group_name_H-M   'P 1'
_cell_length_a   18.83118098
_cell_length_b   18.83202514
_cell_length_c   18.81415777
_cell_angle_alpha   90.12076204
_cell_angle_beta   90.02429671
_cell_angle_gamma   90.04961028
_symmetry_Int_Tables_number   1
_chemical_formula_structural   In2Te3
_chemical_formula_sum   'In72 Te108'
_cell_volume   6672.03317665
_cell_formula_units_Z   36
loop_
 _symmetry_equiv_pos_site_id
 _symmetry_equiv_pos_as_xyz
  1  'x, y, z'
loop_
 _atom_site_type_symbol
 _atom_site_label
 _atom_site_symmetry_multiplicity
 _atom_site_fract_x
 _atom_site_fract_y
 _atom_site_fract_z
 _atom_site_occupancy
  In  In0  1  0.19995657  0.35137151  0.50388168  1
  In  In1  1  -0.02166189  0.51060299  0.84715224  1
  In  In2  1  0.14772530  0.48627294  0.30381381  1
  In  In3  1  0.01129502  0.16265229  0.49957060  1
  In  In4  1  0.32823826  0.84776287  0.16734210  1
  In  In5  1  0.85254704  0.67647051  0.52394734  1
  In  In6  1  0.18605074  0.32909158  0.14169991  1
  In  In7  1  0.67318225  0.14588634  0.53860881  1
  In  In8  1  0.33236449  0.17260557  0.86426914  1
  In  In9  1  0.00856130  0.51410340  0.52022263  1
  In  In10  1  0.65955440  0.17187806  0.15392081  1
  In  In11  1  0.48813672  0.49833915  0.68371018  1
  In  In12  1  0.51550845  0.67495830  0.14925165  1
  In  In13  1  0.66891318  0.66344095  -0.00343734  1
  In  In14  1  0.15750288  0.62876308  0.50508176  1
  In  In15  1  0.51230365  0.02154877  0.50707294  1
  In  In16  1  0.01562155  0.66269314  0.33884979  1
  In  In17  1  0.31800535  0.16039512  0.16298441  1
  In  In18  1  0.32240605  0.33366578  0.32138544  1
  In  In19  1  0.65760372  0.03225616  0.67424199  1
  In  In20  1  0.84042185  0.67415447  0.84379892  1
  In  In21  1  0.64978014  0.48030934  0.50228115  1
  In  In22  1  0.83474545  -0.02057208  0.51235790  1
  In  In23  1  0.13502244  0.85258440  0.29660923  1
  In  In24  1  0.46155238  0.34973961  0.11690136  1
  In  In25  1  -0.01075989  0.33078073  0.31129174  1
  In  In26  1  0.85013696  0.82063886  0.32964566  1
  In  In27  1  0.82432241  0.34734114  0.82807109  1
  In  In28  1  0.68567776  0.65937431  0.69056891  1
  In  In29  1  0.49009732  0.83552841  0.29734630  1
  In  In30  1  0.17059092  0.32806349  0.84943927  1
  In  In31  1  0.17787243  -0.00671688  0.49315105  1
  In  In32  1  0.18797591  0.16026664  0.33398698  1
  In  In33  1  -0.01835733  0.50421592  0.14132772  1
  In  In34  1  0.31764602  0.00860980  0.00143033  1
  In  In35  1  0.64860719  0.47688192  0.85383442  1
  In  In36  1  0.50508303  0.16558444  0.35053439  1
  In  In37  1  0.16767359  0.51482513  0.64947495  1
  In  In38  1  0.49393700  0.50769920  0.31794710  1
  In  In39  1  0.52819096  0.17155169  -0.01449764  1
  In  In40  1  0.51834359  0.65243372  0.51940590  1
  In  In41  1  0.16383485  0.50681767  -0.01084556  1
  In  In42  1  0.31738534  0.83119142  0.84919002  1
  In  In43  1  0.84857800  -0.02416626  0.82450935  1
  In  In44  1  0.50991795  0.84359678  -0.01917750  1
  In  In45  1  0.82992909  0.02690791  0.16151380  1
  In  In46  1  0.34801104  0.68818627  0.31063338  1
  In  In47  1  0.14131197  0.81495186  0.69692312  1
  In  In48  1  0.35032992  0.48656571  0.82734680  1
  In  In49  1  0.81814478  0.13710478  0.66348204  1
  In  In50  1  0.84221645  0.65080686  0.16080231  1
  In  In51  1  0.31597003  0.65420645  -0.01640091  1
  In  In52  1  0.33290443  0.00623700  0.68825395  1
  In  In53  1  0.51176842  0.84907896  0.69925152  1
  In  In54  1  0.47640316  0.30906139  0.53436934  1
  In  In55  1  0.00060253  0.32981231  0.67978776  1
  In  In56  1  0.69109521  0.85704550  0.51203891  1
  In  In57  1  0.15708143  0.14458166  0.69148198  1
  In  In58  1  0.32085794  0.83837154  0.49839776  1
  In  In59  1  0.01247043  0.15167835  0.85065840  1
  In  In60  1  0.66858811  0.00530794  0.33530603  1
  In  In61  1  0.32991342  0.66451704  0.69162649  1
  In  In62  1  0.02297242  0.12365478  0.14045551  1
  In  In63  1  0.82301381  0.33061407  0.15499078  1
  In  In64  1  0.30723430  0.47654686  0.48308079  1
  In  In65  1  0.83030166  0.17838371  -0.00596048  1
  In  In66  1  0.64684580  0.84042918  0.14669392  1
  In  In67  1  0.66572971  0.32804102  0.32369455  1
  In  In68  1  0.84012111  0.33437807  0.50698569  1
  In  In69  1  0.68946171  0.49760466  0.15193854  1
  In  In70  1  -0.01578701  0.82406716  0.51352079  1
  In  In71  1  0.86502657  0.84233656  -0.01362544  1
  Te  Te72  1  0.10322672  0.06809901  0.02838667  1
  Te  Te73  1  0.08329313  0.07083330  0.40190748  1
  Te  Te74  1  0.06748807  0.04996784  0.75776023  1
  Te  Te75  1  0.07701380  0.40893295  0.07080719  1
  Te  Te76  1  0.07841076  0.41186011  0.42057885  1
  Te  Te77  1  0.09219023  0.42493649  0.75606114  1
  Te  Te78  1  0.07732874  0.82774161  0.07652211  1
  Te  Te79  1  0.09791198  0.75801898  0.42348945  1
  Te  Te80  1  0.08388522  0.73587516  0.80746492  1
  Te  Te81  1  0.42428790  0.09629343  0.06941647  1
  Te  Te82  1  0.41175373  0.06930127  0.41069765  1
  Te  Te83  1  0.41830120  0.08009150  0.78323589  1
  Te  Te84  1  0.39911781  0.45044651  0.02952906  1
  Te  Te85  1  0.43375274  0.40777014  0.41731170  1
  Te  Te86  1  0.43825359  0.38211310  0.76410259  1
  Te  Te87  1  0.41585039  0.75966319  0.07021466  1
  Te  Te88  1  0.42629247  0.74623574  0.42920364  1
  Te  Te89  1  0.42471841  0.74797368  0.77524832  1
  Te  Te90  1  0.73074384  0.07658340  0.05795740  1
  Te  Te91  1  0.76054448  0.08378581  0.42711501  1
  Te  Te92  1  0.73403719  0.11820744  0.79414928  1
  Te  Te93  1  0.77467347  0.42690424  0.05417385  1
  Te  Te94  1  0.75485966  0.41724336  0.41064030  1
  Te  Te95  1  0.73344899  0.42605227  0.74309121  1
  Te  Te96  1  0.75869478  0.75960740  0.07868205  1
  Te  Te97  1  0.75712152  0.74883980  0.42709701  1
  Te  Te98  1  0.72746234  0.76020566  0.79268156  1
  Te  Te99  1  0.10015486  0.25074648  0.24411702  1
  Te  Te100  1  0.09812531  0.25719214  0.58435784  1
  Te  Te101  1  0.07284048  0.25804545  0.93432158  1
  Te  Te102  1  0.08276281  0.59283079  0.21964461  1
  Te  Te103  1  0.05732990  0.61876593  0.62043127  1
  Te  Te104  1  0.06037302  0.60150026  0.93526649  1
  Te  Te105  1  0.05337507  0.92959263  0.19931547  1
  Te  Te106  1  0.09152667  0.90877690  0.58433359  1
  Te  Te107  1  0.09323525  0.92457885  0.96546392  1
  Te  Te108  1  0.42533101  0.25416593  0.24275699  1
  Te  Te109  1  0.37554133  0.21896232  0.58443185  1
  Te  Te110  1  0.44614631  0.27053949  0.90194797  1
  Te  Te111  1  0.41094236  0.58534330  0.21741745  1
  Te  Te112  1  0.39872105  0.57834283  0.57756176  1
  Te  Te113  1  0.42680876  0.57784912  0.91960134  1
  Te  Te114  1  0.41076979  0.94466398  0.24381947  1
  Te  Te115  1  0.41995238  0.91311417  0.59015364  1
  Te  Te116  1  0.41367792  0.93533985  0.90593650  1
  Te  Te117  1  0.75905624  0.23048600  0.25385471  1
  Te  Te118  1  0.75020803  0.26285261  0.60533709  1
  Te  Te119  1  0.73821841  0.26179486  0.91442906  1
  Te  Te120  1  0.74730202  0.58747127  0.25293138  1
  Te  Te121  1  0.74422303  0.57924208  0.57527482  1
  Te  Te122  1  0.75645466  0.56759713  0.91955695  1
  Te  Te123  1  0.75319315  0.91189633  0.24906725  1
  Te  Te124  1  0.75691938  0.92133836  0.63180462  1
  Te  Te125  1  0.75317769  0.91265091  0.91797973  1
  Te  Te126  1  0.26834888  0.24489867  0.05302273  1
  Te  Te127  1  0.27762490  0.23839109  0.43130642  1
  Te  Te128  1  0.25262675  0.24510228  0.75191348  1
  Te  Te129  1  0.23403832  0.59185416  0.08921551  1
  Te  Te130  1  0.25170204  0.58334772  0.38610904  1
  Te  Te131  1  0.23727278  0.57829046  0.77220385  1
  Te  Te132  1  0.23351410  0.89582247  0.05933802  1
  Te  Te133  1  0.25036769  0.91169589  0.38645462  1
  Te  Te134  1  0.23054075  0.92220615  0.76327100  1
  Te  Te135  1  0.59377384  0.28235191  0.07107737  1
  Te  Te136  1  0.59915988  0.24922866  0.43774262  1
  Te  Te137  1  0.60935877  0.19236873  0.74367319  1
  Te  Te138  1  0.57917730  0.56359257  0.06762136  1
  Te  Te139  1  0.59306291  0.58481049  0.40476400  1
  Te  Te140  1  0.57637463  0.58672046  0.76837508  1
  Te  Te141  1  0.56936018  0.94109167  0.07510022  1
  Te  Te142  1  0.58098217  0.90782536  0.41737296  1
  Te  Te143  1  0.59082963  0.94410958  0.77773609  1
  Te  Te144  1  0.92813810  0.23976562  0.09379716  1
  Te  Te145  1  0.91465110  0.24204203  0.41168627  1
  Te  Te146  1  0.91510924  0.22757893  0.74933453  1
  Te  Te147  1  0.92887707  0.60767991  0.04714336  1
  Te  Te148  1  0.91570416  0.58167150  0.41902754  1
  Te  Te149  1  0.89516496  0.57717657  0.74590635  1
  Te  Te150  1  0.92367547  0.92055584  0.10303827  1
  Te  Te151  1  0.93153663  0.92265505  0.40724110  1
  Te  Te152  1  0.92282154  0.89136117  0.72951097  1
  Te  Te153  1  0.22885836  0.06453092  0.22933555  1
  Te  Te154  1  0.25831724  0.08808153  0.58145488  1
  Te  Te155  1  0.22202950  0.08356952  0.91267941  1
  Te  Te156  1  0.26648707  0.43230877  0.22242017  1
  Te  Te157  1  0.27808889  0.41285569  0.62032178  1
  Te  Te158  1  0.27525791  0.40522354  0.93730566  1
  Te  Te159  1  0.23087176  0.75046462  0.23435668  1
  Te  Te160  1  0.24405321  0.74386385  0.59222184  1
  Te  Te161  1  0.21611323  0.74104840  0.91228797  1
  Te  Te162  1  0.57485641  0.08018490  0.24280133  1
  Te  Te163  1  0.53578773  0.12443080  0.61885654  1
  Te  Te164  1  0.58520335  0.09441843  0.86998834  1
  Te  Te165  1  0.57647864  0.41119592  0.23281321  1
  Te  Te166  1  0.57675589  0.39788788  0.60683567  1
  Te  Te167  1  0.55301083  0.38343311  0.91975092  1
  Te  Te168  1  0.60161528  0.74139267  0.25660216  1
  Te  Te169  1  0.59517150  0.75940794  0.59737603  1
  Te  Te170  1  0.59942563  0.75514832  0.90114086  1
  Te  Te171  1  0.92625421  0.09780318  0.24804104  1
  Te  Te172  1  0.93465951  0.06852006  0.59060747  1
  Te  Te173  1  0.91384151  0.06603262  0.92982276  1
  Te  Te174  1  0.89879542  0.43218462  0.24806729  1
  Te  Te175  1  0.91251835  0.42788043  0.60350449  1
  Te  Te176  1  0.92673360  0.39580267  0.92353230  1
  Te  Te177  1  0.93986049  0.74473093  0.23470646  1
  Te  Te178  1  0.90774993  0.76854879  0.63213656  1
  Te  Te179  1  0.94843760  0.77962161  0.87667591  1
