# generated using pymatgen
data_In2Te3
_symmetry_space_group_name_H-M   'P 1'
_cell_length_a   19.02620809
_cell_length_b   19.02928837
_cell_length_c   18.99029680
_cell_angle_alpha   89.96679782
_cell_angle_beta   89.91184124
_cell_angle_gamma   89.71323535
_symmetry_Int_Tables_number   1
_chemical_formula_structural   In2Te3
_chemical_formula_sum   'In72 Te108'
_cell_volume   6875.44033511
_cell_formula_units_Z   36
loop_
 _symmetry_equiv_pos_site_id
 _symmetry_equiv_pos_as_xyz
  1  'x, y, z'
loop_
 _atom_site_type_symbol
 _atom_site_label
 _atom_site_symmetry_multiplicity
 _atom_site_fract_x
 _atom_site_fract_y
 _atom_site_fract_z
 _atom_site_occupancy
  In  In0  1  0.83836707  0.85419955  0.67195869  1
  In  In1  1  0.81943820  0.00371659  0.17562784  1
  In  In2  1  0.34892415  -0.00467169  0.34013211  1
  In  In3  1  0.32892619  0.50057644  0.50669246  1
  In  In4  1  0.14856244  0.03229700  0.82445914  1
  In  In5  1  0.85821139  0.16154888  0.66363314  1
  In  In6  1  0.13804683  0.21161162  -0.02539440  1
  In  In7  1  0.50191197  0.16743150  0.34446270  1
  In  In8  1  0.12751806  0.82161930  0.34378923  1
  In  In9  1  0.85227297  0.34356927  0.50843349  1
  In  In10  1  -0.00386339  0.48952080  0.82376620  1
  In  In11  1  0.48272417  0.51778563  0.65543065  1
  In  In12  1  0.30264255  0.83311992  0.81552339  1
  In  In13  1  0.62776277  0.50860077  0.49520122  1
  In  In14  1  0.50630084  0.65800622  0.18192651  1
  In  In15  1  0.65019530  0.66666024  0.67530759  1
  In  In16  1  0.82657589  0.63617081  0.49365759  1
  In  In17  1  -0.00130171  0.82279167  0.51185824  1
  In  In18  1  0.33122656  0.68906400  -0.00135959  1
  In  In19  1  0.66412012  0.33136806  0.67775167  1
  In  In20  1  0.66956283  0.17128406  0.83127685  1
  In  In21  1  0.32990161  0.33307711  0.66339655  1
  In  In22  1  0.15834249  0.18376148  0.66232400  1
  In  In23  1  0.83936565  0.32218738  0.82884320  1
  In  In24  1  0.16055940  0.83074246  0.01516919  1
  In  In25  1  0.00209898  0.00661789  0.00817415  1
  In  In26  1  0.02364258  0.35180275  0.34070460  1
  In  In27  1  0.84931594  0.48427012  0.67716828  1
  In  In28  1  0.67877156  0.48641919  0.17362654  1
  In  In29  1  0.35369291  0.00776632  0.66267257  1
  In  In30  1  0.50325214  0.17746769  -0.01263512  1
  In  In31  1  0.50029727  0.81927829  0.35895049  1
  In  In32  1  0.64173432  0.12979716  0.51429876  1
  In  In33  1  -0.00568706  0.16644158  0.49950777  1
  In  In34  1  0.67219196  0.32646694  0.32185458  1
  In  In35  1  0.68630663  0.84561878  0.51859829  1
  In  In36  1  0.69576670  0.00270270  -0.01201313  1
  In  In37  1  0.52511212  0.33003785  0.16332787  1
  In  In38  1  0.55624082  -0.00649716  0.14572219  1
  In  In39  1  0.00047956  0.66467737  0.69123575  1
  In  In40  1  0.81557275  0.50746626  0.01033627  1
  In  In41  1  0.87052166  0.01593227  0.82656641  1
  In  In42  1  0.66522544  0.83996171  0.84492849  1
  In  In43  1  -0.00946805  -0.00546143  0.35189207  1
  In  In44  1  0.00318422  0.83205646  0.16081161  1
  In  In45  1  0.27785217  0.65228613  0.33173619  1
  In  In46  1  0.50450166  0.83626220  0.66834861  1
  In  In47  1  0.33041757  0.18838878  0.48661977  1
  In  In48  1  0.14625298  -0.01026553  0.51292436  1
  In  In49  1  0.30428673  0.35007261  0.35373806  1
  In  In50  1  0.01477930  0.16334379  0.16741102  1
  In  In51  1  0.21041521  -0.00160530  0.16713325  1
  In  In52  1  0.16948176  0.50261910  0.69903065  1
  In  In53  1  0.34454395  0.01282003  -0.03484203  1
  In  In54  1  0.85167682  0.31146128  0.15515770  1
  In  In55  1  0.34341096  0.50948659  0.14601934  1
  In  In56  1  0.48376207  0.34803455  0.83544155  1
  In  In57  1  0.47542919  0.65413516  0.83962562  1
  In  In58  1  0.84617365  0.47752290  0.33097557  1
  In  In59  1  0.51946743  0.03308379  0.76676507  1
  In  In60  1  0.85746719  0.69473211  0.13026634  1
  In  In61  1  0.16333299  0.43987361  -0.06123844  1
  In  In62  1  0.34764985  0.17983983  0.15019401  1
  In  In63  1  0.84732149  0.68964339  0.92479623  1
  In  In64  1  0.12407823  0.63100662  0.17994998  1
  In  In65  1  0.15109030  0.35600516  0.15977378  1
  In  In66  1  0.67149758  0.00050550  0.34678298  1
  In  In67  1  0.49931341  0.49204787  -0.00956539  1
  In  In68  1  0.28657290  0.80912127  0.51689062  1
  In  In69  1  0.34316879  0.82514780  0.19883985  1
  In  In70  1  0.65609703  0.64954365  0.34270489  1
  In  In71  1  0.51874890  0.86151765  -0.00267874  1
  Te  Te72  1  0.11825406  0.08199557  0.08035004  1
  Te  Te73  1  0.09371424  0.08566860  0.40935127  1
  Te  Te74  1  0.05882173  0.10042789  0.73115976  1
  Te  Te75  1  0.08168314  0.43679538  0.05936798  1
  Te  Te76  1  0.11368470  0.46220310  0.38203755  1
  Te  Te77  1  0.08678526  0.38541267  0.75951611  1
  Te  Te78  1  0.06229580  0.72279548  0.06066298  1
  Te  Te79  1  0.08830690  0.72570876  0.44495329  1
  Te  Te80  1  0.09166427  0.77486990  0.72209926  1
  Te  Te81  1  0.42932763  0.06852536  0.08408276  1
  Te  Te82  1  0.42746838  0.07599604  0.43849420  1
  Te  Te83  1  0.39148674  0.10218088  0.76702017  1
  Te  Te84  1  0.41820024  0.39764147  0.07824888  1
  Te  Te85  1  0.41299457  0.40735293  0.43001890  1
  Te  Te86  1  0.39660436  0.43887675  0.75038078  1
  Te  Te87  1  0.43820597  0.75585707  0.08480798  1
  Te  Te88  1  0.37296524  0.75130350  0.40333039  1
  Te  Te89  1  0.40708414  0.74819449  0.74335079  1
  Te  Te90  1  0.75367122  0.09650464  0.08216518  1
  Te  Te91  1  0.75251603  0.09031540  0.43015496  1
  Te  Te92  1  0.75949078  0.08336945  0.74669320  1
  Te  Te93  1  0.74496149  0.39168305  0.07978605  1
  Te  Te94  1  0.74147629  0.42336672  0.43048683  1
  Te  Te95  1  0.74280409  0.42292920  0.76601677  1
  Te  Te96  1  0.75847049  0.74326116  0.03351419  1
  Te  Te97  1  0.74549213  0.74162925  0.42224171  1
  Te  Te98  1  0.74577523  0.75548195  0.74772989  1
  Te  Te99  1  0.10074968  0.25012858  0.25571166  1
  Te  Te100  1  0.09139461  0.26237682  0.55535237  1
  Te  Te101  1  0.06198952  0.27427391  0.86361351  1
  Te  Te102  1  0.05324641  0.57234547  0.29409695  1
  Te  Te103  1  0.05847868  0.55412385  0.61205469  1
  Te  Te104  1  0.11685378  0.56213180  0.86962793  1
  Te  Te105  1  0.09283872  0.93404112  0.23751836  1
  Te  Te106  1  0.07278229  0.90598479  0.60954878  1
  Te  Te107  1  0.09207585  0.92319524  0.91823643  1
  Te  Te108  1  0.41875072  0.26122603  0.25806965  1
  Te  Te109  1  0.42048630  0.25675872  0.57704501  1
  Te  Te110  1  0.39884725  0.25907137  0.92237453  1
  Te  Te111  1  0.40030558  0.58837535  0.26134200  1
  Te  Te112  1  0.39325624  0.61298341  0.58408673  1
  Te  Te113  1  0.38350055  0.56830729  0.92251368  1
  Te  Te114  1  0.44842199  0.92541763  0.24786252  1
  Te  Te115  1  0.40001518  0.89407076  0.57311578  1
  Te  Te116  1  0.41805995  0.90298115  0.89216892  1
  Te  Te117  1  0.76707875  0.24166886  0.25260537  1
  Te  Te118  1  0.75973524  0.25437431  0.58913006  1
  Te  Te119  1  0.76632196  0.23237956  0.91925306  1
  Te  Te120  1  0.76115218  0.58116065  0.25614768  1
  Te  Te121  1  0.73576818  0.56480209  0.59670603  1
  Te  Te122  1  0.73047586  0.60037264  0.93353459  1
  Te  Te123  1  0.75339727  0.91018208  0.26591671  1
  Te  Te124  1  0.78366589  0.94456374  0.56810673  1
  Te  Te125  1  0.78204170  0.91402043  0.90290287  1
  Te  Te126  1  0.23974390  0.25893393  0.08018756  1
  Te  Te127  1  0.21529083  0.26631950  0.43568710  1
  Te  Te128  1  0.24229225  0.25954999  0.76169995  1
  Te  Te129  1  0.24168196  0.60097025  0.08342575  1
  Te  Te130  1  0.21553365  0.57892821  0.44343366  1
  Te  Te131  1  0.26883035  0.61290301  0.68628291  1
  Te  Te132  1  0.28193980  0.90795244  0.06782389  1
  Te  Te133  1  0.23892794  0.91431953  0.40584257  1
  Te  Te134  1  0.23808527  0.94243652  0.73680578  1
  Te  Te135  1  0.59611782  0.22811896  0.08698216  1
  Te  Te136  1  0.59489317  0.25071001  0.42768284  1
  Te  Te137  1  0.56497692  0.24698475  0.75256330  1
  Te  Te138  1  0.58650282  0.57241896  0.08835357  1
  Te  Te139  1  0.54360292  0.60107493  0.42160810  1
  Te  Te140  1  0.57618801  0.57014286  0.76410055  1
  Te  Te141  1  0.64050278  0.88804369  0.08213916  1
  Te  Te142  1  0.57938003  0.91882658  0.43811751  1
  Te  Te143  1  0.61432331  0.92077073  0.72653058  1
  Te  Te144  1  0.94910892  0.24498030  0.06559733  1
  Te  Te145  1  0.91960171  0.25943498  0.40317482  1
  Te  Te146  1  0.94237495  0.25320396  0.74502625  1
  Te  Te147  1  0.92085792  0.56949773  0.09118803  1
  Te  Te148  1  0.93056129  0.56362213  0.41723774  1
  Te  Te149  1  0.89260457  0.59243757  0.77318298  1
  Te  Te150  1  0.90694414  0.91668058  0.08213682  1
  Te  Te151  1  0.91717637  0.88129557  0.40324583  1
  Te  Te152  1  0.94146177  0.90425554  0.76183112  1
  Te  Te153  1  0.27315745  0.09910683  0.26007062  1
  Te  Te154  1  0.24834280  0.08405406  0.57497041  1
  Te  Te155  1  0.24089968  0.10907634  0.91688558  1
  Te  Te156  1  0.24994681  0.43618054  0.24171535  1
  Te  Te157  1  0.23144300  0.41709829  0.58685562  1
  Te  Te158  1  0.26814054  0.35364281  0.88330921  1
  Te  Te159  1  0.21228632  0.75331493  0.22902949  1
  Te  Te160  1  0.20723262  0.74160590  0.62453969  1
  Te  Te161  1  0.22461680  0.74144633  0.90462641  1
  Te  Te162  1  0.59556775  0.09284197  0.24967238  1
  Te  Te163  1  0.56769009  0.07153729  0.62408556  1
  Te  Te164  1  0.57865313  0.06266929  0.91092732  1
  Te  Te165  1  0.57444357  0.42927455  0.26672720  1
  Te  Te166  1  0.56632552  0.40865815  0.58959613  1
  Te  Te167  1  0.58891841  0.40107440  0.92097404  1
  Te  Te168  1  0.59163880  0.75774808  0.25452857  1
  Te  Te169  1  0.57861543  0.74689291  0.57071647  1
  Te  Te170  1  0.57138956  0.74404210  0.91511427  1
  Te  Te171  1  0.91926124  0.08680409  0.25595633  1
  Te  Te172  1  0.91527442  0.06319041  0.56895204  1
  Te  Te173  1  0.92549217  0.10406374  0.93040872  1
  Te  Te174  1  0.93669548  0.41167150  0.23040412  1
  Te  Te175  1  0.94830457  0.42570245  0.58445372  1
  Te  Te176  1  0.90726465  0.42009390  0.92215615  1
  Te  Te177  1  0.92361559  0.74803141  0.24956828  1
  Te  Te178  1  0.89447749  0.73008136  0.59096883  1
  Te  Te179  1  0.97490171  0.75479324  0.93850493  1
