# generated using pymatgen
data_In2Te3
_symmetry_space_group_name_H-M   'P 1'
_cell_length_a   18.90284770
_cell_length_b   18.87569782
_cell_length_c   18.88686495
_cell_angle_alpha   90.07731246
_cell_angle_beta   89.87297809
_cell_angle_gamma   90.03907564
_symmetry_Int_Tables_number   1
_chemical_formula_structural   In2Te3
_chemical_formula_sum   'In72 Te108'
_cell_volume   6738.89304493
_cell_formula_units_Z   36
loop_
 _symmetry_equiv_pos_site_id
 _symmetry_equiv_pos_as_xyz
  1  'x, y, z'
loop_
 _atom_site_type_symbol
 _atom_site_label
 _atom_site_symmetry_multiplicity
 _atom_site_fract_x
 _atom_site_fract_y
 _atom_site_fract_z
 _atom_site_occupancy
  In  In0  1  0.64697477  0.34715643  0.00552918  1
  In  In1  1  0.28888451  0.33261333  0.31734627  1
  In  In2  1  -0.02632712  0.37241692  0.00193519  1
  In  In3  1  0.13795747  0.81141670  0.34581408  1
  In  In4  1  0.33628203  0.64946560  0.32005572  1
  In  In5  1  0.67977072  0.67228295  0.33987323  1
  In  In6  1  -0.02176292  0.14598949  0.17342915  1
  In  In7  1  0.65895716  0.14912617  0.21369870  1
  In  In8  1  0.84941771  -0.03924241  0.49811037  1
  In  In9  1  0.66772617  -0.02934285  -0.01868149  1
  In  In10  1  -0.01523949  0.31223310  0.34591496  1
  In  In11  1  0.65465062  -0.00621637  0.33783847  1
  In  In12  1  0.33361520  0.33268846  0.65101457  1
  In  In13  1  0.81216281  0.19296577  0.65864500  1
  In  In14  1  0.15486335  0.34753321  0.82256286  1
  In  In15  1  0.50584491  -0.01634403  0.83275846  1
  In  In16  1  0.81927814  0.53993482  0.69506319  1
  In  In17  1  0.51067245  0.33172824  0.51576291  1
  In  In18  1  0.14984115  0.33485048  0.51968248  1
  In  In19  1  0.86298636  0.68926769  0.20290954  1
  In  In20  1  0.51153126  0.32812363  0.83133832  1
  In  In21  1  0.17799333  0.69028783  0.13939091  1
  In  In22  1  -0.00663775  0.82262256  0.80430390  1
  In  In23  1  0.84791839  0.14656835  0.37678920  1
  In  In24  1  0.00674187  0.00036583  -0.00627393  1
  In  In25  1  0.33456926  0.82403352  0.50049016  1
  In  In26  1  0.17057577  0.18837707  0.00824344  1
  In  In27  1  0.31837079  0.48929164  0.48664620  1
  In  In28  1  0.48888390  0.51536428  0.68292702  1
  In  In29  1  0.15645523  0.84097085  0.64688461  1
  In  In30  1  0.20069411  0.66327179  0.86611833  1
  In  In31  1  0.00630526  0.52090783  0.14949961  1
  In  In32  1  0.03236195  0.15139651  0.81842280  1
  In  In33  1  0.85141062  -0.01661287  0.81995355  1
  In  In34  1  0.81569549  0.56295424  -0.05780598  1
  In  In35  1  0.35939377  0.69551070  0.01887432  1
  In  In36  1  0.68119301  0.82197399  0.49801081  1
  In  In37  1  0.16179263  0.12687760  0.41193925  1
  In  In38  1  -0.00884425  0.35595720  0.67125059  1
  In  In39  1  0.50040211  0.50041546  0.32442580  1
  In  In40  1  0.15254716  0.35265093  0.18792607  1
  In  In41  1  0.82917531  0.36517420  0.81566366  1
  In  In42  1  0.51297664  0.66916895  0.48308578  1
  In  In43  1  0.50740858  0.69616387  0.83893935  1
  In  In44  1  0.81229908  0.83786314  0.00001918  1
  In  In45  1  0.65422987  0.52230514  0.14874996  1
  In  In46  1  0.50502912  0.83772877  0.64991545  1
  In  In47  1  0.01169020  0.68174284  -0.01415022  1
  In  In48  1  0.14901591  0.49725259  0.31458201  1
  In  In49  1  0.80886007  0.15249809  0.02074165  1
  In  In50  1  0.16930028  0.11746224  0.65411395  1
  In  In51  1  0.17621806  -0.01300730  0.82046013  1
  In  In52  1  0.31732301  0.67498568  0.66609861  1
  In  In53  1  0.85196109  0.50705574  0.36182492  1
  In  In54  1  0.68040394  0.33105852  0.35570953  1
  In  In55  1  0.67063828  0.18103817  0.83343171  1
  In  In56  1  0.19435539  -0.03780190  0.18705330  1
  In  In57  1  0.51491798  0.14305984  0.67933602  1
  In  In58  1  0.64829122  0.83045999  0.17166705  1
  In  In59  1  0.51100241  0.14746776  0.32400033  1
  In  In60  1  0.83389882  -0.01522979  0.20183566  1
  In  In61  1  -0.01109079  0.14577171  0.50148695  1
  In  In62  1  0.51339726  0.00100008  0.50397444  1
  In  In63  1  0.34141382  0.18804986  0.83174376  1
  In  In64  1  0.33606927  0.33862541  -0.01470319  1
  In  In65  1  0.51435516  0.52302561  -0.02235594  1
  In  In66  1  0.34452144  -0.01921223  0.00178277  1
  In  In67  1  0.34527566  -0.02781886  0.32728496  1
  In  In68  1  0.33066955  0.12904907  0.16389478  1
  In  In69  1  -0.05609495  0.57948035  0.54078618  1
  In  In70  1  0.49386573  0.32282726  0.15851907  1
  In  In71  1  0.81132873  0.35472425  0.16893897  1
  Te  Te72  1  0.09169372  0.08430169  0.08944632  1
  Te  Te73  1  0.06161345  0.02131846  0.45348071  1
  Te  Te74  1  0.05810255  0.03595594  0.72175799  1
  Te  Te75  1  0.09886903  0.43109428  0.06805951  1
  Te  Te76  1  0.06992375  0.41507695  0.41991918  1
  Te  Te77  1  0.07660578  0.44675145  0.74756808  1
  Te  Te78  1  0.06698412  0.77162819  0.08760078  1
  Te  Te79  1  0.04078244  0.75512956  0.44558801  1
  Te  Te80  1  0.11965925  0.75065082  0.76476233  1
  Te  Te81  1  0.42984660  0.07987256  0.06927146  1
  Te  Te82  1  0.41348820  0.07591513  0.41531529  1
  Te  Te83  1  0.40277961  0.07407043  0.75442493  1
  Te  Te84  1  0.43221192  0.42577662  0.06828391  1
  Te  Te85  1  0.41538692  0.40182064  0.40727372  1
  Te  Te86  1  0.40665020  0.41065058  0.75929304  1
  Te  Te87  1  0.43151338  0.79853281  0.10067524  1
  Te  Te88  1  0.42068866  0.75302630  0.39769976  1
  Te  Te89  1  0.40865204  0.76639931  0.74440585  1
  Te  Te90  1  0.73204777  0.04980704  0.10457419  1
  Te  Te91  1  0.74212067  0.06079162  0.44077783  1
  Te  Te92  1  0.75414225  0.08366565  0.75456856  1
  Te  Te93  1  0.75535939  0.44311248  0.05651507  1
  Te  Te94  1  0.75319728  0.42820629  0.43891243  1
  Te  Te95  1  0.73046025  0.42331971  0.72672211  1
  Te  Te96  1  0.75796360  0.74463435  0.10677630  1
  Te  Te97  1  0.78072241  0.72051935  0.44122839  1
  Te  Te98  1  0.79433340  0.69224568  0.70260123  1
  Te  Te99  1  0.07807811  0.23679037  0.25318289  1
  Te  Te100  1  0.07055698  0.23352407  0.60175891  1
  Te  Te101  1  0.06521680  0.26418746  0.92979458  1
  Te  Te102  1  0.08266111  0.61143351  0.24083612  1
  Te  Te103  1  0.08448611  0.60229573  0.58555866  1
  Te  Te104  1  0.09466902  0.57811927  0.92539975  1
  Te  Te105  1  0.07180777  0.90178710  0.24487117  1
  Te  Te106  1  0.06063717  0.93497046  0.58415528  1
  Te  Te107  1  0.08030630  0.90493753  0.90500361  1
  Te  Te108  1  0.41007120  0.24246880  0.25736543  1
  Te  Te109  1  0.42208454  0.22973193  0.58648433  1
  Te  Te110  1  0.44131803  0.24062974  0.93387338  1
  Te  Te111  1  0.44404083  0.59802919  0.23096024  1
  Te  Te112  1  0.40822701  0.58758902  0.56292635  1
  Te  Te113  1  0.40947707  0.59909378  0.90261192  1
  Te  Te114  1  0.39593776  0.90834758  0.20641722  1
  Te  Te115  1  0.40385437  0.93028553  0.58384685  1
  Te  Te116  1  0.41657716  0.89247971  0.90788450  1
  Te  Te117  1  0.77735568  0.23416825  0.26490348  1
  Te  Te118  1  0.75941229  0.26514766  0.54340359  1
  Te  Te119  1  0.75888172  0.26897962  0.92410331  1
  Te  Te120  1  0.76094303  0.57034864  0.24814246  1
  Te  Te121  1  0.78026676  0.62155242  0.56370898  1
  Te  Te122  1  0.70425054  0.63832387  0.87677396  1
  Te  Te123  1  0.74684914  0.88895149  0.27892829  1
  Te  Te124  1  0.76414004  0.89192770  0.59996667  1
  Te  Te125  1  0.74110868  0.89094983  0.87469760  1
  Te  Te126  1  0.26245241  0.26179390  0.10313604  1
  Te  Te127  1  0.25091256  0.25423582  0.43983914  1
  Te  Te128  1  0.23363571  0.23879525  0.73610813  1
  Te  Te129  1  0.27074298  0.59372619  0.08021750  1
  Te  Te130  1  0.22959792  0.58525410  0.41067870  1
  Te  Te131  1  0.26099323  0.57817241  0.75953945  1
  Te  Te132  1  0.23151882  0.90052030  0.05802047  1
  Te  Te133  1  0.24042448  0.90593249  0.41421879  1
  Te  Te134  1  0.25971653  0.91803878  0.72251585  1
  Te  Te135  1  0.60162366  0.23446450  0.09645247  1
  Te  Te136  1  0.58866435  0.23223562  0.42472769  1
  Te  Te137  1  0.59908780  0.26182937  0.72649132  1
  Te  Te138  1  0.58444549  0.62304026  0.06489584  1
  Te  Te139  1  0.60152082  0.56439189  0.41775992  1
  Te  Te140  1  0.58834097  0.60059841  0.75548023  1
  Te  Te141  1  0.56986719  0.87995702  0.05188191  1
  Te  Te142  1  0.57242169  0.89217592  0.41604095  1
  Te  Te143  1  0.59474641  0.91267809  0.73946473  1
  Te  Te144  1  0.91463056  0.25915258  0.09234536  1
  Te  Te145  1  0.89416783  0.27044946  0.46347540  1
  Te  Te146  1  0.91822237  0.24931327  0.76462523  1
  Te  Te147  1  0.90087697  0.59890299  0.07580449  1
  Te  Te148  1  0.95356371  0.61066032  0.39325788  1
  Te  Te149  1  0.92651798  0.63341792  0.75357122  1
  Te  Te150  1  0.90933597  0.92412622  0.08196817  1
  Te  Te151  1  0.92330566  0.85400861  0.42000690  1
  Te  Te152  1  0.89441763  0.88730634  0.71381375  1
  Te  Te153  1  0.23231848  0.08714890  0.27313655  1
  Te  Te154  1  0.23954493  0.07930449  0.53208261  1
  Te  Te155  1  0.24320457  0.09549977  0.91296090  1
  Te  Te156  1  0.26757442  0.45117583  0.22825431  1
  Te  Te157  1  0.23196715  0.43471608  0.59992303  1
  Te  Te158  1  0.25267654  0.42413516  0.90152433  1
  Te  Te159  1  0.25198307  0.75734176  0.25512621  1
  Te  Te160  1  0.22826925  0.73272527  0.55846602  1
  Te  Te161  1  0.26179889  0.77834525  0.93998305  1
  Te  Te162  1  0.55576535  0.03602788  0.23014543  1
  Te  Te163  1  0.60769812  0.06914252  0.59311947  1
  Te  Te164  1  0.58914095  0.08440495  0.91693010  1
  Te  Te165  1  0.59959816  0.40369454  0.24035668  1
  Te  Te166  1  0.57585610  0.44070291  0.58831510  1
  Te  Te167  1  0.60311854  0.43478938  0.89033906  1
  Te  Te168  1  0.57508347  0.72938747  0.25275356  1
  Te  Te169  1  0.59655895  0.73074147  0.59175257  1
  Te  Te170  1  0.60626172  0.73647853  0.94431058  1
  Te  Te171  1  0.93536564  0.05706628  0.28956930  1
  Te  Te172  1  0.88957700  0.07835736  0.59434220  1
  Te  Te173  1  0.91200999  0.09214887  0.91787561  1
  Te  Te174  1  0.92964487  0.41999945  0.24364971  1
  Te  Te175  1  0.89757615  0.44186227  0.59637507  1
  Te  Te176  1  0.92061032  0.46023464  0.89145879  1
  Te  Te177  1  0.93224319  0.79988463  0.27193822  1
  Te  Te178  1  0.98515494  0.70637906  0.62254088  1
  Te  Te179  1  0.90268421  0.75466816  0.90832275  1
