# generated using pymatgen
data_In2Te3
_symmetry_space_group_name_H-M   'P 1'
_cell_length_a   18.94546553
_cell_length_b   18.94083977
_cell_length_c   18.95230852
_cell_angle_alpha   90.04695266
_cell_angle_beta   90.06329120
_cell_angle_gamma   90.11489375
_symmetry_Int_Tables_number   1
_chemical_formula_structural   In2Te3
_chemical_formula_sum   'In72 Te108'
_cell_volume   6800.88363863
_cell_formula_units_Z   36
loop_
 _symmetry_equiv_pos_site_id
 _symmetry_equiv_pos_as_xyz
  1  'x, y, z'
loop_
 _atom_site_type_symbol
 _atom_site_label
 _atom_site_symmetry_multiplicity
 _atom_site_fract_x
 _atom_site_fract_y
 _atom_site_fract_z
 _atom_site_occupancy
  In  In0  1  0.64210099  0.52080356  0.14702140  1
  In  In1  1  0.68010323  0.48373664  0.50491660  1
  In  In2  1  0.66340745  0.14625856  0.15150722  1
  In  In3  1  0.79942101  0.17635771  -0.00484468  1
  In  In4  1  0.67174954  0.35329374  0.66662330  1
  In  In5  1  0.65347900  0.00112454  -0.00527564  1
  In  In6  1  0.49065566  0.81261397  0.70962764  1
  In  In7  1  0.84188723  0.32505976  0.16589718  1
  In  In8  1  0.32787406  0.66250889  0.34231639  1
  In  In9  1  0.51070969  0.32980727  0.15886100  1
  In  In10  1  0.82472212  0.18619063  0.65219619  1
  In  In11  1  0.01324278  0.63188922  0.65799209  1
  In  In12  1  0.83170443  -0.03619395  0.20792653  1
  In  In13  1  0.66056421  0.84218986  0.50283400  1
  In  In14  1  0.48890702  0.48237086  0.31799056  1
  In  In15  1  0.81573682  0.80649565  0.68507872  1
  In  In16  1  0.34621107  -0.01409985  0.70241472  1
  In  In17  1  0.05699568  0.42539621  -0.01587178  1
  In  In18  1  0.31735856  0.52208675  0.50322666  1
  In  In19  1  0.84802893  0.65099091  0.49690764  1
  In  In20  1  0.85696503  0.00857222  0.48210431  1
  In  In21  1  0.81227766  -0.01050821  0.81071158  1
  In  In22  1  -0.00939813  0.17861145  0.80092370  1
  In  In23  1  0.14566364  0.17461543  0.30441355  1
  In  In24  1  0.18629511  0.15660384  0.69533344  1
  In  In25  1  0.82165737  0.66088862  0.15560958  1
  In  In26  1  0.32715391  0.52160346  0.16546906  1
  In  In27  1  0.17595839  0.34146785  0.49368905  1
  In  In28  1  0.49525238  0.22305879  0.41894198  1
  In  In29  1  0.31216620  0.81071040  0.52466026  1
  In  In30  1  0.64474512  -0.01311863  0.66440129  1
  In  In31  1  0.82535724  0.16630139  0.33153946  1
  In  In32  1  0.68891632  -0.01028952  0.32001530  1
  In  In33  1  0.17201333  0.66142385  0.17324206  1
  In  In34  1  0.47076658  0.49084438  0.69609848  1
  In  In35  1  0.63166945  0.18272824  0.84170108  1
  In  In36  1  0.64413004  0.50754122  0.85770209  1
  In  In37  1  0.17893339  -0.01663526  0.14704397  1
  In  In38  1  0.20341424  0.63494914  0.83256507  1
  In  In39  1  0.51496335  0.82199137  0.32323452  1
  In  In40  1  0.83946683  0.81509959  0.03103395  1
  In  In41  1  0.19129194  0.81142670  -0.00711561  1
  In  In42  1  0.36831528  0.79844740  0.14432006  1
  In  In43  1  0.67063654  0.65505193  0.33518808  1
  In  In44  1  0.19126108  -0.02976275  0.53422584  1
  In  In45  1  0.00130238  0.82713953  0.85370666  1
  In  In46  1  0.33512430  0.16982129  0.16350432  1
  In  In47  1  0.18920018  0.22948322  0.01017191  1
  In  In48  1  0.00761580  0.02864019  -0.01026746  1
  In  In49  1  0.83162829  0.50253410  -0.01584343  1
  In  In50  1  0.51804300  0.66882184  0.52611562  1
  In  In51  1  0.00511125  0.64704936  -0.00935253  1
  In  In52  1  0.01151034  0.64961954  0.33275244  1
  In  In53  1  0.00900713  -0.00676486  0.33445499  1
  In  In54  1  0.33165558  0.34085202  0.31894078  1
  In  In55  1  0.03952858  -0.03142875  0.64053090  1
  In  In56  1  0.35408605  0.19737905  0.84427807  1
  In  In57  1  0.22502667  -0.00560480  0.84190146  1
  In  In58  1  0.49411826  0.19959567  0.64449253  1
  In  In59  1  0.46677043  0.63730291  0.85778417  1
  In  In60  1  -0.00386952  0.82541352  0.18836054  1
  In  In61  1  0.01419920  0.20207746  0.17373535  1
  In  In62  1  0.01271301  0.32797012  0.32797241  1
  In  In63  1  0.01169685  0.36839413  0.64840633  1
  In  In64  1  0.17901553  0.34213660  0.82696442  1
  In  In65  1  0.65274951  0.80561537  0.85329849  1
  In  In66  1  0.64240661  0.34217771  -0.01039762  1
  In  In67  1  0.84215192  0.50716192  0.65912256  1
  In  In68  1  0.12926500  0.80597822  0.64933470  1
  In  In69  1  -0.00195357  0.18075467  0.49878199  1
  In  In70  1  0.49543518  -0.00109444  0.15941771  1
  In  In71  1  0.47782926  0.02102020  0.51731968  1
  Te  Te72  1  0.10037685  0.10179211  0.08691089  1
  Te  Te73  1  0.09004044  0.08716287  0.42246981  1
  Te  Te74  1  0.08325832  0.06414431  0.75731183  1
  Te  Te75  1  0.09681255  0.42621774  0.12354709  1
  Te  Te76  1  0.07444928  0.41984075  0.42517313  1
  Te  Te77  1  0.09524098  0.44066947  0.74871196  1
  Te  Te78  1  0.07431065  0.75476046  0.07733309  1
  Te  Te79  1  0.08553118  0.73587294  0.42792566  1
  Te  Te80  1  0.08202839  0.72416355  0.77632790  1
  Te  Te81  1  0.41442345  0.08653576  0.07373678  1
  Te  Te82  1  0.41614873  0.09686299  0.40871142  1
  Te  Te83  1  0.42954405  0.10856472  0.74580524  1
  Te  Te84  1  0.43354045  0.43928866  0.09271592  1
  Te  Te85  1  0.40632714  0.42289101  0.42890838  1
  Te  Te86  1  0.35084803  0.46388935  0.78628279  1
  Te  Te87  1  0.45412322  0.70400712  0.06747554  1
  Te  Te88  1  0.42651489  0.74598801  0.43018178  1
  Te  Te89  1  0.39018499  0.71633009  0.75583319  1
  Te  Te90  1  0.77406175  0.06116277  0.09181698  1
  Te  Te91  1  0.74034604  0.08732614  0.42883192  1
  Te  Te92  1  0.73366097  0.10228650  0.74488691  1
  Te  Te93  1  0.74043447  0.41282923  0.08211554  1
  Te  Te94  1  0.73417562  0.39496786  0.40354291  1
  Te  Te95  1  0.74446599  0.44428930  0.76303365  1
  Te  Te96  1  0.72530535  0.72481732  0.06225189  1
  Te  Te97  1  0.74921177  0.74927233  0.42551268  1
  Te  Te98  1  0.74514241  0.72061770  0.77855654  1
  Te  Te99  1  0.12530205  0.30104504  0.21376641  1
  Te  Te100  1  0.09356622  0.24037587  0.60071451  1
  Te  Te101  1  0.08029939  0.24875394  0.90070921  1
  Te  Te102  1  0.07571421  0.56366621  0.22766117  1
  Te  Te103  1  0.09805455  0.62781782  0.53538146  1
  Te  Te104  1  0.10850633  0.55770375  0.92975665  1
  Te  Te105  1  0.10499177  0.90538649  0.25691858  1
  Te  Te106  1  0.07051139  0.87714359  0.52091653  1
  Te  Te107  1  0.09807458  0.92307652  0.92409364  1
  Te  Te108  1  0.44067947  0.24797688  0.26529217  1
  Te  Te109  1  0.40981413  0.25032513  0.53618694  1
  Te  Te110  1  0.45107858  0.28342558  0.91192177  1
  Te  Te111  1  0.43116869  0.60314201  0.25038678  1
  Te  Te112  1  0.40937101  0.59576375  0.60068103  1
  Te  Te113  1  0.36345047  0.54295338  0.91963913  1
  Te  Te114  1  0.41393039  0.90438428  0.24788348  1
  Te  Te115  1  0.42756523  0.89894309  0.59396489  1
  Te  Te116  1  0.36133495  0.94046635  0.84474112  1
  Te  Te117  1  0.73455156  0.24616717  0.24116720  1
  Te  Te118  1  0.74080077  0.26989033  0.56344783  1
  Te  Te119  1  0.74341552  0.27171138  0.89443087  1
  Te  Te120  1  0.75141866  0.56191172  0.24739414  1
  Te  Te121  1  0.73931086  0.59467278  0.58763451  1
  Te  Te122  1  0.71947588  0.59522778  0.95238162  1
  Te  Te123  1  0.71813168  0.87480649  0.23226508  1
  Te  Te124  1  0.76252493  0.92538003  0.58971861  1
  Te  Te125  1  0.76285576  0.90506876  0.92520556  1
  Te  Te126  1  0.29485698  0.29168005  0.08979134  1
  Te  Te127  1  0.24317562  0.24502356  0.39901341  1
  Te  Te128  1  0.27663994  0.27046868  0.73273607  1
  Te  Te129  1  0.25870528  0.60821893  0.06695478  1
  Te  Te130  1  0.22084718  0.58307327  0.40744067  1
  Te  Te131  1  0.22472856  0.53764256  0.72065715  1
  Te  Te132  1  0.28268725  0.90604558  0.06810340  1
  Te  Te133  1  0.26897248  0.91053901  0.42679681  1
  Te  Te134  1  0.22892333  0.88680599  0.73021316  1
  Te  Te135  1  0.57191686  0.22762316  0.06362441  1
  Te  Te136  1  0.62568220  0.29523429  0.44051420  1
  Te  Te137  1  0.56509957  0.28375268  0.75048967  1
  Te  Te138  1  0.52647713  0.56457310  0.06390171  1
  Te  Te139  1  0.57237617  0.57407376  0.42048083  1
  Te  Te140  1  0.57066278  0.58958930  0.75447405  1
  Te  Te141  1  0.58958575  0.90991369  0.08860882  1
  Te  Te142  1  0.57203562  0.93153683  0.42018856  1
  Te  Te143  1  0.57718255  0.91938809  0.77898754  1
  Te  Te144  1  0.91802744  0.24614424  0.06113592  1
  Te  Te145  1  0.90255914  0.26271060  0.41885882  1
  Te  Te146  1  0.90882881  0.28446840  0.73130415  1
  Te  Te147  1  0.92129846  0.56819749  0.08864821  1
  Te  Te148  1  0.92143583  0.55949739  0.40980276  1
  Te  Te149  1  0.92769357  0.57238091  0.75981364  1
  Te  Te150  1  0.94011116  0.92697442  0.08333681  1
  Te  Te151  1  0.89998646  0.90736249  0.38583985  1
  Te  Te152  1  0.92574138  0.90769277  0.74844428  1
  Te  Te153  1  0.24798922  0.07656209  0.24679900  1
  Te  Te154  1  0.27156316  0.07905228  0.59798444  1
  Te  Te155  1  0.25359827  0.11870446  0.92818419  1
  Te  Te156  1  0.25388939  0.45898087  0.27848791  1
  Te  Te157  1  0.24322250  0.42818823  0.59368718  1
  Te  Te158  1  0.27032695  0.41514136  0.91931198  1
  Te  Te159  1  0.26017726  0.75956426  0.24699392  1
  Te  Te160  1  0.22971946  0.70869906  0.59437963  1
  Te  Te161  1  0.28324646  0.73836096  0.90524620  1
  Te  Te162  1  0.58242270  0.07851084  0.25858577  1
  Te  Te163  1  0.59312530  0.09866030  0.58005804  1
  Te  Te164  1  0.55922840  0.07863615  0.91486402  1
  Te  Te165  1  0.60223810  0.41276727  0.24796244  1
  Te  Te166  1  0.56465488  0.43073494  0.59029903  1
  Te  Te167  1  0.53779631  0.41311543  0.90886786  1
  Te  Te168  1  0.58861401  0.72949663  0.23734243  1
  Te  Te169  1  0.60020001  0.76002026  0.61445602  1
  Te  Te170  1  0.53566543  0.75280582  0.92950220  1
  Te  Te171  1  0.93006672  0.09380734  0.24604119  1
  Te  Te172  1  0.92572505  0.08270739  0.59858938  1
  Te  Te173  1  0.90036496  0.08890035  0.89756722  1
  Te  Te174  1  0.91907631  0.41253601  0.25302418  1
  Te  Te175  1  0.92073792  0.43634904  0.55534492  1
  Te  Te176  1  0.92486886  0.40763730  0.92343773  1
  Te  Te177  1  0.90216771  0.73565993  0.26079004  1
  Te  Te178  1  0.91832307  0.74152805  0.59699798  1
  Te  Te179  1  0.90224810  0.73264204  0.91831023  1
