# generated using pymatgen
data_In2Te3
_symmetry_space_group_name_H-M   'P 1'
_cell_length_a   18.77877874
_cell_length_b   18.78126988
_cell_length_c   18.78008279
_cell_angle_alpha   90.09389903
_cell_angle_beta   90.00005795
_cell_angle_gamma   90.00473698
_symmetry_Int_Tables_number   1
_chemical_formula_structural   In2Te3
_chemical_formula_sum   'In72 Te108'
_cell_volume   6623.52555206
_cell_formula_units_Z   36
loop_
 _symmetry_equiv_pos_site_id
 _symmetry_equiv_pos_as_xyz
  1  'x, y, z'
loop_
 _atom_site_type_symbol
 _atom_site_label
 _atom_site_symmetry_multiplicity
 _atom_site_fract_x
 _atom_site_fract_y
 _atom_site_fract_z
 _atom_site_occupancy
  In  In0  1  0.00444549  0.33959731  -0.00223774  1
  In  In1  1  0.83135450  0.82894167  0.31142179  1
  In  In2  1  0.67538841  -0.00513311  0.33528386  1
  In  In3  1  0.83005111  0.16389099  0.65874450  1
  In  In4  1  0.50485553  0.66055653  0.18542582  1
  In  In5  1  0.15920749  0.65201089  0.50563777  1
  In  In6  1  0.18022244  0.34281067  0.47618641  1
  In  In7  1  0.67576748  0.15244444  0.15330903  1
  In  In8  1  -0.00581948  0.65733471  0.31420067  1
  In  In9  1  0.33216204  0.85493973  0.84342674  1
  In  In10  1  0.51403927  0.48715526  0.65901490  1
  In  In11  1  0.49481852  0.49726718  0.32982856  1
  In  In12  1  0.67264078  0.50000108  0.85183701  1
  In  In13  1  0.49167255  0.83903592  -0.00459002  1
  In  In14  1  -0.01061746  0.84336968  0.50756503  1
  In  In15  1  0.65689839  0.02034332  0.68215218  1
  In  In16  1  0.47580234  0.34393461  0.13206862  1
  In  In17  1  0.33323887  0.01514279  -0.00985418  1
  In  In18  1  0.16425476  0.01212623  0.17340620  1
  In  In19  1  0.01361849  0.83315182  0.82704156  1
  In  In20  1  0.66540181  0.31867509  0.65738074  1
  In  In21  1  0.47813220  0.66551326  0.85148085  1
  In  In22  1  0.67946272  0.79913340  0.16247886  1
  In  In23  1  0.16667873  0.49591301  0.32147670  1
  In  In24  1  0.83816881  0.02124294  0.48342741  1
  In  In25  1  0.30947688  0.48475195  0.49544338  1
  In  In26  1  0.30387080  0.62827339  0.02687849  1
  In  In27  1  0.68247323  0.66273096  0.00506402  1
  In  In28  1  0.63370972  0.66073847  0.32716475  1
  In  In29  1  0.82102188  0.65806075  0.50575364  1
  In  In30  1  0.85166182  0.50647619  0.67286819  1
  In  In31  1  0.01109206  0.16282235  0.15684477  1
  In  In32  1  0.65541936  0.83516157  0.51982300  1
  In  In33  1  0.50964954  0.19248330  0.35496197  1
  In  In34  1  0.68856992  0.66754319  0.66803987  1
  In  In35  1  0.18949314  0.31367417  0.13777834  1
  In  In36  1  0.15684916  0.82552188  -0.01340835  1
  In  In37  1  0.00641334  0.16473927  0.48408404  1
  In  In38  1  0.51468500  0.86182209  0.66620580  1
  In  In39  1  0.83643044  0.00036033  0.84388621  1
  In  In40  1  0.79972081  0.30291120  0.86254451  1
  In  In41  1  0.33128555  0.82430194  0.18076369  1
  In  In42  1  0.84115336  0.66230514  0.14582870  1
  In  In43  1  0.67965799  0.01652650  -0.00318524  1
  In  In44  1  -0.00270961  0.51115542  0.83658142  1
  In  In45  1  0.33045303  0.48458863  0.84897118  1
  In  In46  1  0.47606542  0.18999746  0.65010072  1
  In  In47  1  0.46628422  0.68518283  0.46195604  1
  In  In48  1  0.32033359  0.67771386  0.65008230  1
  In  In49  1  0.19595398  0.33436698  0.85081545  1
  In  In50  1  -0.00422192  0.35068177  0.33617503  1
  In  In51  1  0.50232852  0.32905518  0.85803909  1
  In  In52  1  0.48616709  0.01633481  0.51443324  1
  In  In53  1  0.16813717  -0.00821427  0.49355526  1
  In  In54  1  0.16571241  0.84145962  0.31652801  1
  In  In55  1  0.00455696  0.66312901  0.00111207  1
  In  In56  1  0.68068470  0.48284273  0.17090520  1
  In  In57  1  0.33660883  0.00039320  0.67262460  1
  In  In58  1  0.17864384  0.49337013  0.64901630  1
  In  In59  1  0.81442368  0.47014872  0.34577046  1
  In  In60  1  0.18396646  0.15851582  0.33168078  1
  In  In61  1  0.83108499  0.33755282  0.16487660  1
  In  In62  1  -0.00482472  0.15782923  0.84311200  1
  In  In63  1  -0.00599990  0.34915561  0.65475860  1
  In  In64  1  0.14029327  0.66879439  0.83947600  1
  In  In65  1  0.83366479  0.15626078  0.31063353  1
  In  In66  1  0.16143847  -0.00873424  0.85229111  1
  In  In67  1  0.48436798  -0.02293419  0.17440976  1
  In  In68  1  0.50776859  0.16362233  0.01028623  1
  In  In69  1  0.32532900  0.32503011  0.32773236  1
  In  In70  1  0.83222459  0.82861614  0.67966872  1
  In  In71  1  0.18188162  0.17105791  0.68385062  1
  Te  Te72  1  0.10300376  0.09273830  0.06561776  1
  Te  Te73  1  0.07905037  0.06672185  0.39280116  1
  Te  Te74  1  0.08217203  0.07600236  0.74886938  1
  Te  Te75  1  0.08399573  0.41046714  0.10038609  1
  Te  Te76  1  0.07442641  0.44178881  0.43156392  1
  Te  Te77  1  0.09366553  0.41046907  0.75663345  1
  Te  Te78  1  0.09521651  0.74174126  0.09009948  1
  Te  Te79  1  0.06978129  0.74857120  0.41243666  1
  Te  Te80  1  0.09899747  0.75740136  0.73097575  1
  Te  Te81  1  0.40981856  0.08690749  0.10131074  1
  Te  Te82  1  0.41562665  0.09304791  0.40990471  1
  Te  Te83  1  0.43221908  0.08552139  0.74552831  1
  Te  Te84  1  0.38956178  0.43981320  0.06050778  1
  Te  Te85  1  0.41663169  0.40337291  0.42224958  1
  Te  Te86  1  0.42242148  0.40869714  0.75292004  1
  Te  Te87  1  0.41525103  0.73559549  0.07688144  1
  Te  Te88  1  0.39075415  0.78683298  0.39029380  1
  Te  Te89  1  0.41732782  0.76086299  0.74826574  1
  Te  Te90  1  0.79589361  0.08163429  0.08163335  1
  Te  Te91  1  0.73190545  0.10826892  0.41986534  1
  Te  Te92  1  0.74778387  0.10453231  0.77120480  1
  Te  Te93  1  0.76215800  0.42241978  0.06420555  1
  Te  Te94  1  0.70995651  0.38545986  0.40056587  1
  Te  Te95  1  0.75024581  0.40935517  0.75273529  1
  Te  Te96  1  0.78328679  0.77394903  0.05559159  1
  Te  Te97  1  0.74184148  0.75766055  0.41659601  1
  Te  Te98  1  0.75072086  0.74894220  0.77297408  1
  Te  Te99  1  0.09355698  0.26122872  0.25888643  1
  Te  Te100  1  0.09095992  0.25365188  0.57851487  1
  Te  Te101  1  0.09508969  0.24282440  0.92231839  1
  Te  Te102  1  0.08985264  0.58205947  0.22400034  1
  Te  Te103  1  0.06966263  0.57456169  0.59420398  1
  Te  Te104  1  0.10555514  0.55644556  0.93274611  1
  Te  Te105  1  0.07195261  0.90854864  0.22260702  1
  Te  Te106  1  0.07845087  0.92533922  0.59077146  1
  Te  Te107  1  0.05557519  0.93038149  0.94399898  1
  Te  Te108  1  0.42232969  0.24800770  0.23882422  1
  Te  Te109  1  0.39124699  0.27884154  0.57030054  1
  Te  Te110  1  0.40293924  0.24995825  0.94165847  1
  Te  Te111  1  0.40144122  0.58898235  0.26162946  1
  Te  Te112  1  0.40865547  0.57491168  0.57872419  1
  Te  Te113  1  0.42770934  0.55803550  0.94402346  1
  Te  Te114  1  0.40302123  0.91115006  0.28269659  1
  Te  Te115  1  0.40251841  0.90146768  0.57374378  1
  Te  Te116  1  0.43956546  0.94617641  0.90050806  1
  Te  Te117  1  0.73518055  0.25608035  0.25153554  1
  Te  Te118  1  0.77185465  0.26466153  0.56888223  1
  Te  Te119  1  0.71184588  0.23737616  0.95826020  1
  Te  Te120  1  0.75170810  0.59645678  0.25759138  1
  Te  Te121  1  0.73444047  0.55490555  0.57702272  1
  Te  Te122  1  0.77318697  0.58771507  0.91555420  1
  Te  Te123  1  0.75498450  0.92848678  0.22331897  1
  Te  Te124  1  0.75634982  0.93054817  0.58361124  1
  Te  Te125  1  0.75097362  0.90845999  0.92349004  1
  Te  Te126  1  0.28524227  0.24745067  0.04773042  1
  Te  Te127  1  0.27329488  0.22750869  0.43489578  1
  Te  Te128  1  0.27921093  0.23925509  0.77230561  1
  Te  Te129  1  0.22206628  0.56129708  0.12946086  1
  Te  Te130  1  0.25544147  0.59235729  0.40228743  1
  Te  Te131  1  0.25613165  0.58250921  0.75547472  1
  Te  Te132  1  0.26049185  0.90704031  0.06997443  1
  Te  Te133  1  0.26201462  0.90713720  0.41177868  1
  Te  Te134  1  0.23412249  0.90956711  0.74278126  1
  Te  Te135  1  0.60719690  0.26694875  0.07301889  1
  Te  Te136  1  0.59438528  0.28382316  0.43551980  1
  Te  Te137  1  0.57815811  0.24328312  0.75679544  1
  Te  Te138  1  0.58869506  0.57681921  0.09011182  1
  Te  Te139  1  0.57620051  0.57512415  0.43531823  1
  Te  Te140  1  0.57527909  0.58847139  0.75820165  1
  Te  Te141  1  0.59235321  0.91383627  0.08537592  1
  Te  Te142  1  0.57590752  0.92288947  0.42563122  1
  Te  Te143  1  0.61210216  0.90729749  0.76555603  1
  Te  Te144  1  0.91181551  0.24427889  0.07471042  1
  Te  Te145  1  0.90616365  0.25252559  0.41025156  1
  Te  Te146  1  0.91769445  0.25843053  0.75361176  1
  Te  Te147  1  0.91386983  0.56335436  0.06533369  1
  Te  Te148  1  0.90758606  0.57625514  0.41086219  1
  Te  Te149  1  0.91492646  0.60692102  0.76033566  1
  Te  Te150  1  0.89177244  0.97578068  0.12844104  1
  Te  Te151  1  0.91713283  0.92263176  0.39804885  1
  Te  Te152  1  0.92695781  0.92904730  0.74306644  1
  Te  Te153  1  0.27369839  0.08224485  0.24348778  1
  Te  Te154  1  0.25525605  0.08779616  0.57801062  1
  Te  Te155  1  0.25365036  0.09817945  0.89733627  1
  Te  Te156  1  0.26698029  0.42446637  0.22850180  1
  Te  Te157  1  0.27207032  0.37762383  0.60599441  1
  Te  Te158  1  0.26782426  0.40600999  0.96684645  1
  Te  Te159  1  0.22962787  0.73285675  0.23644969  1
  Te  Te160  1  0.23416367  0.76324916  0.56887904  1
  Te  Te161  1  0.26796707  0.73501738  0.91393871  1
  Te  Te162  1  0.57716794  0.08188409  0.24969965  1
  Te  Te163  1  0.59171461  0.10670090  0.57762037  1
  Te  Te164  1  0.58685428  0.09115751  0.90823327  1
  Te  Te165  1  0.57147052  0.40181896  0.23957417  1
  Te  Te166  1  0.56934753  0.38752040  0.56216646  1
  Te  Te167  1  0.58718407  0.41837305  0.94007788  1
  Te  Te168  1  0.56538722  0.77938745  0.26265265  1
  Te  Te169  1  0.56677021  0.73117946  0.58616648  1
  Te  Te170  1  0.58681405  0.74954474  0.91705954  1
  Te  Te171  1  0.93761711  0.06555010  0.24853505  1
  Te  Te172  1  0.93473964  0.07782329  0.58757045  1
  Te  Te173  1  0.90718288  0.09012424  0.94125066  1
  Te  Te174  1  0.91918272  0.43934575  0.23951123  1
  Te  Te175  1  0.90320531  0.42002175  0.56349262  1
  Te  Te176  1  0.90513898  0.40800662  0.90505228  1
  Te  Te177  1  0.93261541  0.76238663  0.22018610  1
  Te  Te178  1  0.91849174  0.73656386  0.59268011  1
  Te  Te179  1  0.92557967  0.75637853  0.91721014  1
