# generated using pymatgen
data_In2Te3
_symmetry_space_group_name_H-M   'P 1'
_cell_length_a   18.76943986
_cell_length_b   18.76472914
_cell_length_c   18.76173260
_cell_angle_alpha   90.04573332
_cell_angle_beta   89.99648362
_cell_angle_gamma   90.02096378
_symmetry_Int_Tables_number   1
_chemical_formula_structural   In2Te3
_chemical_formula_sum   'In72 Te108'
_cell_volume   6607.94448469
_cell_formula_units_Z   36
loop_
 _symmetry_equiv_pos_site_id
 _symmetry_equiv_pos_as_xyz
  1  'x, y, z'
loop_
 _atom_site_type_symbol
 _atom_site_label
 _atom_site_symmetry_multiplicity
 _atom_site_fract_x
 _atom_site_fract_y
 _atom_site_fract_z
 _atom_site_occupancy
  In  In0  1  0.00730236  0.18385016  0.15650652  1
  In  In1  1  0.34843323  0.00503631  0.68486917  1
  In  In2  1  0.04628537  0.00814030  -0.01785175  1
  In  In3  1  -0.02080488  0.17946620  0.83597014  1
  In  In4  1  0.15587763  0.32539766  0.17191758  1
  In  In5  1  0.83778967  0.16414722  0.35243285  1
  In  In6  1  0.85319285  0.49056648  0.33526691  1
  In  In7  1  0.33679880  0.50644187  0.16394892  1
  In  In8  1  0.17003340  0.64446565  0.19232402  1
  In  In9  1  0.82876380  0.33323953  0.82827006  1
  In  In10  1  0.85581496  0.66416757  0.18426157  1
  In  In11  1  0.30656081  0.67714867  0.65241176  1
  In  In12  1  0.17714072  0.51173902  0.00435562  1
  In  In13  1  0.81391474  0.00222496  0.16344143  1
  In  In14  1  0.00495676  0.00071729  0.63295682  1
  In  In15  1  0.66005124  0.50510219  0.16573602  1
  In  In16  1  0.47994671  0.83999080  0.30451444  1
  In  In17  1  0.47171110  0.81894477  0.02629501  1
  In  In18  1  0.64469071  0.16857037  0.15746749  1
  In  In19  1  0.49493350  0.50966069  0.01187785  1
  In  In20  1  0.65836085  0.82127435  0.17763545  1
  In  In21  1  0.32415515  0.32363480  0.32997309  1
  In  In22  1  0.01224741  0.51275410  0.50899522  1
  In  In23  1  -0.00771058  0.17035027  0.50455551  1
  In  In24  1  0.87118123  0.80700451  0.63191765  1
  In  In25  1  0.69592194  0.00613484  0.35174343  1
  In  In26  1  0.68964283  0.30786676  0.64905794  1
  In  In27  1  0.33642272  0.17325310  0.49997046  1
  In  In28  1  0.83452015  0.34467177  0.17728289  1
  In  In29  1  0.49696221  0.30675237  0.82683840  1
  In  In30  1  0.69896749  0.48778846  0.84432641  1
  In  In31  1  0.32418893  0.51185907  0.83151090  1
  In  In32  1  0.66592003  0.32156642  -0.00145558  1
  In  In33  1  0.32324379  0.65087595  0.34537924  1
  In  In34  1  0.84284284  0.65212569  0.83296808  1
  In  In35  1  0.31013216  0.34577021  0.62455107  1
  In  In36  1  0.66448694  0.00688909  0.65987688  1
  In  In37  1  -0.00309759  0.65566456  0.01227794  1
  In  In38  1  0.49884211  0.16577426  0.33815218  1
  In  In39  1  0.83382583  0.00444143  0.82143525  1
  In  In40  1  0.86468299  0.81163709  0.38173399  1
  In  In41  1  0.00197460  0.34588547  0.66392888  1
  In  In42  1  0.32619586  0.82435368  0.86352751  1
  In  In43  1  0.15168555  0.81885129  0.64773772  1
  In  In44  1  0.14329808  0.17631709  0.66294489  1
  In  In45  1  0.48721461  0.00602630  0.50588555  1
  In  In46  1  0.68920562  0.50173443  0.50489345  1
  In  In47  1  0.04096367  0.83065186  0.81730932  1
  In  In48  1  0.50033971  0.86317160  0.65790789  1
  In  In49  1  0.31742570  0.13534264  0.18167286  1
  In  In50  1  0.62784956  0.03528247  -0.02653595  1
  In  In51  1  0.03149622  0.85231802  0.17277110  1
  In  In52  1  0.13925925  0.52207811  0.35253169  1
  In  In53  1  0.49527424  0.65376359  0.49339560  1
  In  In54  1  0.17433717  0.14860074  0.00098915  1
  In  In55  1  0.48492417  0.32380397  0.49212279  1
  In  In56  1  0.47918024  -0.01811798  0.16319300  1
  In  In57  1  0.50211899  0.50374594  0.67819087  1
  In  In58  1  0.69373745  0.66151403  0.65254903  1
  In  In59  1  0.16657587  0.36608627  0.82901818  1
  In  In60  1  0.65797588  0.35526802  0.34051783  1
  In  In61  1  0.33361804  0.16524742  0.84210036  1
  In  In62  1  0.00582638  0.49833600  0.81557549  1
  In  In63  1  0.17553868  0.00475294  0.84908308  1
  In  In64  1  0.49169116  0.49780968  0.31765536  1
  In  In65  1  0.18004554  -0.02177681  0.48714007  1
  In  In66  1  0.00112597  0.34422013  0.01154503  1
  In  In67  1  0.00742493  -0.01802010  0.33959077  1
  In  In68  1  0.65242955  0.82114994  0.83944248  1
  In  In69  1  0.83483529  0.83555828  0.00962904  1
  In  In70  1  0.68185802  0.83302445  0.49293864  1
  In  In71  1  0.50055718  0.68384355  0.84043592  1
  Te  Te72  1  0.10949220  0.06242171  0.11939315  1
  Te  Te73  1  0.08868828  0.08304854  0.42206075  1
  Te  Te74  1  0.07248286  0.07386103  0.75848652  1
  Te  Te75  1  0.08156908  0.43920958  0.09889414  1
  Te  Te76  1  0.07483922  0.40758480  0.42249804  1
  Te  Te77  1  0.11029834  0.44540045  0.71328144  1
  Te  Te78  1  0.09623813  0.73917641  0.09303182  1
  Te  Te79  1  0.08244876  0.73352917  0.45581539  1
  Te  Te80  1  0.06543727  0.71912647  0.72070760  1
  Te  Te81  1  0.41651235  0.08729687  0.08190648  1
  Te  Te82  1  0.39693409  0.07242342  0.40115411  1
  Te  Te83  1  0.44167372  0.09191007  0.76373586  1
  Te  Te84  1  0.41582405  0.40876384  0.08671373  1
  Te  Te85  1  0.40119117  0.42534401  0.41717878  1
  Te  Te86  1  0.40275584  0.40890694  0.74620673  1
  Te  Te87  1  0.37224613  0.73765158  0.09381856  1
  Te  Te88  1  0.41394905  0.75558894  0.41849710  1
  Te  Te89  1  0.41295269  0.75929988  0.74027086  1
  Te  Te90  1  0.74029944  0.09222230  0.06483958  1
  Te  Te91  1  0.74725386  0.10038596  0.45793186  1
  Te  Te92  1  0.74143768  0.09574161  0.75275512  1
  Te  Te93  1  0.75225698  0.42313438  0.07475570  1
  Te  Te94  1  0.77226365  0.39728347  0.42962110  1
  Te  Te95  1  0.76211620  0.42422774  0.72323296  1
  Te  Te96  1  0.75525645  0.73711859  0.09176311  1
  Te  Te97  1  0.74854024  0.72695603  0.41695723  1
  Te  Te98  1  0.75990222  0.76596969  0.74452262  1
  Te  Te99  1  0.08388093  0.24055639  0.26853988  1
  Te  Te100  1  0.09547347  0.27616182  0.56234995  1
  Te  Te101  1  0.08993610  0.25430736  0.91403935  1
  Te  Te102  1  0.04790631  0.59110952  0.25712116  1
  Te  Te103  1  0.08753424  0.63669677  0.56921475  1
  Te  Te104  1  0.08929402  0.59016924  0.90751542  1
  Te  Te105  1  0.12819286  0.90841664  0.27879796  1
  Te  Te106  1  0.06384671  0.89268739  0.54353906  1
  Te  Te107  1  0.12629896  0.87354608  0.94736487  1
  Te  Te108  1  0.41875044  0.24621722  0.23952293  1
  Te  Te109  1  0.42307856  0.24195225  0.60497432  1
  Te  Te110  1  0.41030133  0.25327639  0.93480563  1
  Te  Te111  1  0.42579802  0.60861565  0.23681568  1
  Te  Te112  1  0.40397089  0.57434682  0.58604354  1
  Te  Te113  1  0.40447914  0.60224066  0.92426716  1
  Te  Te114  1  0.36891592  0.90969410  0.23339875  1
  Te  Te115  1  0.38615068  0.90995700  0.56892006  1
  Te  Te116  1  0.42830727  0.91304490  0.92076413  1
  Te  Te117  1  0.74018021  0.24396983  0.25449296  1
  Te  Te118  1  0.76643177  0.22374011  0.55645504  1
  Te  Te119  1  0.75156103  0.23833400  0.91095626  1
  Te  Te120  1  0.75164351  0.58049672  0.26204394  1
  Te  Te121  1  0.79218365  0.57917770  0.57971387  1
  Te  Te122  1  0.75001353  0.59497060  0.93122654  1
  Te  Te123  1  0.76487468  0.89583262  0.26209568  1
  Te  Te124  1  0.76600025  0.91409329  0.58892830  1
  Te  Te125  1  0.74172624  0.92111412  0.92200505  1
  Te  Te126  1  0.25334330  0.24722209  0.08652400  1
  Te  Te127  1  0.23697109  0.24226793  0.41642370  1
  Te  Te128  1  0.24515660  0.25323324  0.74882302  1
  Te  Te129  1  0.27308124  0.61528230  0.07069408  1
  Te  Te130  1  0.24451789  0.57266825  0.44945724  1
  Te  Te131  1  0.23158890  0.58677493  0.74374400  1
  Te  Te132  1  0.20085904  0.95226022  0.06090118  1
  Te  Te133  1  0.25583610  0.91633923  0.37499118  1
  Te  Te134  1  0.24143779  0.91154953  0.74488750  1
  Te  Te135  1  0.55830388  0.24503567  0.06610208  1
  Te  Te136  1  0.59587674  0.24283815  0.42612645  1
  Te  Te137  1  0.61479183  0.24027243  0.76144049  1
  Te  Te138  1  0.57535465  0.60306243  0.09398898  1
  Te  Te139  1  0.59237845  0.57189765  0.40898636  1
  Te  Te140  1  0.59655564  0.59459692  0.75747690  1
  Te  Te141  1  0.59649644  0.92259777  0.08120355  1
  Te  Te142  1  0.57955714  0.91619470  0.41405841  1
  Te  Te143  1  0.57677592  0.93212543  0.76836399  1
  Te  Te144  1  0.89912245  0.24808596  0.07204787  1
  Te  Te145  1  0.92883795  0.26550675  0.40893087  1
  Te  Te146  1  0.90231231  0.24472659  0.72419964  1
  Te  Te147  1  0.90886229  0.56516631  0.08763497  1
  Te  Te148  1  0.92260267  0.59620842  0.41738607  1
  Te  Te149  1  0.92095141  0.58469830  0.72817178  1
  Te  Te150  1  0.93175623  0.92946340  0.08274920  1
  Te  Te151  1  0.89837209  0.94552639  0.43314922  1
  Te  Te152  1  0.92919278  0.91175674  0.74293989  1
  Te  Te153  1  0.22672945  0.05062717  0.26101292  1
  Te  Te154  1  0.24113834  0.07918198  0.59449102  1
  Te  Te155  1  0.28556248  0.05607206  0.94233530  1
  Te  Te156  1  0.23961194  0.43282000  0.25692218  1
  Te  Te157  1  0.24293212  0.44774401  0.54530586  1
  Te  Te158  1  0.26714835  0.40984974  0.93427569  1
  Te  Te159  1  0.23420133  0.74853037  0.27685276  1
  Te  Te160  1  0.24393812  0.75979429  0.54443942  1
  Te  Te161  1  0.20957536  0.74772382  0.90605166  1
  Te  Te162  1  0.58831039  0.06103300  0.25608968  1
  Te  Te163  1  0.57221347  0.09583701  0.58459719  1
  Te  Te164  1  0.55176767  0.12287530  0.88214103  1
  Te  Te165  1  0.56665958  0.39891730  0.22772794  1
  Te  Te166  1  0.58111111  0.41448865  0.58163676  1
  Te  Te167  1  0.57421206  0.42299779  0.90220780  1
  Te  Te168  1  0.57601822  0.73502853  0.26402000  1
  Te  Te169  1  0.57877610  0.74662316  0.59121275  1
  Te  Te170  1  0.58856306  0.74074895  0.95036579  1
  Te  Te171  1  0.91865969  0.07989331  0.24504980  1
  Te  Te172  1  0.90108047  0.10297467  0.60253891  1
  Te  Te173  1  0.91702991  0.07786377  0.92972285  1
  Te  Te174  1  0.94417647  0.40338651  0.25572814  1
  Te  Te175  1  0.91089741  0.42754477  0.58127331  1
  Te  Te176  1  0.91528496  0.42646808  0.91565217  1
  Te  Te177  1  0.94737531  0.75978492  0.26369921  1
  Te  Te178  1  0.94322524  0.72390644  0.52262143  1
  Te  Te179  1  0.92953514  0.76368825  0.91263012  1
