# generated using pymatgen
data_In2Te3
_symmetry_space_group_name_H-M   'P 1'
_cell_length_a   18.79188989
_cell_length_b   18.79396993
_cell_length_c   18.79429147
_cell_angle_alpha   90.04388499
_cell_angle_beta   90.05912273
_cell_angle_gamma   89.95269665
_symmetry_Int_Tables_number   1
_chemical_formula_structural   In2Te3
_chemical_formula_sum   'In72 Te108'
_cell_volume   6637.65136763
_cell_formula_units_Z   36
loop_
 _symmetry_equiv_pos_site_id
 _symmetry_equiv_pos_as_xyz
  1  'x, y, z'
loop_
 _atom_site_type_symbol
 _atom_site_label
 _atom_site_symmetry_multiplicity
 _atom_site_fract_x
 _atom_site_fract_y
 _atom_site_fract_z
 _atom_site_occupancy
  In  In0  1  0.51048502  0.02567714  0.50139457  1
  In  In1  1  0.15507016  -0.00698751  0.50074472  1
  In  In2  1  0.84592384  0.49097432  0.66797215  1
  In  In3  1  0.81088869  0.31508837  0.16156300  1
  In  In4  1  0.34018118  0.01124412  0.69119477  1
  In  In5  1  -0.02199541  0.14044246  0.50294111  1
  In  In6  1  0.33541724  0.32758101  -0.01635245  1
  In  In7  1  0.14876560  0.17979685  -0.03597164  1
  In  In8  1  0.81134328  0.17882108  0.32982128  1
  In  In9  1  0.64585196  -0.01027386  0.01507496  1
  In  In10  1  0.47443537  0.16996411  -0.00963225  1
  In  In11  1  0.16380448  0.49423405  0.67408326  1
  In  In12  1  0.34645998  0.67072932  0.65239455  1
  In  In13  1  0.51658981  0.66014295  0.51876054  1
  In  In14  1  0.67861975  0.15993122  0.17338934  1
  In  In15  1  0.34596986  0.15487907  0.16123219  1
  In  In16  1  0.82616166  0.68444391  0.18754351  1
  In  In17  1  0.00522618  0.66027146  0.00061548  1
  In  In18  1  0.66780204  0.67700397  0.34282227  1
  In  In19  1  0.00583374  0.16303355  0.16084434  1
  In  In20  1  0.51700389  0.35182093  0.17877768  1
  In  In21  1  0.81888053  0.83438045  0.64635645  1
  In  In22  1  0.80272310  0.50066792  0.34831671  1
  In  In23  1  0.18905293  -0.00478348  0.17596976  1
  In  In24  1  0.84183044  0.67731249  0.50077317  1
  In  In25  1  0.16888640  0.67593692  0.48478410  1
  In  In26  1  0.36373386  0.50827321  0.86133016  1
  In  In27  1  0.32254606  0.83809011  0.49580959  1
  In  In28  1  0.82202634  0.18265495  -0.02401319  1
  In  In29  1  0.16844363  0.67983080  0.83421236  1
  In  In30  1  0.01047236  0.84664925  0.82178418  1
  In  In31  1  0.16164633  0.32202846  0.49613926  1
  In  In32  1  0.50070999  0.83530515  0.32493409  1
  In  In33  1  0.79602703  0.03237164  0.81616869  1
  In  In34  1  0.15581116  0.83284803  0.33588434  1
  In  In35  1  0.82612934  0.64721242  0.80941278  1
  In  In36  1  0.34938329  0.48834708  0.17121535  1
  In  In37  1  0.37206269  0.82198289  0.15832978  1
  In  In38  1  0.52048091  0.01875600  0.81537174  1
  In  In39  1  0.50626867  0.18437240  0.33210486  1
  In  In40  1  0.66910145  -0.00779987  0.34575548  1
  In  In41  1  0.18388638  0.47999066  0.01125862  1
  In  In42  1  -0.01302278  0.48788191  0.50751470  1
  In  In43  1  -0.01288110  -0.00011766  -0.02855055  1
  In  In44  1  0.16693436  0.01155489  0.83540846  1
  In  In45  1  0.82359280  -0.01693596  0.19434172  1
  In  In46  1  0.16724311  0.17915386  0.66757709  1
  In  In47  1  0.51003114  0.82997550  0.67581425  1
  In  In48  1  0.36634898  0.47506180  0.47154941  1
  In  In49  1  -0.02435567  -0.01732848  0.38454536  1
  In  In50  1  0.32663330  0.84021595  0.82769569  1
  In  In51  1  0.32139858  0.01364625  0.00326148  1
  In  In52  1  -0.01041475  -0.00776457  0.64356549  1
  In  In53  1  0.66071846  0.65886573  0.67857566  1
  In  In54  1  0.82313760  0.82763453  -0.00250618  1
  In  In55  1  0.66667643  0.18198481  0.51341569  1
  In  In56  1  0.02345050  0.49683235  0.17913356  1
  In  In57  1  0.16662206  0.64621093  0.16618986  1
  In  In58  1  0.66693419  0.33242706  -0.01777703  1
  In  In59  1  0.00424984  0.33358105  0.32617848  1
  In  In60  1  0.63195204  0.65309235  0.01022227  1
  In  In61  1  0.65192516  0.47255690  0.50367329  1
  In  In62  1  -0.01348300  0.47208112  0.82678843  1
  In  In63  1  0.17708281  0.35542001  0.16558235  1
  In  In64  1  0.35304050  0.64811630  0.31189235  1
  In  In65  1  0.66085042  0.32319130  0.66086227  1
  In  In66  1  0.35103114  0.33534336  0.67668916  1
  In  In67  1  0.34431297  0.19725026  0.50178430  1
  In  In68  1  0.64978507  0.50288951  0.83066582  1
  In  In69  1  0.00253536  0.81186361  0.17607810  1
  In  In70  1  0.51388836  0.83300244  -0.00796616  1
  In  In71  1  0.83534352  0.47679520  0.01213440  1
  Te  Te72  1  0.09079725  0.07337246  0.06904669  1
  Te  Te73  1  0.08418780  0.08971234  0.40610645  1
  Te  Te74  1  0.07306144  0.08355705  0.74165182  1
  Te  Te75  1  0.06632948  0.40111234  0.06789413  1
  Te  Te76  1  0.08925799  0.42740225  0.41010670  1
  Te  Te77  1  0.07921690  0.38744128  0.73883044  1
  Te  Te78  1  0.10035967  0.75195068  0.07574618  1
  Te  Te79  1  0.06315314  0.76506644  0.42850855  1
  Te  Te80  1  0.07996377  0.74726796  0.73840555  1
  Te  Te81  1  0.43846828  0.05760026  0.09012807  1
  Te  Te82  1  0.41145773  0.09087844  0.40833094  1
  Te  Te83  1  0.43377877  0.11339433  0.73899929  1
  Te  Te84  1  0.43203943  0.41197006  0.06617271  1
  Te  Te85  1  0.46007493  0.39303743  0.38960683  1
  Te  Te86  1  0.43914049  0.41508925  0.77020992  1
  Te  Te87  1  0.42162373  0.72774823  0.05243655  1
  Te  Te88  1  0.41484176  0.73628658  0.42877350  1
  Te  Te89  1  0.42480511  0.74011735  0.76462252  1
  Te  Te90  1  0.77176371  0.07931905  0.08013124  1
  Te  Te91  1  0.75753038  0.08030597  0.43192211  1
  Te  Te92  1  0.71152519  0.11554401  0.72533598  1
  Te  Te93  1  0.72038421  0.42160231  0.09552754  1
  Te  Te94  1  0.75966359  0.39364977  0.43914783  1
  Te  Te95  1  0.74775321  0.41552257  0.75420734  1
  Te  Te96  1  0.73137199  0.74783148  0.08640430  1
  Te  Te97  1  0.75778108  0.77054767  0.41809290  1
  Te  Te98  1  0.74096360  0.76141647  0.76045068  1
  Te  Te99  1  0.10041500  0.24680189  0.24601913  1
  Te  Te100  1  0.06142593  0.24652828  0.58152226  1
  Te  Te101  1  0.06787706  0.26728175  0.87933636  1
  Te  Te102  1  0.07779144  0.59698721  0.27167040  1
  Te  Te103  1  0.08606337  0.58226536  0.57746440  1
  Te  Te104  1  0.08585066  0.56386178  0.91406478  1
  Te  Te105  1  0.06815259  0.93176950  0.25077168  1
  Te  Te106  1  0.06596630  0.89290843  0.56358819  1
  Te  Te107  1  0.10164697  0.90795801  0.92740292  1
  Te  Te108  1  0.40807631  0.26587465  0.24550025  1
  Te  Te109  1  0.44479317  0.25120081  0.59527121  1
  Te  Te110  1  0.43073257  0.26534795  0.88648949  1
  Te  Te111  1  0.45563597  0.58743268  0.21970681  1
  Te  Te112  1  0.42661801  0.55762655  0.58769192  1
  Te  Te113  1  0.42901161  0.60061160  0.95700138  1
  Te  Te114  1  0.40410118  0.92478697  0.25879281  1
  Te  Te115  1  0.41660611  0.92022876  0.58612886  1
  Te  Te116  1  0.41917353  0.93514975  0.90712794  1
  Te  Te117  1  0.70976965  0.27547754  0.27107640  1
  Te  Te118  1  0.77337526  0.26008993  0.58412775  1
  Te  Te119  1  0.73302614  0.24823951  0.87370299  1
  Te  Te120  1  0.73161648  0.57634044  0.23817373  1
  Te  Te121  1  0.74837736  0.57996190  0.57876213  1
  Te  Te122  1  0.75675889  0.57869930  0.92696962  1
  Te  Te123  1  0.73658931  0.88821808  0.26238612  1
  Te  Te124  1  0.77490155  0.94785520  0.56167705  1
  Te  Te125  1  0.74104108  0.92547024  0.91429013  1
  Te  Te126  1  0.24577748  0.24259809  0.07651890  1
  Te  Te127  1  0.25815894  0.26251771  0.40180499  1
  Te  Te128  1  0.25289867  0.25832311  0.75709058  1
  Te  Te129  1  0.27121247  0.58466467  0.07590507  1
  Te  Te130  1  0.26431334  0.57842926  0.41548863  1
  Te  Te131  1  0.26604093  0.58096589  0.75114832  1
  Te  Te132  1  0.25975149  0.89930868  0.08130113  1
  Te  Te133  1  0.25430236  0.93170915  0.39895226  1
  Te  Te134  1  0.23006259  0.91472974  0.73476388  1
  Te  Te135  1  0.58262091  0.23887565  0.08391577  1
  Te  Te136  1  0.56288051  0.26734423  0.44410727  1
  Te  Te137  1  0.61483210  0.22909763  0.77003368  1
  Te  Te138  1  0.54356648  0.56429026  0.08785763  1
  Te  Te139  1  0.57878575  0.57126495  0.41165107  1
  Te  Te140  1  0.55655472  0.59204672  0.75806085  1
  Te  Te141  1  0.57966694  0.89895011  0.10837895  1
  Te  Te142  1  0.58000871  0.90619320  0.43556540  1
  Te  Te143  1  0.60436596  0.92630900  0.73578797  1
  Te  Te144  1  0.92060122  0.25338565  0.07259748  1
  Te  Te145  1  0.91312446  0.25260338  0.41544731  1
  Te  Te146  1  0.94949812  0.30331925  0.78362497  1
  Te  Te147  1  0.91417046  0.58438102  0.09644018  1
  Te  Te148  1  0.91708597  0.58096946  0.40664844  1
  Te  Te149  1  0.94378702  0.58829767  0.73497708  1
  Te  Te150  1  0.91988934  0.91452328  0.08177429  1
  Te  Te151  1  0.86834089  0.90397751  0.45161918  1
  Te  Te152  1  0.89785638  0.92569936  0.75746600  1
  Te  Te153  1  0.25220907  0.09742913  0.25963522  1
  Te  Te154  1  0.25308843  0.08204554  0.57782299  1
  Te  Te155  1  0.26764725  0.10788756  0.89660642  1
  Te  Te156  1  0.24897745  0.43588434  0.26556316  1
  Te  Te157  1  0.25583448  0.41880349  0.57496994  1
  Te  Te158  1  0.24590583  0.41063196  0.89199727  1
  Te  Te159  1  0.25625863  0.75054387  0.25001500  1
  Te  Te160  1  0.23755712  0.75994481  0.59485294  1
  Te  Te161  1  0.25612995  0.75405453  0.92489955  1
  Te  Te162  1  0.58050378  0.07501377  0.25232679  1
  Te  Te163  1  0.60098172  0.08168357  0.60644334  1
  Te  Te164  1  0.59420637  0.09872216  0.92428466  1
  Te  Te165  1  0.57500971  0.42726608  0.29297020  1
  Te  Te166  1  0.56329587  0.42431326  0.61116304  1
  Te  Te167  1  0.56352776  0.41106020  0.91022383  1
  Te  Te168  1  0.57260156  0.73536878  0.24360155  1
  Te  Te169  1  0.60948760  0.76412941  0.57808095  1
  Te  Te170  1  0.59982309  0.75034632  0.90480128  1
  Te  Te171  1  0.91603700  0.08675748  0.26016683  1
  Te  Te172  1  0.88987368  0.09916065  0.61533094  1
  Te  Te173  1  0.91675939  0.10221803  0.88475419  1
  Te  Te174  1  0.90309223  0.41339503  0.24173646  1
  Te  Te175  1  0.91473152  0.38673336  0.58802423  1
  Te  Te176  1  0.88845129  0.38616572  0.90617564  1
  Te  Te177  1  0.91456555  0.75759454  0.27965762  1
  Te  Te178  1  0.92720301  0.74545466  0.60123542  1
  Te  Te179  1  0.91789569  0.74450408  0.90810175  1
