# generated using pymatgen
data_In2Te3
_symmetry_space_group_name_H-M   'P 1'
_cell_length_a   18.92830728
_cell_length_b   18.93508715
_cell_length_c   18.93925344
_cell_angle_alpha   89.84939666
_cell_angle_beta   89.95624750
_cell_angle_gamma   90.05048056
_symmetry_Int_Tables_number   1
_chemical_formula_structural   In2Te3
_chemical_formula_sum   'In72 Te108'
_cell_volume   6787.97361299
_cell_formula_units_Z   36
loop_
 _symmetry_equiv_pos_site_id
 _symmetry_equiv_pos_as_xyz
  1  'x, y, z'
loop_
 _atom_site_type_symbol
 _atom_site_label
 _atom_site_symmetry_multiplicity
 _atom_site_fract_x
 _atom_site_fract_y
 _atom_site_fract_z
 _atom_site_occupancy
  In  In0  1  0.82827172  0.50727424  0.73882889  1
  In  In1  1  0.66702042  0.04108537  0.01764720  1
  In  In2  1  0.01128178  0.31094417  0.32134490  1
  In  In3  1  0.47482234  0.02768616  0.14933759  1
  In  In4  1  0.01315094  0.86615859  0.52022631  1
  In  In5  1  0.33724915  0.49269150  0.50415768  1
  In  In6  1  0.69796142  0.84067466  0.80411263  1
  In  In7  1  0.68111146  0.66295352  0.30792860  1
  In  In8  1  0.33850378  0.03275761  0.01494670  1
  In  In9  1  0.16430602  0.68151693  0.14136429  1
  In  In10  1  0.34737429  0.83442165  0.17124836  1
  In  In11  1  0.49892931  0.62639079  0.15588340  1
  In  In12  1  0.84017103  0.00297794  0.83874600  1
  In  In13  1  0.01207430  0.14173430  0.80809150  1
  In  In14  1  0.01725517  0.50349977  0.13119680  1
  In  In15  1  0.66041359  0.32942304  0.66693668  1
  In  In16  1  0.17302347  0.46718631  0.70380307  1
  In  In17  1  0.00558227  0.52456990  0.49565961  1
  In  In18  1  0.15523801  0.84954396  0.34643056  1
  In  In19  1  0.66210935  0.33224571  0.32494231  1
  In  In20  1  0.14937830  0.82492068  0.01032427  1
  In  In21  1  -0.01322645  0.00696073  0.00569639  1
  In  In22  1  0.84371307  0.63168195  0.15631354  1
  In  In23  1  0.00528468  0.69898020  0.31823770  1
  In  In24  1  -0.01017555  0.82553125  0.84408916  1
  In  In25  1  -0.01353382  0.18569595  0.14107341  1
  In  In26  1  0.50099611  0.65743603  0.83680457  1
  In  In27  1  0.84883755  0.83414834  0.36963905  1
  In  In28  1  0.84030211  0.33558419  0.13856787  1
  In  In29  1  -0.01720948  0.34788807  0.70198040  1
  In  In30  1  0.29147302  0.81872131  0.78107294  1
  In  In31  1  0.48619704  0.17576605  0.29754703  1
  In  In32  1  0.18240184  0.21158801  -0.00584079  1
  In  In33  1  0.64838741  0.20313229  0.84624653  1
  In  In34  1  0.62307109  0.34148456  -0.00284082  1
  In  In35  1  0.82873426  0.82115694  -0.01625005  1
  In  In36  1  0.48841932  0.65561783  0.50087349  1
  In  In37  1  0.33691568  0.31850802  0.68051488  1
  In  In38  1  0.68552926  0.62954008  -0.02815473  1
  In  In39  1  0.67193069  0.84431077  0.15900407  1
  In  In40  1  0.16123132  0.01342425  0.18651315  1
  In  In41  1  0.35502128  0.65232634  0.32409771  1
  In  In42  1  0.67799757  0.17921899  0.50696676  1
  In  In43  1  0.15161629  0.29744054  0.49612036  1
  In  In44  1  0.33605317  0.00956257  0.67745216  1
  In  In45  1  0.69004131  0.82881822  0.55263835  1
  In  In46  1  0.19264303  0.46654873  -0.01512808  1
  In  In47  1  0.49286509  0.81804349  -0.01987972  1
  In  In48  1  0.49687919  0.47409830  0.66648122  1
  In  In49  1  0.16891909  0.02264542  0.51709418  1
  In  In50  1  0.35658935  0.18832154  0.50030522  1
  In  In51  1  0.33744363  0.18726303  0.84837542  1
  In  In52  1  0.81616082  0.34464462  0.52176857  1
  In  In53  1  0.51528352  0.00263128  0.83199855  1
  In  In54  1  0.51838275  0.82683403  0.35811693  1
  In  In55  1  0.00024798  0.12457840  0.54410552  1
  In  In56  1  0.19093410  0.69600163  0.54761342  1
  In  In57  1  0.84758623  0.16653582  0.33387965  1
  In  In58  1  0.65585923  0.02560705  0.34486611  1
  In  In59  1  0.67302862  0.66689228  0.68176140  1
  In  In60  1  0.68127253  0.00631894  0.66416189  1
  In  In61  1  0.51307461  0.48953192  0.32214149  1
  In  In62  1  0.32351104  0.33956942  0.31811144  1
  In  In63  1  0.30732013  -0.00378340  0.33463024  1
  In  In64  1  -0.00135173  0.66682706  0.66341538  1
  In  In65  1  0.18703788  0.48927012  0.31814545  1
  In  In66  1  0.49695216  0.01370310  0.52354170  1
  In  In67  1  0.82204631  0.48849237  0.31428222  1
  In  In68  1  0.31683152  0.62961507  -0.02318520  1
  In  In69  1  0.15727710  0.65006444  0.83302012  1
  In  In70  1  0.81251938  0.01779873  0.16181377  1
  In  In71  1  0.82648501  0.64725601  0.52104539  1
  Te  Te72  1  0.09650610  0.09114267  0.07147108  1
  Te  Te73  1  0.07212040  0.08214423  0.42341772  1
  Te  Te74  1  0.07250439  0.04375094  0.71231212  1
  Te  Te75  1  0.07779775  0.39365354  0.05220415  1
  Te  Te76  1  0.08508209  0.41957521  0.41710785  1
  Te  Te77  1  0.08825689  0.39231895  0.80000015  1
  Te  Te78  1  0.04828562  0.74010743  0.07487665  1
  Te  Te79  1  0.08492373  0.73979076  0.44115538  1
  Te  Te80  1  0.08704220  0.75565580  0.74944197  1
  Te  Te81  1  0.41674978  0.14618295  0.07602984  1
  Te  Te82  1  0.42385978  0.07833908  0.40582465  1
  Te  Te83  1  0.42915071  0.10069247  0.75654492  1
  Te  Te84  1  0.36338599  0.38415346  0.02736813  1
  Te  Te85  1  0.42234854  0.40765308  0.41394857  1
  Te  Te86  1  0.38238821  0.43852215  0.75770145  1
  Te  Te87  1  0.40867842  0.73034775  0.07809974  1
  Te  Te88  1  0.40200518  0.75639633  0.42585658  1
  Te  Te89  1  0.42468103  0.75604471  0.75743129  1
  Te  Te90  1  0.77067713  0.12733865  0.07355540  1
  Te  Te91  1  0.76768288  0.08155148  0.43165806  1
  Te  Te92  1  0.73176331  0.09024558  0.77840671  1
  Te  Te93  1  0.74234982  0.41152098  0.06089281  1
  Te  Te94  1  0.73473219  0.42599356  0.42102972  1
  Te  Te95  1  0.74509961  0.38345538  0.77818339  1
  Te  Te96  1  0.73689999  0.73216966  0.08072210  1
  Te  Te97  1  0.73537553  0.74214472  0.42809251  1
  Te  Te98  1  0.78522116  0.73678307  0.74916587  1
  Te  Te99  1  0.09209238  0.22724839  0.23491906  1
  Te  Te100  1  0.05811110  0.24991428  0.60437005  1
  Te  Te101  1  0.09342389  0.24834272  0.87963393  1
  Te  Te102  1  0.08308829  0.58722965  0.25250984  1
  Te  Te103  1  0.10957327  0.57282163  0.59885692  1
  Te  Te104  1  0.09985102  0.57927118  0.94742561  1
  Te  Te105  1  0.07925551  0.90136979  0.23363870  1
  Te  Te106  1  0.11661205  0.91783301  0.61194119  1
  Te  Te107  1  0.07883437  0.92383770  0.91843316  1
  Te  Te108  1  0.43591316  0.29674972  0.22892210  1
  Te  Te109  1  0.44011180  0.27609360  0.58277120  1
  Te  Te110  1  0.41834648  0.29888632  0.90878513  1
  Te  Te111  1  0.39834972  0.54081384  0.23188870  1
  Te  Te112  1  0.40433688  0.58414937  0.60256378  1
  Te  Te113  1  0.43695661  0.55503770  0.92897145  1
  Te  Te114  1  0.43389618  0.92008959  0.26273987  1
  Te  Te115  1  0.40968190  0.91735060  0.58861158  1
  Te  Te116  1  0.41324119  0.93359486  0.92192120  1
  Te  Te117  1  0.76210706  0.25268907  0.24372865  1
  Te  Te118  1  0.77471928  0.23122650  0.61074182  1
  Te  Te119  1  0.74418802  0.29042268  0.92022001  1
  Te  Te120  1  0.72636043  0.55299110  0.21587903  1
  Te  Te121  1  0.74758067  0.55701870  0.60782273  1
  Te  Te122  1  0.75283777  0.54439314  0.87102956  1
  Te  Te123  1  0.74314248  0.91859991  0.26938987  1
  Te  Te124  1  0.78260878  0.93701197  0.58206869  1
  Te  Te125  1  0.72971456  0.93215284  0.93168464  1
  Te  Te126  1  0.26663161  0.28226302  0.09234021  1
  Te  Te127  1  0.24996468  0.23314362  0.40115790  1
  Te  Te128  1  0.24007940  0.22770540  0.74343151  1
  Te  Te129  1  0.24817951  0.56624589  0.09482644  1
  Te  Te130  1  0.25067948  0.58811288  0.41853841  1
  Te  Te131  1  0.25966987  0.57080577  0.76325857  1
  Te  Te132  1  0.25482019  0.91765814  0.08526478  1
  Te  Te133  1  0.25092251  0.91011040  0.44431189  1
  Te  Te134  1  0.23352957  0.95370792  0.76864007  1
  Te  Te135  1  0.55105472  0.22492475  0.05566280  1
  Te  Te136  1  0.57964302  0.23505278  0.40669802  1
  Te  Te137  1  0.55712506  0.27785614  0.75972729  1
  Te  Te138  1  0.57798269  0.55730081  0.05003664  1
  Te  Te139  1  0.58791806  0.58991687  0.40745566  1
  Te  Te140  1  0.58583660  0.56467996  0.75206956  1
  Te  Te141  1  0.56407064  0.91635068  0.08081657  1
  Te  Te142  1  0.60073787  0.92108844  0.44484637  1
  Te  Te143  1  0.58320369  0.90882051  0.73415873  1
  Te  Te144  1  0.94555517  0.29038724  0.04329505  1
  Te  Te145  1  0.91216252  0.26705943  0.42742252  1
  Te  Te146  1  0.90854900  0.23615461  0.76066702  1
  Te  Te147  1  0.90282507  0.55008909  0.05182313  1
  Te  Te148  1  0.90596343  0.59064827  0.39725499  1
  Te  Te149  1  0.96657092  0.56813131  0.77251725  1
  Te  Te150  1  0.89557723  0.91360594  0.08339874  1
  Te  Te151  1  0.94725703  0.93483092  0.40797968  1
  Te  Te152  1  0.91257453  0.91091066  0.74779185  1
  Te  Te153  1  0.27215893  0.09618715  0.23442490  1
  Te  Te154  1  0.26069471  0.11606744  0.59327946  1
  Te  Te155  1  0.23843620  0.09100327  0.91800592  1
  Te  Te156  1  0.21776219  0.38274821  0.22017064  1
  Te  Te157  1  0.23865808  0.39717154  0.57338285  1
  Te  Te158  1  0.28727516  0.39070189  0.89398592  1
  Te  Te159  1  0.25095430  0.75109259  0.25635076  1
  Te  Te160  1  0.28472004  0.75942676  0.63798348  1
  Te  Te161  1  0.25645279  0.75877803  0.92291755  1
  Te  Te162  1  0.59340222  0.09350670  0.22598251  1
  Te  Te163  1  0.58390410  0.10678747  0.60317771  1
  Te  Te164  1  0.55800429  0.10697937  0.93620609  1
  Te  Te165  1  0.57551315  0.39789800  0.22374988  1
  Te  Te166  1  0.57997986  0.40453461  0.56760107  1
  Te  Te167  1  0.55199756  0.44891888  0.92222615  1
  Te  Te168  1  0.56694573  0.74388645  0.23683608  1
  Te  Te169  1  0.57417195  0.74367769  0.59463351  1
  Te  Te170  1  0.60946855  0.75217019  0.90577383  1
  Te  Te171  1  0.92725175  0.08028444  0.23876478  1
  Te  Te172  1  0.93424309  0.04042900  0.64652491  1
  Te  Te173  1  0.90986435  0.10640957  0.92312594  1
  Te  Te174  1  0.93571890  0.41916814  0.24159525  1
  Te  Te175  1  0.92269345  0.43407765  0.58525824  1
  Te  Te176  1  0.89836488  0.46459404  0.86723164  1
  Te  Te177  1  0.88469318  0.75229405  0.24631885  1
  Te  Te178  1  0.91454099  0.75682049  0.57473414  1
  Te  Te179  1  0.89150674  0.72485416  0.89306290  1
