# generated using pymatgen
data_In2Te3
_symmetry_space_group_name_H-M   'P 1'
_cell_length_a   18.93803464
_cell_length_b   18.94694025
_cell_length_c   18.95525854
_cell_angle_alpha   89.89150741
_cell_angle_beta   90.13741616
_cell_angle_gamma   89.80564347
_symmetry_Int_Tables_number   1
_chemical_formula_structural   In2Te3
_chemical_formula_sum   'In72 Te108'
_cell_volume   6801.41338236
_cell_formula_units_Z   36
loop_
 _symmetry_equiv_pos_site_id
 _symmetry_equiv_pos_as_xyz
  1  'x, y, z'
loop_
 _atom_site_type_symbol
 _atom_site_label
 _atom_site_symmetry_multiplicity
 _atom_site_fract_x
 _atom_site_fract_y
 _atom_site_fract_z
 _atom_site_occupancy
  In  In0  1  0.32828896  0.80888295  0.84398461  1
  In  In1  1  0.01389755  0.34378379  0.36188040  1
  In  In2  1  0.65935640  0.82813652  0.16161345  1
  In  In3  1  0.85218939  0.00196185  0.15094747  1
  In  In4  1  0.47262539  -0.00951281  0.82232629  1
  In  In5  1  0.60045649  0.34021606  0.04247245  1
  In  In6  1  0.83836262  0.66662631  0.51035639  1
  In  In7  1  0.01874070  0.67359088  -0.01401129  1
  In  In8  1  0.47774040  0.16784865  0.34700480  1
  In  In9  1  0.48582154  0.65401082  0.85757414  1
  In  In10  1  0.15664960  0.69383167  0.50675982  1
  In  In11  1  0.51278582  0.84475526  -0.01354341  1
  In  In12  1  0.52118389  0.91386995  0.62470788  1
  In  In13  1  0.18030372  0.51298862  0.03297392  1
  In  In14  1  0.16321729  0.31909199  0.81469055  1
  In  In15  1  0.37202912  0.66081835  0.68188721  1
  In  In16  1  -0.00473010  0.52444881  0.19458418  1
  In  In17  1  0.14880079  0.16477423  0.67665368  1
  In  In18  1  0.67627587  0.48608338  0.81421297  1
  In  In19  1  0.83318763  0.83115665  0.36539335  1
  In  In20  1  0.17715813  0.82238528  -0.00063597  1
  In  In21  1  0.84184782  0.51779720  0.66135486  1
  In  In22  1  0.81236771  0.67262956  0.17602551  1
  In  In23  1  0.85120109  0.15987818  0.64769734  1
  In  In24  1  0.17053300  0.51700292  0.67368096  1
  In  In25  1  0.84342272  0.29324269  0.84169090  1
  In  In26  1  -0.00100448  0.34084020  0.64921761  1
  In  In27  1  0.02576193  0.67835771  0.33786883  1
  In  In28  1  0.16685515  0.81649996  0.31409406  1
  In  In29  1  0.00088486  0.68531949  0.68074538  1
  In  In30  1  0.34779763  0.15925648  0.16791250  1
  In  In31  1  0.81935074  0.13980385  -0.02111160  1
  In  In32  1  0.16334791  0.00144502  0.49289627  1
  In  In33  1  0.82002335  0.34830896  0.48979319  1
  In  In34  1  0.64995419  0.34853548  0.65434690  1
  In  In35  1  0.32478708  0.48121102  0.84094846  1
  In  In36  1  0.48006984  0.33908829  0.83697741  1
  In  In37  1  0.45996556  0.64466431  0.16531619  1
  In  In38  1  0.03149307  0.32221960  -0.00161286  1
  In  In39  1  0.33194730  0.01449453  0.64193406  1
  In  In40  1  0.18034971  -0.00368224  0.83258739  1
  In  In41  1  0.61595509  0.63860969  0.36043208  1
  In  In42  1  0.33191128  0.84881445  0.16557482  1
  In  In43  1  0.19727976  0.36687860  0.20651898  1
  In  In44  1  -0.00520880  0.83599248  0.13963893  1
  In  In45  1  0.70352729  0.83079867  0.81128289  1
  In  In46  1  0.34922743  0.66976828  0.35715983  1
  In  In47  1  0.20302830  0.17658010  0.32931875  1
  In  In48  1  0.33415875  0.85195996  0.51003163  1
  In  In49  1  0.84243914  0.68079610  0.84092899  1
  In  In50  1  0.82027154  0.50910739  0.34384918  1
  In  In51  1  0.14919780  0.84183382  0.66268772  1
  In  In52  1  0.84338577  -0.00892269  0.79236417  1
  In  In53  1  0.62379141  0.18240737  0.17823032  1
  In  In54  1  0.67665577  0.92275708  0.53401629  1
  In  In55  1  0.68247030  0.01439502  0.32559588  1
  In  In56  1  0.19582913  0.16141077  -0.00416682  1
  In  In57  1  0.82052156  0.16688234  0.34627207  1
  In  In58  1  0.65428732  0.18710532  0.83552258  1
  In  In59  1  0.35448109  0.35560647  0.02790022  1
  In  In60  1  0.00054584  0.00016122  0.33347698  1
  In  In61  1  0.35496112  0.31482026  0.64121075  1
  In  In62  1  0.83769085  0.46539237  0.01213327  1
  In  In63  1  0.48945990  0.32966814  0.47559723  1
  In  In64  1  0.03641820  0.16318624  0.14641372  1
  In  In65  1  0.48845127  0.84412178  0.32220890  1
  In  In66  1  0.68091242  0.66335231  0.01836116  1
  In  In67  1  0.62953767  0.65324423  0.63936003  1
  In  In68  1  0.59837733  0.48580510  0.19998396  1
  In  In69  1  0.66257572  0.00232416  -0.01027304  1
  In  In70  1  0.32902152  0.49345952  0.50975456  1
  In  In71  1  0.82978217  0.31434387  0.16356377  1
  Te  Te72  1  0.09877558  0.06670072  0.05707432  1
  Te  Te73  1  0.08828869  0.10002576  0.40357750  1
  Te  Te74  1  0.07995179  0.04610517  0.73364060  1
  Te  Te75  1  0.07287676  0.42222972  0.10530367  1
  Te  Te76  1  0.13506357  0.39783746  0.42044124  1
  Te  Te77  1  0.07608063  0.42528335  0.75037417  1
  Te  Te78  1  0.09455771  0.73054952  0.10211810  1
  Te  Te79  1  0.06912946  0.79054172  0.42995064  1
  Te  Te80  1  0.09687088  0.75537164  0.77007198  1
  Te  Te81  1  0.43465509  0.08977829  0.07408761  1
  Te  Te82  1  0.37296374  0.11071561  0.43523922  1
  Te  Te83  1  0.41464559  0.09276209  0.73464306  1
  Te  Te84  1  0.47615401  0.40041881  0.10843402  1
  Te  Te85  1  0.36811046  0.39158198  0.40554740  1
  Te  Te86  1  0.41254929  0.42555281  0.73107039  1
  Te  Te87  1  0.42137935  0.76032774  0.07642545  1
  Te  Te88  1  0.43558424  0.76285434  0.43993586  1
  Te  Te89  1  0.45076363  0.76398835  0.75824663  1
  Te  Te90  1  0.73454866  0.09359606  0.09985167  1
  Te  Te91  1  0.73200331  0.09460376  0.43876853  1
  Te  Te92  1  0.74683857  0.10691329  0.74998389  1
  Te  Te93  1  0.72692357  0.41326129  0.10270541  1
  Te  Te94  1  0.72428601  0.41642314  0.40136860  1
  Te  Te95  1  0.77843753  0.39835759  0.74254579  1
  Te  Te96  1  0.76975824  0.77459026  0.07042553  1
  Te  Te97  1  0.73885812  0.72217343  0.40759177  1
  Te  Te98  1  0.74374109  0.71055268  0.73003525  1
  Te  Te99  1  0.08478354  0.26111653  0.25075488  1
  Te  Te100  1  0.06586408  0.23378077  0.57544156  1
  Te  Te101  1  0.08609925  0.22145541  0.90151753  1
  Te  Te102  1  0.10744584  0.57633454  0.27176239  1
  Te  Te103  1  0.07428288  0.59218847  0.58336053  1
  Te  Te104  1  0.09124833  0.56157630  0.92748405  1
  Te  Te105  1  0.08109212  0.91663517  0.23671060  1
  Te  Te106  1  0.06895199  0.94619318  0.59474186  1
  Te  Te107  1  0.10055183  0.88213289  0.88526917  1
  Te  Te108  1  0.41796762  0.26525543  0.24800695  1
  Te  Te109  1  0.42726557  0.21704792  0.55551423  1
  Te  Te110  1  0.40084071  0.25684331  0.92834796  1
  Te  Te111  1  0.41982347  0.55847965  0.28145043  1
  Te  Te112  1  0.43147241  0.59249572  0.56319611  1
  Te  Te113  1  0.40192261  0.56409030  0.94231319  1
  Te  Te114  1  0.39637830  0.94005226  0.26239068  1
  Te  Te115  1  0.41734091  0.98107239  0.51021525  1
  Te  Te116  1  0.39332577  0.91795731  0.92874141  1
  Te  Te117  1  0.72968947  0.25536441  0.26080694  1
  Te  Te118  1  0.74604293  0.25562255  0.58416989  1
  Te  Te119  1  0.73118177  0.26426899  0.94134172  1
  Te  Te120  1  0.71987097  0.57517335  0.24525692  1
  Te  Te121  1  0.73484295  0.56914705  0.56720937  1
  Te  Te122  1  0.75337056  0.56527159  0.92064568  1
  Te  Te123  1  0.76807443  0.91028225  0.23991097  1
  Te  Te124  1  0.79482166  0.93784281  0.63217961  1
  Te  Te125  1  0.76583762  0.92385396  0.91351725  1
  Te  Te126  1  0.24321973  0.26898982  0.09981686  1
  Te  Te127  1  0.24373519  0.29189206  0.41394631  1
  Te  Te128  1  0.26724523  0.23862733  0.74182293  1
  Te  Te129  1  0.31879619  0.53774712  0.07511084  1
  Te  Te130  1  0.24059857  0.59269541  0.43092474  1
  Te  Te131  1  0.26120938  0.59721747  0.76394151  1
  Te  Te132  1  0.23844387  0.92687266  0.08212455  1
  Te  Te133  1  0.24666248  0.91261466  0.40159896  1
  Te  Te134  1  0.27460617  0.90645268  0.73249872  1
  Te  Te135  1  0.53512229  0.20030958  0.05611413  1
  Te  Te136  1  0.58420432  0.22356546  0.43285403  1
  Te  Te137  1  0.56278621  0.25646966  0.73644993  1
  Te  Te138  1  0.57211292  0.58196379  0.08149530  1
  Te  Te139  1  0.54278878  0.55625794  0.45623265  1
  Te  Te140  1  0.56743209  0.57274098  0.75352008  1
  Te  Te141  1  0.57351338  0.93371587  0.09366645  1
  Te  Te142  1  0.60845030  0.90156629  0.39516140  1
  Te  Te143  1  0.59757419  0.92353819  0.76083963  1
  Te  Te144  1  0.91793765  0.23712260  0.06660579  1
  Te  Te145  1  0.91828204  0.24714970  0.43023947  1
  Te  Te146  1  0.94122885  0.23367313  0.74471518  1
  Te  Te147  1  0.90196119  0.58279214  0.08607661  1
  Te  Te148  1  0.92763578  0.58826841  0.41421685  1
  Te  Te149  1  0.92878214  0.58015386  0.76749305  1
  Te  Te150  1  0.94440227  0.94444056  0.05348103  1
  Te  Te151  1  0.89762196  0.94867354  0.42817518  1
  Te  Te152  1  0.89914802  0.87032129  0.72275967  1
  Te  Te153  1  0.24852042  0.07474329  0.23579311  1
  Te  Te154  1  0.24006043  0.10939817  0.56621343  1
  Te  Te155  1  0.27504723  0.08884938  0.89586213  1
  Te  Te156  1  0.30533006  0.45716982  0.24668302  1
  Te  Te157  1  0.23745114  0.40551637  0.59739470  1
  Te  Te158  1  0.23365326  0.39532692  0.92653640  1
  Te  Te159  1  0.26808850  0.72983240  0.24303473  1
  Te  Te160  1  0.26524123  0.74328268  0.60046548  1
  Te  Te161  1  0.26321503  0.71925303  0.93784072  1
  Te  Te162  1  0.56013079  0.07144188  0.25725471  1
  Te  Te163  1  0.59268079  0.03478597  0.58207267  1
  Te  Te164  1  0.56825140  0.08251876  0.90287852  1
  Te  Te165  1  0.53569345  0.36775591  0.25986537  1
  Te  Te166  1  0.56576889  0.42777300  0.56209567  1
  Te  Te167  1  0.57997110  0.42265141  0.91392355  1
  Te  Te168  1  0.56887583  0.73508002  0.24104158  1
  Te  Te169  1  0.60471966  0.78993454  0.58112673  1
  Te  Te170  1  0.60607480  0.74744964  0.91409006  1
  Te  Te171  1  0.92080932  0.10453534  0.24165187  1
  Te  Te172  1  0.89791888  0.04049710  0.57541971  1
  Te  Te173  1  0.91605649  0.07134492  0.89462159  1
  Te  Te174  1  0.90726136  0.40893470  0.25467038  1
  Te  Te175  1  0.92162965  0.43738715  0.56044901  1
  Te  Te176  1  0.92915253  0.39825488  0.91252485  1
  Te  Te177  1  0.91592351  0.75187292  0.25461377  1
  Te  Te178  1  0.91523573  0.76709899  0.58900314  1
  Te  Te179  1  0.92797766  0.76752461  0.92012968  1
