# generated using pymatgen
data_In2Te3
_symmetry_space_group_name_H-M   'P 1'
_cell_length_a   18.79130497
_cell_length_b   18.80134426
_cell_length_c   18.80141539
_cell_angle_alpha   90.07947574
_cell_angle_beta   90.00500726
_cell_angle_gamma   89.95353143
_symmetry_Int_Tables_number   1
_chemical_formula_structural   In2Te3
_chemical_formula_sum   'In72 Te108'
_cell_volume   6642.56518464
_cell_formula_units_Z   36
loop_
 _symmetry_equiv_pos_site_id
 _symmetry_equiv_pos_as_xyz
  1  'x, y, z'
loop_
 _atom_site_type_symbol
 _atom_site_label
 _atom_site_symmetry_multiplicity
 _atom_site_fract_x
 _atom_site_fract_y
 _atom_site_fract_z
 _atom_site_occupancy
  In  In0  1  0.45644762  0.81986693  -0.00024421  1
  In  In1  1  0.32577927  0.33110343  0.67321299  1
  In  In2  1  0.65921463  0.48743533  0.83139557  1
  In  In3  1  -0.00427375  0.82910038  0.51456678  1
  In  In4  1  0.00142565  0.69884925  0.68667124  1
  In  In5  1  0.48645262  0.33504809  0.84355928  1
  In  In6  1  0.48652032  0.67124844  0.82204296  1
  In  In7  1  0.83664713  0.51975139  0.66700787  1
  In  In8  1  0.67207988  0.81781750  0.16748222  1
  In  In9  1  0.30679191  0.17089919  0.16464291  1
  In  In10  1  0.69679683  0.18814119  0.17037799  1
  In  In11  1  0.65679263  0.02049269  0.01459317  1
  In  In12  1  0.49303274  0.83945170  0.65937748  1
  In  In13  1  0.86436226  0.00253543  0.16088971  1
  In  In14  1  0.68803351  0.66186452  0.63989276  1
  In  In15  1  0.33296007  0.32599019  0.32025115  1
  In  In16  1  0.48344670  0.49243308  0.64817971  1
  In  In17  1  0.16334534  0.48365134  0.30812663  1
  In  In18  1  0.15407539  0.02239469  0.14346581  1
  In  In19  1  0.15599754  0.17277100  0.68697991  1
  In  In20  1  0.66840300  0.31051857  0.63925405  1
  In  In21  1  0.15889450  0.49214592  0.67772757  1
  In  In22  1  0.32969215  0.66541535  0.32219380  1
  In  In23  1  0.85972735  0.82401802  0.31990262  1
  In  In24  1  0.00335128  0.00162493  0.68092050  1
  In  In25  1  0.83459753  0.46875912  0.33170137  1
  In  In26  1  0.48921985  0.14487840  0.66893496  1
  In  In27  1  0.28019164  0.49074733  0.89320894  1
  In  In28  1  0.31427794  0.65984703  0.02247511  1
  In  In29  1  0.51706393  0.17224333  0.01204968  1
  In  In30  1  0.67608935  0.64614103  0.33042671  1
  In  In31  1  0.17650396  0.84327232  0.32546087  1
  In  In32  1  0.49350307  0.50501576  0.31648229  1
  In  In33  1  0.86727505  0.50082249  0.02813176  1
  In  In34  1  0.33038325  0.67187302  0.65723250  1
  In  In35  1  0.85266675  0.66794781  0.81721215  1
  In  In36  1  0.15755274  0.82491129  0.01500716  1
  In  In37  1  0.67959376  0.16732144  0.84640033  1
  In  In38  1  0.33209042  0.16707985  0.48178027  1
  In  In39  1  0.00797901  0.34644694  0.69094588  1
  In  In40  1  0.47548900  0.47462227  0.02109596  1
  In  In41  1  0.83742076  0.83593548  0.00983404  1
  In  In42  1  0.87011150  0.83725486  0.65677049  1
  In  In43  1  0.30283160  -0.02893922  0.68186741  1
  In  In44  1  0.82694344  0.17535185  0.65360833  1
  In  In45  1  0.67203842  0.85091908  0.84691623  1
  In  In46  1  0.68050680  0.16114051  0.50061837  1
  In  In47  1  0.00787862  0.50995292  0.49158518  1
  In  In48  1  0.18402738  0.68051387  0.48873829  1
  In  In49  1  0.51587074  0.33511192  0.47639084  1
  In  In50  1  0.18969136  0.32140094  0.51016730  1
  In  In51  1  0.01471908  0.01641947  0.32634486  1
  In  In52  1  0.85179365  0.34158907  0.16148927  1
  In  In53  1  0.83602302  0.31177799  0.84360108  1
  In  In54  1  0.47517003  0.81979273  0.32579592  1
  In  In55  1  0.01079611  0.64968208  0.29500461  1
  In  In56  1  0.15342710  0.33054349  0.17549519  1
  In  In57  1  0.49083284  0.17031691  0.33309812  1
  In  In58  1  0.31698419  -0.00795563  -0.01125742  1
  In  In59  1  0.67050275  0.64220950  0.00357427  1
  In  In60  1  0.81146855  0.01263761  0.51115082  1
  In  In61  1  0.15249965  0.66919638  0.85955100  1
  In  In62  1  0.66583027  0.49454107  0.17989716  1
  In  In63  1  0.65405489  0.82939427  0.49436693  1
  In  In64  1  0.48638232  -0.02004790  0.17892142  1
  In  In65  1  0.31407646  0.17487307  0.84148071  1
  In  In66  1  0.66845440  0.01285607  0.34474801  1
  In  In67  1  0.01386399  0.31477765  -0.01048259  1
  In  In68  1  0.16400156  0.00007600  0.48577544  1
  In  In69  1  0.03572120  0.84934976  0.84117718  1
  In  In70  1  -0.01848699  0.31610826  0.32337419  1
  In  In71  1  0.65752390  0.03284757  0.67155666  1
  Te  Te72  1  0.04539259  0.10987173  0.07709375  1
  Te  Te73  1  0.07271167  0.10165551  0.43213605  1
  Te  Te74  1  0.10015278  0.06579423  0.77612538  1
  Te  Te75  1  0.08486430  0.41847136  0.07439531  1
  Te  Te76  1  0.08963800  0.40279644  0.41848498  1
  Te  Te77  1  0.09642671  0.41564547  0.78858538  1
  Te  Te78  1  0.06388823  0.72514965  0.07149443  1
  Te  Te79  1  0.07121443  0.75045682  0.40621021  1
  Te  Te80  1  0.12704894  0.77278475  0.74157152  1
  Te  Te81  1  0.41488147  0.07801464  0.08412966  1
  Te  Te82  1  0.40472637  0.07099788  0.39775389  1
  Te  Te83  1  0.39587412  0.07291499  0.76138385  1
  Te  Te84  1  0.38497297  0.39543410  0.10358471  1
  Te  Te85  1  0.40353142  0.41676011  0.41850879  1
  Te  Te86  1  0.40162934  0.43309880  0.76382908  1
  Te  Te87  1  0.41322547  0.73223090  0.10788778  1
  Te  Te88  1  0.40313524  0.74030929  0.42738599  1
  Te  Te89  1  0.39529409  0.77183873  0.75787079  1
  Te  Te90  1  0.77399808  0.09500395  0.07558592  1
  Te  Te91  1  0.77935047  0.10449484  0.39339010  1
  Te  Te92  1  0.77140360  0.07996605  0.76112375  1
  Te  Te93  1  0.74998870  0.41903925  0.07481377  1
  Te  Te94  1  0.73345301  0.45595805  0.43668543  1
  Te  Te95  1  0.75175744  0.40425286  0.73953386  1
  Te  Te96  1  0.76537201  0.72561871  0.08957384  1
  Te  Te97  1  0.75566099  0.75466711  0.40857769  1
  Te  Te98  1  0.74657753  0.75466209  0.74784918  1
  Te  Te99  1  0.07127133  0.22798989  0.24528570  1
  Te  Te100  1  0.07608557  0.25456394  0.58545616  1
  Te  Te101  1  0.07440037  0.20521622  0.90488746  1
  Te  Te102  1  0.13265566  0.60171169  0.21840746  1
  Te  Te103  1  0.08925732  0.59920950  0.58931208  1
  Te  Te104  1  0.08574522  0.58493643  0.96396090  1
  Te  Te105  1  0.07865444  0.91600718  0.23394202  1
  Te  Te106  1  0.09323256  0.91424895  0.59182687  1
  Te  Te107  1  0.07538997  0.93696922  0.95501881  1
  Te  Te108  1  0.42597681  0.25222015  0.22225453  1
  Te  Te109  1  0.42692049  0.25924710  0.58281630  1
  Te  Te110  1  0.40602962  0.25137009  0.93874931  1
  Te  Te111  1  0.40341350  0.57990916  0.22435639  1
  Te  Te112  1  0.41386680  0.59131144  0.56515204  1
  Te  Te113  1  0.41561752  0.58053087  0.92145615  1
  Te  Te114  1  0.38094482  0.90686047  0.24977841  1
  Te  Te115  1  0.40848108  0.93411588  0.58458793  1
  Te  Te116  1  0.41688063  0.92180120  0.90383109  1
  Te  Te117  1  0.76606726  0.27840584  0.26610522  1
  Te  Te118  1  0.78405395  0.27641665  0.54134204  1
  Te  Te119  1  0.74921916  0.25044395  0.94509173  1
  Te  Te120  1  0.77744316  0.57969953  0.23808422  1
  Te  Te121  1  0.75852678  0.56858989  0.54503330  1
  Te  Te122  1  0.76597057  0.57334633  0.90337604  1
  Te  Te123  1  0.75161047  0.92262612  0.24709432  1
  Te  Te124  1  0.73733365  0.90947878  0.59804350  1
  Te  Te125  1  0.76047772  0.94233983  0.92905551  1
  Te  Te126  1  0.22329200  0.24779092  0.06572875  1
  Te  Te127  1  0.23152432  0.23623086  0.38998889  1
  Te  Te128  1  0.22509210  0.28158992  0.77404685  1
  Te  Te129  1  0.20876464  0.56056104  0.05625621  1
  Te  Te130  1  0.24391417  0.56581973  0.41030490  1
  Te  Te131  1  0.24890452  0.58428604  0.76578899  1
  Te  Te132  1  0.25573442  0.90889068  0.09861882  1
  Te  Te133  1  0.26268330  0.90831015  0.42634658  1
  Te  Te134  1  0.19861214  0.91661438  0.77108010  1
  Te  Te135  1  0.59401199  0.26522692  0.09605688  1
  Te  Te136  1  0.60761956  0.24724480  0.39455931  1
  Te  Te137  1  0.57743831  0.25014161  0.75041775  1
  Te  Te138  1  0.56852805  0.57689387  0.09264829  1
  Te  Te139  1  0.57094849  0.58698198  0.41378769  1
  Te  Te140  1  0.58681274  0.58635284  0.73981600  1
  Te  Te141  1  0.58120415  0.90048048  0.07418424  1
  Te  Te142  1  0.56812319  0.91933733  0.40725963  1
  Te  Te143  1  0.58051924  0.92785415  0.75203406  1
  Te  Te144  1  0.93541182  0.23616456  0.09178625  1
  Te  Te145  1  0.88782997  0.26349375  0.42196387  1
  Te  Te146  1  0.92922568  0.23112924  0.75454681  1
  Te  Te147  1  0.95426249  0.61208528  0.06935508  1
  Te  Te148  1  0.91799926  0.58667938  0.39787174  1
  Te  Te149  1  0.95243433  0.57091194  0.75731852  1
  Te  Te150  1  0.94725216  0.92058375  0.06711180  1
  Te  Te151  1  0.91229747  0.92370779  0.42570089  1
  Te  Te152  1  0.91327331  0.92078153  0.77477099  1
  Te  Te153  1  0.23781167  0.07639985  0.25296031  1
  Te  Te154  1  0.25293412  0.09832308  0.59321049  1
  Te  Te155  1  0.22605029  0.09366204  0.92959969  1
  Te  Te156  1  0.27840019  0.42616603  0.21584973  1
  Te  Te157  1  0.26252503  0.43522825  0.58086118  1
  Te  Te158  1  0.23780193  0.38045546  0.98067248  1
  Te  Te159  1  0.22735950  0.73519880  0.23506965  1
  Te  Te160  1  0.25996788  0.77352932  0.57426863  1
  Te  Te161  1  0.26017500  0.75853117  0.92016260  1
  Te  Te162  1  0.58928616  0.08170174  0.23308558  1
  Te  Te163  1  0.56608102  0.07489930  0.55693269  1
  Te  Te164  1  0.56977724  0.07814985  0.90260998  1
  Te  Te165  1  0.58490063  0.40212364  0.26060801  1
  Te  Te166  1  0.59810155  0.42780202  0.56887276  1
  Te  Te167  1  0.58747572  0.40475183  0.93457043  1
  Te  Te168  1  0.57748241  0.73359407  0.24784825  1
  Te  Te169  1  0.56897873  0.73344773  0.57625238  1
  Te  Te170  1  0.58828868  0.74283297  0.91989249  1
  Te  Te171  1  0.92633049  0.10639023  0.24753866  1
  Te  Te172  1  0.92707312  0.08622764  0.57846228  1
  Te  Te173  1  0.96761659  0.10927590  0.94620745  1
  Te  Te174  1  0.94873856  0.43538513  0.23447932  1
  Te  Te175  1  0.92544486  0.42338666  0.58642651  1
  Te  Te176  1  0.92177685  0.41719690  0.91288410  1
  Te  Te177  1  0.93903642  0.75507651  0.21699459  1
  Te  Te178  1  0.90378542  0.71922604  0.56881439  1
  Te  Te179  1  0.92795637  0.75797929  0.91013584  1
