# generated using pymatgen
data_In2Te3
_symmetry_space_group_name_H-M   'P 1'
_cell_length_a   18.74665265
_cell_length_b   18.75355641
_cell_length_c   18.75283337
_cell_angle_alpha   89.98765898
_cell_angle_beta   90.02108801
_cell_angle_gamma   90.06890973
_symmetry_Int_Tables_number   1
_chemical_formula_structural   In2Te3
_chemical_formula_sum   'In72 Te108'
_cell_volume   6592.86090106
_cell_formula_units_Z   36
loop_
 _symmetry_equiv_pos_site_id
 _symmetry_equiv_pos_as_xyz
  1  'x, y, z'
loop_
 _atom_site_type_symbol
 _atom_site_label
 _atom_site_symmetry_multiplicity
 _atom_site_fract_x
 _atom_site_fract_y
 _atom_site_fract_z
 _atom_site_occupancy
  In  In0  1  0.50407357  0.51720927  0.67637176  1
  In  In1  1  0.34944827  0.68615815  0.67338866  1
  In  In2  1  0.67477054  0.16360801  0.17226268  1
  In  In3  1  0.79840221  0.65320360  0.49780981  1
  In  In4  1  0.01759390  0.84432884  0.85222632  1
  In  In5  1  0.33010255  0.13812841  0.83236686  1
  In  In6  1  0.15220405  0.50302151  0.67304258  1
  In  In7  1  0.16542077  0.00259032  0.16466849  1
  In  In8  1  0.51267430  0.83170031  0.64139342  1
  In  In9  1  0.66894482  0.32253192  0.66919795  1
  In  In10  1  -0.00921042  0.67117089  0.66582722  1
  In  In11  1  0.34304623  0.31726780  0.65862002  1
  In  In12  1  0.49721649  0.68279076  0.16332775  1
  In  In13  1  0.47584765  0.17739988  0.34175720  1
  In  In14  1  0.16412500  0.32012166  0.16309024  1
  In  In15  1  0.80861824  0.68477238  0.83732808  1
  In  In16  1  0.18515546  0.15293575  0.66133230  1
  In  In17  1  0.50271564  0.15729428  0.01335297  1
  In  In18  1  -0.00663478  0.48262256  0.83689592  1
  In  In19  1  0.81112747  0.14299614  0.00864669  1
  In  In20  1  0.00688603  0.66429708  0.32285265  1
  In  In21  1  0.86480150  0.28965241  0.47595377  1
  In  In22  1  0.65636767  0.52077922  0.83006724  1
  In  In23  1  0.68163141  0.32479019  0.02551833  1
  In  In24  1  0.84611775  0.82916771  0.02005980  1
  In  In25  1  0.80637395  0.51153969  0.63699964  1
  In  In26  1  0.33652101  0.00285004  0.33693303  1
  In  In27  1  0.48612702  0.34055183  0.50179553  1
  In  In28  1  0.01249566  -0.02370051  0.01408337  1
  In  In29  1  0.67024877  -0.00858168  0.34303593  1
  In  In30  1  0.67243374  0.52220751  0.47226797  1
  In  In31  1  0.67231627  0.14017343  0.81912399  1
  In  In32  1  0.82850224  0.83631502  0.32982135  1
  In  In33  1  0.51253746  0.32940447  0.82493091  1
  In  In34  1  0.86771183  0.32938010  0.83000451  1
  In  In35  1  0.01423972  0.17165804  0.84036614  1
  In  In36  1  0.19570015  0.87996175  0.68962775  1
  In  In37  1  0.00217263  0.46134846  0.48821904  1
  In  In38  1  0.82541024  -0.01267706  0.82633905  1
  In  In39  1  0.33736080  0.85160348  0.49117493  1
  In  In40  1  -0.00560475  0.13740586  0.19432239  1
  In  In41  1  0.32250744  0.50195076  0.15901938  1
  In  In42  1  0.34331635  0.16097359  0.17392877  1
  In  In43  1  0.80604598  0.87681773  0.63455215  1
  In  In44  1  0.00834283  0.30293762  0.67088336  1
  In  In45  1  0.16275310  0.32235891  0.47564296  1
  In  In46  1  0.35194332  0.67865972  -0.00368023  1
  In  In47  1  -0.02932491  0.63549565  0.05148445  1
  In  In48  1  0.84267181  0.33228587  0.18191439  1
  In  In49  1  0.66022374  0.68651411  -0.00352162  1
  In  In50  1  0.18277379  0.67585962  0.47616344  1
  In  In51  1  0.49093291  -0.00114127  0.82744839  1
  In  In52  1  0.84197889  0.49855538  0.31748569  1
  In  In53  1  0.64161543  0.82939157  0.83832531  1
  In  In54  1  0.48415145  0.51651838  0.00226842  1
  In  In55  1  0.50755380  -0.02243962  0.15856656  1
  In  In56  1  0.50185672  0.49850953  0.32932546  1
  In  In57  1  -0.00012800  0.84525935  0.18845550  1
  In  In58  1  0.01251531  0.32251685  -0.00216148  1
  In  In59  1  -0.00079537  0.84337086  0.49168996  1
  In  In60  1  0.18726331  0.69926443  0.19766851  1
  In  In61  1  0.49557796  0.83630776  0.34487602  1
  In  In62  1  0.17372631  0.66779585  0.84487556  1
  In  In63  1  0.32640661  0.51695534  0.49141970  1
  In  In64  1  -0.01647566  0.01641285  0.63836328  1
  In  In65  1  0.66213031  0.13684602  0.50888787  1
  In  In66  1  0.16606737  0.48276146  0.00521426  1
  In  In67  1  0.32584657  0.15319132  0.49577171  1
  In  In68  1  0.66987820  0.67990721  0.32923767  1
  In  In69  1  0.67333290  0.33516932  0.31450993  1
  In  In70  1  0.17665066  0.83114329  0.00273301  1
  In  In71  1  0.32485065  0.34473930  0.00374384  1
  Te  Te72  1  0.08272131  0.09719834  0.07531216  1
  Te  Te73  1  0.01488875  0.08678149  0.41524750  1
  Te  Te74  1  0.08157475  0.07438702  0.74365483  1
  Te  Te75  1  0.06481358  0.42276999  0.10078260  1
  Te  Te76  1  0.10117859  0.42523008  0.38560080  1
  Te  Te77  1  0.09237146  0.39334768  0.76248224  1
  Te  Te78  1  0.07285614  0.75209534  0.08649578  1
  Te  Te79  1  0.09233740  0.76938852  0.39520408  1
  Te  Te80  1  0.09128670  0.75593929  0.74482698  1
  Te  Te81  1  0.40464088  0.05996047  0.07715955  1
  Te  Te82  1  0.43791203  0.06429219  0.43488372  1
  Te  Te83  1  0.41709819  0.08198749  0.72606416  1
  Te  Te84  1  0.42761874  0.40962144  0.09589330  1
  Te  Te85  1  0.39738847  0.41133615  0.40310192  1
  Te  Te86  1  0.41310470  0.41882893  0.75097113  1
  Te  Te87  1  0.43398395  0.78022977  0.06891550  1
  Te  Te88  1  0.38814869  0.74241286  0.39941453  1
  Te  Te89  1  0.43945097  0.76871794  0.75623158  1
  Te  Te90  1  0.72674849  0.04726082  0.09029410  1
  Te  Te91  1  0.76029913  0.09529413  0.40395847  1
  Te  Te92  1  0.76914075  0.07932487  0.72445936  1
  Te  Te93  1  0.76063449  0.42710881  0.09909267  1
  Te  Te94  1  0.76462208  0.40894056  0.42543457  1
  Te  Te95  1  0.75175949  0.41550004  0.75870269  1
  Te  Te96  1  0.74682529  0.75246141  0.09720217  1
  Te  Te97  1  0.73122605  0.77488965  0.43369608  1
  Te  Te98  1  0.74360386  0.77379499  0.73500400  1
  Te  Te99  1  0.07854724  0.24172013  0.26348788  1
  Te  Te100  1  0.08638319  0.22560739  0.56705502  1
  Te  Te101  1  0.11275950  0.24792492  0.91943711  1
  Te  Te102  1  0.09573943  0.58866300  0.23207084  1
  Te  Te103  1  0.07891489  0.58939671  0.56966173  1
  Te  Te104  1  0.07045948  0.58497268  0.92318355  1
  Te  Te105  1  0.09516950  0.92260215  0.27027099  1
  Te  Te106  1  0.09187274  0.92512839  0.58055400  1
  Te  Te107  1  0.11651174  0.94631037  0.90478071  1
  Te  Te108  1  0.41308306  0.27004238  0.24673812  1
  Te  Te109  1  0.43460694  0.22275301  0.58304468  1
  Te  Te110  1  0.41960482  0.24586859  0.91620849  1
  Te  Te111  1  0.40916755  0.59192816  0.24848746  1
  Te  Te112  1  0.42657108  0.59957355  0.57219800  1
  Te  Te113  1  0.41281340  0.58747927  0.89561130  1
  Te  Te114  1  0.39997725  0.90215407  0.24012367  1
  Te  Te115  1  0.40807879  0.92831365  0.59633713  1
  Te  Te116  1  0.37947441  0.93772582  0.90819459  1
  Te  Te117  1  0.77390280  0.22595464  0.26984268  1
  Te  Te118  1  0.75610652  0.24054978  0.57633928  1
  Te  Te119  1  0.74750284  0.24806391  0.90868028  1
  Te  Te120  1  0.74919111  0.58736240  0.24077829  1
  Te  Te121  1  0.69236600  0.61447223  0.60695668  1
  Te  Te122  1  0.75603595  0.57826730  0.93099235  1
  Te  Te123  1  0.73912794  0.91281706  0.23815261  1
  Te  Te124  1  0.71522171  0.96129886  0.54577863  1
  Te  Te125  1  0.74796595  0.90210095  0.92438187  1
  Te  Te126  1  0.24999934  0.23114025  0.07226321  1
  Te  Te127  1  0.25659514  0.23895143  0.39737553  1
  Te  Te128  1  0.25100583  0.24936147  0.76001644  1
  Te  Te129  1  0.24015142  0.60421627  0.07363060  1
  Te  Te130  1  0.23579856  0.57065108  0.38745150  1
  Te  Te131  1  0.25727914  0.58348001  0.74795866  1
  Te  Te132  1  0.25913557  0.91029298  0.09549395  1
  Te  Te133  1  0.23434722  0.93099434  0.41830616  1
  Te  Te134  1  0.28771948  0.95836461  0.78052898  1
  Te  Te135  1  0.57221200  0.25638968  0.10771896  1
  Te  Te136  1  0.59069678  0.25657363  0.42057166  1
  Te  Te137  1  0.57356583  0.22237416  0.73452910  1
  Te  Te138  1  0.58842295  0.58446230  0.08895533  1
  Te  Te139  1  0.56191688  0.61079988  0.41445765  1
  Te  Te140  1  0.56022893  0.61701847  0.77262497  1
  Te  Te141  1  0.61226527  0.94235968  0.06232185  1
  Te  Te142  1  0.57914747  0.91856882  0.43841609  1
  Te  Te143  1  0.60096490  0.93588925  0.73723563  1
  Te  Te144  1  0.91323721  0.23176346  0.08125256  1
  Te  Te145  1  0.97163909  0.23807779  0.38566683  1
  Te  Te146  1  0.90355938  0.21352460  0.73826896  1
  Te  Te147  1  0.87605917  0.55974887  0.13422054  1
  Te  Te148  1  0.91923378  0.58620345  0.43099718  1
  Te  Te149  1  0.90263430  0.57898298  0.75113090  1
  Te  Te150  1  0.90386411  0.93882166  0.11198597  1
  Te  Te151  1  0.90403260  0.93435128  0.41814959  1
  Te  Te152  1  0.92614081  0.90227052  0.74310346  1
  Te  Te153  1  0.23794565  0.09684019  0.26413848  1
  Te  Te154  1  0.24910165  0.05184658  0.57345279  1
  Te  Te155  1  0.25547736  0.04309036  0.92003433  1
  Te  Te156  1  0.24645111  0.41080889  0.24722357  1
  Te  Te157  1  0.24649544  0.41238277  0.58400462  1
  Te  Te158  1  0.25739660  0.42911068  0.90345911  1
  Te  Te159  1  0.28805115  0.76759746  0.27861752  1
  Te  Te160  1  0.24023075  0.75882394  0.59211752  1
  Te  Te161  1  0.27073333  0.77072168  0.89702675  1
  Te  Te162  1  0.56587380  0.08428695  0.25518095  1
  Te  Te163  1  0.60125717  0.04144337  0.60688512  1
  Te  Te164  1  0.59160843  0.06710259  0.92710643  1
  Te  Te165  1  0.59666896  0.43362489  0.23631872  1
  Te  Te166  1  0.58947869  0.42195914  0.58066299  1
  Te  Te167  1  0.58767116  0.41399841  0.92827793  1
  Te  Te168  1  0.59113441  0.77713022  0.24056760  1
  Te  Te169  1  0.60498423  0.74170386  0.56992280  1
  Te  Te170  1  0.54727757  0.76118398  0.93220721  1
  Te  Te171  1  0.92576032  0.04711130  0.29113928  1
  Te  Te172  1  0.91537871  0.09358531  0.53222423  1
  Te  Te173  1  0.91907532  0.07066392  0.92003797  1
  Te  Te174  1  0.94165940  0.40145178  0.26952480  1
  Te  Te175  1  0.91471173  0.40324007  0.60011889  1
  Te  Te176  1  0.90480509  0.42135029  0.94543784  1
  Te  Te177  1  0.90235535  0.73764483  0.23942052  1
  Te  Te178  1  0.90125708  0.75571750  0.57548697  1
  Te  Te179  1  0.92773275  0.74025960  0.92050855  1
