# generated using pymatgen
data_In2Te3
_symmetry_space_group_name_H-M   'P 1'
_cell_length_a   18.93477701
_cell_length_b   18.93193965
_cell_length_c   18.93325529
_cell_angle_alpha   90.04065840
_cell_angle_beta   89.94836062
_cell_angle_gamma   90.00575774
_symmetry_Int_Tables_number   1
_chemical_formula_structural   In2Te3
_chemical_formula_sum   'In72 Te108'
_cell_volume   6787.03844405
_cell_formula_units_Z   36
loop_
 _symmetry_equiv_pos_site_id
 _symmetry_equiv_pos_as_xyz
  1  'x, y, z'
loop_
 _atom_site_type_symbol
 _atom_site_label
 _atom_site_symmetry_multiplicity
 _atom_site_fract_x
 _atom_site_fract_y
 _atom_site_fract_z
 _atom_site_occupancy
  In  In0  1  0.49953947  0.01380826  0.50256465  1
  In  In1  1  0.15221946  -0.02319309  0.53227866  1
  In  In2  1  -0.02980491  0.15033255  0.49961876  1
  In  In3  1  0.84747273  0.32080018  0.49841327  1
  In  In4  1  0.35062980  0.68634644  -0.01086720  1
  In  In5  1  0.80355315  0.49321758  0.69141658  1
  In  In6  1  0.81722398  0.16345697  0.31347673  1
  In  In7  1  0.64183459  0.49209415  0.49402060  1
  In  In8  1  0.51881439  0.32214067  0.81996041  1
  In  In9  1  0.32331147  0.33071309  0.64937645  1
  In  In10  1  0.67139793  0.83816365  0.51969055  1
  In  In11  1  0.48933705  0.66599094  0.81705546  1
  In  In12  1  -0.01664842  0.84851993  0.83389599  1
  In  In13  1  0.64098671  0.67666350  0.66343172  1
  In  In14  1  -0.00514985  0.46910282  0.16319772  1
  In  In15  1  0.33276090  0.13569401  0.82571905  1
  In  In16  1  0.17606628  0.32806599  0.13374686  1
  In  In17  1  0.50727917  -0.00368406  0.82985896  1
  In  In18  1  0.33899571  0.83840059  0.50679724  1
  In  In19  1  -0.00304107  0.15869591  0.82792329  1
  In  In20  1  0.52262454  0.84442461  0.01524920  1
  In  In21  1  0.66943287  0.01586621  0.32518399  1
  In  In22  1  0.33458183  0.18639399  0.50210864  1
  In  In23  1  0.64986334  0.65001810  0.04347481  1
  In  In24  1  0.50979670  0.19327059  0.31197061  1
  In  In25  1  0.16645249  0.36656174  0.49065976  1
  In  In26  1  0.18171535  0.47427129  0.34487909  1
  In  In27  1  -0.01500844  0.18460122  0.15005204  1
  In  In28  1  0.65476156  0.32437227  0.00771737  1
  In  In29  1  0.50007091  0.82518089  0.68334296  1
  In  In30  1  0.66504355  0.50498562  0.86343610  1
  In  In31  1  0.15204974  0.83668470  -0.02966883  1
  In  In32  1  0.32240157  0.50170100  0.81130918  1
  In  In33  1  0.34792542  0.84332326  0.17794259  1
  In  In34  1  0.80762162  0.84942895  0.68446232  1
  In  In35  1  0.37332596  0.63058364  0.30255953  1
  In  In36  1  0.68394787  0.83799018  0.86545224  1
  In  In37  1  -0.03657185  0.67503331  0.68335480  1
  In  In38  1  0.82783372  0.00355177  0.16302246  1
  In  In39  1  0.35044842  0.31379484  0.01269928  1
  In  In40  1  -0.01637127  -0.02209908  0.36345110  1
  In  In41  1  0.16522670  0.15000971  0.30712935  1
  In  In42  1  0.50556586  0.33320397  0.16832848  1
  In  In43  1  0.00909049  0.32297299  0.67212231  1
  In  In44  1  0.50174601  0.32684706  0.50556843  1
  In  In45  1  0.34753169  0.53427266  0.52246045  1
  In  In46  1  0.68928138  0.34520969  0.31778958  1
  In  In47  1  0.83562541  0.45023988  -0.02035787  1
  In  In48  1  0.13557323  0.32531221  0.84592905  1
  In  In49  1  0.31423280  0.85888287  0.80540023  1
  In  In50  1  0.82933806  0.70012694  0.51367972  1
  In  In51  1  0.37727052  0.01861021  0.01194770  1
  In  In52  1  -0.00369220  0.51094528  0.49279058  1
  In  In53  1  0.34520580  0.34249597  0.31852229  1
  In  In54  1  0.18634995  0.51444001  -0.01054953  1
  In  In55  1  0.86374000  0.65840112  0.84228661  1
  In  In56  1  0.15670510  0.67592433  0.50496154  1
  In  In57  1  0.14823641  0.15572154  0.66509553  1
  In  In58  1  0.49884575  0.81668056  0.32356920  1
  In  In59  1  0.82056896  0.66728291  0.16379826  1
  In  In60  1  0.83208722  0.18862686  -0.01930201  1
  In  In61  1  0.19213935  0.84693648  0.33751768  1
  In  In62  1  0.85715901  0.51081787  0.31509354  1
  In  In63  1  0.02530493  0.68527352  0.30952293  1
  In  In64  1  0.68504193  0.15511927  0.51365032  1
  In  In65  1  0.66415188  0.01526522  0.01190732  1
  In  In66  1  0.17428089  0.66188703  0.14228601  1
  In  In67  1  -0.00485777  0.65294636  -0.02821083  1
  In  In68  1  0.64224764  0.65385089  0.33384586  1
  In  In69  1  0.81912426  0.15460685  0.67876192  1
  In  In70  1  -0.01760162  0.84961272  0.16150057  1
  In  In71  1  0.16199743  0.00734266  0.14150238  1
  Te  Te72  1  0.06493371  0.09034621  0.06736537  1
  Te  Te73  1  0.09129871  0.07545654  0.42449483  1
  Te  Te74  1  0.09861747  0.06139369  0.76965251  1
  Te  Te75  1  0.08484691  0.41922344  0.05220829  1
  Te  Te76  1  0.05339345  0.41073893  0.39538448  1
  Te  Te77  1  0.11101871  0.41115934  0.72977217  1
  Te  Te78  1  0.07136409  0.75038608  0.07659427  1
  Te  Te79  1  0.08280160  0.77612710  0.41802173  1
  Te  Te80  1  0.06610261  0.75429727  0.75267510  1
  Te  Te81  1  0.48580236  0.08862222  0.07709970  1
  Te  Te82  1  0.42459457  0.10766303  0.40955808  1
  Te  Te83  1  0.41783176  0.06053505  0.73197252  1
  Te  Te84  1  0.42225332  0.42214995  0.08426035  1
  Te  Te85  1  0.40383810  0.41861727  0.43517139  1
  Te  Te86  1  0.41882488  0.40825448  0.73839785  1
  Te  Te87  1  0.43627352  0.74909158  0.09793971  1
  Te  Te88  1  0.39992749  0.73985888  0.40851022  1
  Te  Te89  1  0.38741100  0.72675624  0.72283365  1
  Te  Te90  1  0.75261595  0.11313389  0.09087407  1
  Te  Te91  1  0.77404585  0.07087534  0.42503266  1
  Te  Te92  1  0.71641880  0.09777753  0.76871999  1
  Te  Te93  1  0.73411798  0.42578255  0.08055777  1
  Te  Te94  1  0.76882404  0.43294086  0.42588545  1
  Te  Te95  1  0.73091328  0.39947185  0.77974449  1
  Te  Te96  1  0.74490135  0.75671627  0.07508575  1
  Te  Te97  1  0.73516072  0.75384527  0.41070132  1
  Te  Te98  1  0.74983666  0.72483700  0.75856995  1
  Te  Te99  1  0.08844826  0.26001511  0.23835871  1
  Te  Te100  1  0.08275451  0.25145279  0.55757232  1
  Te  Te101  1  0.08320722  0.22013473  0.93208670  1
  Te  Te102  1  0.09477218  0.57041039  0.23794903  1
  Te  Te103  1  0.06554995  0.59581369  0.59605976  1
  Te  Te104  1  0.10666817  0.59081963  0.88770767  1
  Te  Te105  1  0.08734363  0.91910413  0.25293191  1
  Te  Te106  1  0.11268163  0.88196057  0.63970927  1
  Te  Te107  1  0.07818040  0.94201700  0.90256080  1
  Te  Te108  1  0.39232170  0.23532463  0.22649837  1
  Te  Te109  1  0.43468894  0.23376363  0.60617900  1
  Te  Te110  1  0.41982186  0.23802189  0.89885237  1
  Te  Te111  1  0.48045174  0.55650047  0.23360561  1
  Te  Te112  1  0.41301977  0.59983027  0.63464368  1
  Te  Te113  1  0.41527950  0.57344009  0.91038119  1
  Te  Te114  1  0.42261708  0.92997304  0.26747209  1
  Te  Te115  1  0.41874430  0.92631932  0.60265944  1
  Te  Te116  1  0.41830067  0.89444177  0.90997525  1
  Te  Te117  1  0.73113970  0.24143947  0.22355393  1
  Te  Te118  1  0.74808532  0.26707426  0.59678785  1
  Te  Te119  1  0.73852800  0.27098886  0.89561869  1
  Te  Te120  1  0.73728989  0.56906880  0.24497686  1
  Te  Te121  1  0.75062035  0.59162988  0.58491091  1
  Te  Te122  1  0.76539311  0.58709946  0.94259408  1
  Te  Te123  1  0.76692441  0.92187667  0.26821830  1
  Te  Te124  1  0.74852013  0.94263773  0.58702740  1
  Te  Te125  1  0.76462151  0.94318440  0.92819508  1
  Te  Te126  1  0.25106689  0.22107843  0.06791639  1
  Te  Te127  1  0.23877249  0.25818121  0.40492612  1
  Te  Te128  1  0.24289232  0.24424295  0.74709171  1
  Te  Te129  1  0.28659037  0.58172647  0.08304741  1
  Te  Te130  1  0.24690527  0.59226989  0.41149381  1
  Te  Te131  1  0.21168096  0.58791780  0.77491323  1
  Te  Te132  1  0.24914003  0.89533814  0.07610686  1
  Te  Te133  1  0.26263732  0.94358644  0.42803926  1
  Te  Te134  1  0.21336231  0.94357595  0.73702907  1
  Te  Te135  1  0.55895952  0.22810483  0.07462120  1
  Te  Te136  1  0.61004281  0.25082530  0.41939495  1
  Te  Te137  1  0.60916095  0.19977122  0.78829024  1
  Te  Te138  1  0.54466568  0.56148003  0.09084376  1
  Te  Te139  1  0.55420380  0.59186595  0.43504627  1
  Te  Te140  1  0.58187252  0.56683277  0.74838481  1
  Te  Te141  1  0.61025780  0.91499540  0.10719730  1
  Te  Te142  1  0.58103784  0.91793427  0.41672658  1
  Te  Te143  1  0.60666940  0.90682930  0.75470318  1
  Te  Te144  1  0.91498250  0.28030103  0.06327048  1
  Te  Te145  1  0.92153656  0.24464537  0.39130708  1
  Te  Te146  1  0.90588488  0.25917264  0.75707764  1
  Te  Te147  1  0.92628882  0.58386892  0.09079361  1
  Te  Te148  1  0.92255479  0.61801323  0.41234668  1
  Te  Te149  1  0.92632015  0.53353280  0.77551674  1
  Te  Te150  1  0.92825455  0.94826921  0.06949308  1
  Te  Te151  1  0.92602861  0.88289075  0.45538635  1
  Te  Te152  1  0.88549470  0.94019132  0.77008505  1
  Te  Te153  1  0.26000367  0.06739670  0.23387873  1
  Te  Te154  1  0.25318626  0.08557937  0.58067831  1
  Te  Te155  1  0.26415595  0.05792612  0.93025309  1
  Te  Te156  1  0.25875427  0.42482140  0.22574577  1
  Te  Te157  1  0.24149384  0.44880345  0.59250401  1
  Te  Te158  1  0.25920101  0.39960578  0.91471965  1
  Te  Te159  1  0.25330065  0.73748861  0.24861423  1
  Te  Te160  1  0.24372468  0.76005594  0.58938018  1
  Te  Te161  1  0.24978438  0.74899082  0.89492893  1
  Te  Te162  1  0.57289841  0.08316376  0.23546833  1
  Te  Te163  1  0.59784924  0.07135167  0.59607951  1
  Te  Te164  1  0.58716204  0.09613566  0.90856666  1
  Te  Te165  1  0.56691114  0.41832897  0.27666836  1
  Te  Te166  1  0.57825383  0.41224845  0.59753516  1
  Te  Te167  1  0.56028310  0.41795045  0.92978455  1
  Te  Te168  1  0.59524666  0.75141481  0.23407219  1
  Te  Te169  1  0.55649350  0.74839362  0.56244005  1
  Te  Te170  1  0.58297799  0.73334015  0.91684469  1
  Te  Te171  1  0.93617793  0.07709525  0.25811863  1
  Te  Te172  1  0.92673120  0.07411676  0.61487348  1
  Te  Te173  1  0.89262922  0.08004908  0.89920577  1
  Te  Te174  1  0.89342174  0.39298679  0.23692408  1
  Te  Te175  1  0.91398821  0.42579823  0.58913333  1
  Te  Te176  1  0.94706939  0.43415843  0.88986187  1
  Te  Te177  1  0.90406665  0.75926020  0.25462719  1
  Te  Te178  1  0.92458177  0.79230335  0.58578565  1
  Te  Te179  1  0.90220509  0.76825924  0.93863957  1
