# generated using pymatgen
data_In2Te3
_symmetry_space_group_name_H-M   'P 1'
_cell_length_a   18.86405792
_cell_length_b   18.87031432
_cell_length_c   18.87407652
_cell_angle_alpha   90.09488949
_cell_angle_beta   90.10045370
_cell_angle_gamma   89.90360967
_symmetry_Int_Tables_number   1
_chemical_formula_structural   In2Te3
_chemical_formula_sum   'In72 Te108'
_cell_volume   6718.58925752
_cell_formula_units_Z   36
loop_
 _symmetry_equiv_pos_site_id
 _symmetry_equiv_pos_as_xyz
  1  'x, y, z'
loop_
 _atom_site_type_symbol
 _atom_site_label
 _atom_site_symmetry_multiplicity
 _atom_site_fract_x
 _atom_site_fract_y
 _atom_site_fract_z
 _atom_site_occupancy
  In  In0  1  0.79045682  0.33307894  0.50638496  1
  In  In1  1  0.35131000  0.84312145  0.82259926  1
  In  In2  1  0.17948093  0.51050980  0.33284559  1
  In  In3  1  0.67855006  0.35221799  -0.00280505  1
  In  In4  1  0.49620077  0.15878351  0.33783795  1
  In  In5  1  0.00665945  0.68263601  0.32868290  1
  In  In6  1  0.49870283  0.00311334  0.85605319  1
  In  In7  1  0.33589573  0.16410342  0.18042453  1
  In  In8  1  0.63139951  0.75425057  0.83428993  1
  In  In9  1  0.83433516  0.14357383  0.35519483  1
  In  In10  1  0.13537176  0.12534629  0.64420124  1
  In  In11  1  -0.00428140  0.50284502  0.47767556  1
  In  In12  1  0.83573513  0.82829110  0.01567162  1
  In  In13  1  0.18957257  -0.01055985  0.47111048  1
  In  In14  1  0.00630768  0.31865069  0.31941702  1
  In  In15  1  0.65833900  0.01006164  0.33973211  1
  In  In16  1  0.50063747  0.14965121  0.64536903  1
  In  In17  1  -0.03677044  0.70883809  0.62488917  1
  In  In18  1  -0.01653022  0.21050677  0.82124572  1
  In  In19  1  0.48985724  0.18635463  0.02831913  1
  In  In20  1  0.62903214  0.17743533  0.80368394  1
  In  In21  1  0.00425299  -0.02966804  0.63757015  1
  In  In22  1  0.02443033  -0.03646589  0.32043580  1
  In  In23  1  0.02201333  0.83361556  0.83643628  1
  In  In24  1  -0.01426073  0.50353678  0.86097147  1
  In  In25  1  0.49206965  0.84616908  0.65967788  1
  In  In26  1  0.82376798  0.50096532  0.34044513  1
  In  In27  1  0.34175497  0.67177821  -0.00814713  1
  In  In28  1  0.49038897  0.51293489  0.01023542  1
  In  In29  1  0.80757161  0.18088252  -0.00752409  1
  In  In30  1  0.01840338  0.38050352  0.04007851  1
  In  In31  1  -0.01126804  0.00184833  0.02918871  1
  In  In32  1  0.18315040  0.00450622  0.83977164  1
  In  In33  1  0.63265205  0.36689517  0.31285298  1
  In  In34  1  -0.00374495  0.14432923  0.49059146  1
  In  In35  1  0.68209717  0.69710816  0.64186871  1
  In  In36  1  0.35690414  0.82439491  0.22455361  1
  In  In37  1  0.16752422  0.49720663  0.65858621  1
  In  In38  1  0.68843553  0.16066564  0.18353473  1
  In  In39  1  0.66745904  -0.01252546  0.01478874  1
  In  In40  1  0.84160587  0.83061601  0.33479776  1
  In  In41  1  0.19665327  0.33234746  0.84834491  1
  In  In42  1  0.66158941  0.84748463  0.47888240  1
  In  In43  1  0.33290209  0.50798215  0.18412040  1
  In  In44  1  0.65086587  0.51769329  0.84317403  1
  In  In45  1  0.67267298  0.83088736  0.16573600  1
  In  In46  1  0.20165166  0.29125071  0.46670799  1
  In  In47  1  0.19136026  0.82964629  0.03431640  1
  In  In48  1  0.83807364  0.34053885  0.16473223  1
  In  In49  1  0.48364859  0.32802681  0.79665431  1
  In  In50  1  0.82982672  0.66174970  0.83540995  1
  In  In51  1  0.35248714  0.34471032  0.02171493  1
  In  In52  1  -0.00454529  0.33510699  0.67715599  1
  In  In53  1  0.82042677  0.53122926  0.65506348  1
  In  In54  1  0.34710302  0.50251535  0.83009152  1
  In  In55  1  0.00287960  0.16386070  0.18183415  1
  In  In56  1  0.16343649  0.70521741  0.51315121  1
  In  In57  1  0.85926765  0.34321611  0.80576891  1
  In  In58  1  0.63349137  0.63723068  0.34251870  1
  In  In59  1  0.32768924  -0.01137530  0.66192066  1
  In  In60  1  0.36191014  0.81010155  0.46387183  1
  In  In61  1  0.17806472  0.68358028  0.17987533  1
  In  In62  1  0.29384544  0.15751323  0.84085376  1
  In  In63  1  0.36011957  0.33713184  0.67003728  1
  In  In64  1  -0.02728091  0.63763807  0.04045387  1
  In  In65  1  0.35352453  0.49095017  0.48669965  1
  In  In66  1  0.82535696  0.00442196  0.83467362  1
  In  In67  1  0.65344121  -0.02155382  0.64611029  1
  In  In68  1  0.14904218  0.65287694  0.82509314  1
  In  In69  1  0.15350106  0.15297277  0.00469708  1
  In  In70  1  0.49494994  0.64853656  0.17791892  1
  In  In71  1  0.50980103  0.34686224  0.49285628  1
  Te  Te72  1  0.10148512  0.06009704  0.11539932  1
  Te  Te73  1  0.09379363  0.08315709  0.39543946  1
  Te  Te74  1  0.07243103  0.08867125  0.77506706  1
  Te  Te75  1  0.10392474  0.45388813  0.13144488  1
  Te  Te76  1  0.09524919  0.40314812  0.42090359  1
  Te  Te77  1  0.09156936  0.42215433  0.76983661  1
  Te  Te78  1  0.07642954  0.74653790  0.08546476  1
  Te  Te79  1  0.08002744  0.77750661  0.41554093  1
  Te  Te80  1  0.07770725  0.74484771  0.72669353  1
  Te  Te81  1  0.41508131  0.07702714  0.08944808  1
  Te  Te82  1  0.39463393  0.05748757  0.38621163  1
  Te  Te83  1  0.41137989  0.08812527  0.75333434  1
  Te  Te84  1  0.45013623  0.41285053  0.12199144  1
  Te  Te85  1  0.41742707  0.39949062  0.39038003  1
  Te  Te86  1  0.44467657  0.45839462  0.71916159  1
  Te  Te87  1  0.41317565  0.75153713  0.09757365  1
  Te  Te88  1  0.44007325  0.69340862  0.40455630  1
  Te  Te89  1  0.41082008  0.74546799  0.72999856  1
  Te  Te90  1  0.77092169  0.07114611  0.09079723  1
  Te  Te91  1  0.74105091  0.07530447  0.44487358  1
  Te  Te92  1  0.72665784  0.07566809  0.74351586  1
  Te  Te93  1  0.75144549  0.44202639  0.09463434  1
  Te  Te94  1  0.71456918  0.43477398  0.42457346  1
  Te  Te95  1  0.75274646  0.44075727  0.75500098  1
  Te  Te96  1  0.73679992  0.73596235  0.07097724  1
  Te  Te97  1  0.73471780  0.74232700  0.39796936  1
  Te  Te98  1  0.76151544  0.76764471  0.75181666  1
  Te  Te99  1  0.10650626  0.25374807  0.23478348  1
  Te  Te100  1  0.07999971  0.25066090  0.57740701  1
  Te  Te101  1  0.08339956  0.26726923  0.92879323  1
  Te  Te102  1  0.07855314  0.57158663  0.23443113  1
  Te  Te103  1  0.07039047  0.58594817  0.58166734  1
  Te  Te104  1  0.08398146  0.58261437  0.94301834  1
  Te  Te105  1  0.11414121  0.91271269  0.21695894  1
  Te  Te106  1  0.11479400  0.90437896  0.56820458  1
  Te  Te107  1  0.09402327  0.92047428  0.94099644  1
  Te  Te108  1  0.42996643  0.25722044  0.24899617  1
  Te  Te109  1  0.41429322  0.24149132  0.56367980  1
  Te  Te110  1  0.40621327  0.24653262  0.90555147  1
  Te  Te111  1  0.39685512  0.60129320  0.28399322  1
  Te  Te112  1  0.45911854  0.55640483  0.56861212  1
  Te  Te113  1  0.44515174  0.61083095  0.89493027  1
  Te  Te114  1  0.43241201  0.93423047  0.29545871  1
  Te  Te115  1  0.41697550  0.92839801  0.55687590  1
  Te  Te116  1  0.40896175  0.91825910  0.93519398  1
  Te  Te117  1  0.76417271  0.26004108  0.27078930  1
  Te  Te118  1  0.74053822  0.24913792  0.61198825  1
  Te  Te119  1  0.73954810  0.25982328  0.87971407  1
  Te  Te120  1  0.73730092  0.58264657  0.25379812  1
  Te  Te121  1  0.74339218  0.59946717  0.55124508  1
  Te  Te122  1  0.74496968  0.58950850  0.93134939  1
  Te  Te123  1  0.75255712  0.92665155  0.25462100  1
  Te  Te124  1  0.76107077  0.89705241  0.58121406  1
  Te  Te125  1  0.74580630  0.90308933  0.91483178  1
  Te  Te126  1  0.24894015  0.25225422  0.07712991  1
  Te  Te127  1  0.28635185  0.21730730  0.37250818  1
  Te  Te128  1  0.23557592  0.24420861  0.73066847  1
  Te  Te129  1  0.25236170  0.59019950  0.08311217  1
  Te  Te130  1  0.24058237  0.58630256  0.44759571  1
  Te  Te131  1  0.25877028  0.58933376  0.73765939  1
  Te  Te132  1  0.25457009  0.90920184  0.14503132  1
  Te  Te133  1  0.25190821  0.88015771  0.38559827  1
  Te  Te134  1  0.23035933  0.90248993  0.73866736  1
  Te  Te135  1  0.60836503  0.25712906  0.09378827  1
  Te  Te136  1  0.59808201  0.25113114  0.40668666  1
  Te  Te137  1  0.60001087  0.28887955  0.69707017  1
  Te  Te138  1  0.59488067  0.58315280  0.08807664  1
  Te  Te139  1  0.52833049  0.56569534  0.43076411  1
  Te  Te140  1  0.60108716  0.62478695  0.74909723  1
  Te  Te141  1  0.57145684  0.91055251  0.09171081  1
  Te  Te142  1  0.55583167  0.91070230  0.39057408  1
  Te  Te143  1  0.58189837  0.91010039  0.76767547  1
  Te  Te144  1  0.92253966  0.24584286  0.07870580  1
  Te  Te145  1  0.91201452  0.26400974  0.42809561  1
  Te  Te146  1  0.88478943  0.22845743  0.70210371  1
  Te  Te147  1  0.87970075  0.53457881  0.08319271  1
  Te  Te148  1  0.90627186  0.60717831  0.41698263  1
  Te  Te149  1  0.93317119  0.58739978  0.74533939  1
  Te  Te150  1  0.91910687  0.90331289  0.11162444  1
  Te  Te151  1  0.92725617  0.91560796  0.42659408  1
  Te  Te152  1  0.92275964  0.91555746  0.75474395  1
  Te  Te153  1  0.27218889  0.08367479  0.29041431  1
  Te  Te154  1  0.25933093  0.09005207  0.56872644  1
  Te  Te155  1  0.26719193  0.06059024  0.95510002  1
  Te  Te156  1  0.24937973  0.40780925  0.25321689  1
  Te  Te157  1  0.25208711  0.40177498  0.57584851  1
  Te  Te158  1  0.26173146  0.43794578  0.93787098  1
  Te  Te159  1  0.25126266  0.74224687  0.29590880  1
  Te  Te160  1  0.28869683  0.74913501  0.57710385  1
  Te  Te161  1  0.23941268  0.74953037  0.90597248  1
  Te  Te162  1  0.57392971  0.07727618  0.23042362  1
  Te  Te163  1  0.58665160  0.07429700  0.55391605  1
  Te  Te164  1  0.59032532  0.10361709  0.93224688  1
  Te  Te165  1  0.56962608  0.45808362  0.21489324  1
  Te  Te166  1  0.58151469  0.41305774  0.60385088  1
  Te  Te167  1  0.55971784  0.40541453  0.91380137  1
  Te  Te168  1  0.57695511  0.75079571  0.25615715  1
  Te  Te169  1  0.56881820  0.75758086  0.56160534  1
  Te  Te170  1  0.52625949  0.74001673  0.93345295  1
  Te  Te171  1  0.91947337  0.06432625  0.25984192  1
  Te  Te172  1  0.91107250  0.06950279  0.58285010  1
  Te  Te173  1  0.91642252  0.09431423  0.91916556  1
  Te  Te174  1  0.92677673  0.42888157  0.25221992  1
  Te  Te175  1  0.90993891  0.42445464  0.57814997  1
  Te  Te176  1  0.90236493  0.40711274  0.93924807  1
  Te  Te177  1  0.91459404  0.74929543  0.23407012  1
  Te  Te178  1  0.89771387  0.80901661  0.54037212  1
  Te  Te179  1  0.93415797  0.74132898  0.92042530  1
