# generated using pymatgen
data_In2Te3
_symmetry_space_group_name_H-M   'P 1'
_cell_length_a   18.99119045
_cell_length_b   18.97624589
_cell_length_c   19.02386110
_cell_angle_alpha   89.87479492
_cell_angle_beta   90.02870741
_cell_angle_gamma   89.96596903
_symmetry_Int_Tables_number   1
_chemical_formula_structural   In2Te3
_chemical_formula_sum   'In72 Te108'
_cell_volume   6855.82914813
_cell_formula_units_Z   36
loop_
 _symmetry_equiv_pos_site_id
 _symmetry_equiv_pos_as_xyz
  1  'x, y, z'
loop_
 _atom_site_type_symbol
 _atom_site_label
 _atom_site_symmetry_multiplicity
 _atom_site_fract_x
 _atom_site_fract_y
 _atom_site_fract_z
 _atom_site_occupancy
  In  In0  1  0.17042314  -0.00809727  0.82751690  1
  In  In1  1  0.65307033  0.32832906  0.67578592  1
  In  In2  1  0.00518235  0.34134570  0.33904340  1
  In  In3  1  0.32733418  0.84418527  0.84069943  1
  In  In4  1  0.67469832  0.53363863  0.83265791  1
  In  In5  1  -0.01650492  0.66809557  -0.01516311  1
  In  In6  1  0.48799347  0.47781850  0.01324553  1
  In  In7  1  -0.01859042  0.49753587  0.48921411  1
  In  In8  1  0.52147042  0.31814588  0.84354071  1
  In  In9  1  0.49874421  0.82527077  0.32694658  1
  In  In10  1  0.85132003  -0.02227201  0.16614832  1
  In  In11  1  0.02352938  0.50575693  0.15113045  1
  In  In12  1  0.83326653  0.82164592  0.67160734  1
  In  In13  1  0.12855866  0.32384099  0.83195211  1
  In  In14  1  0.85958344  0.34519872  0.83192578  1
  In  In15  1  0.35333536  0.00608898  0.67500649  1
  In  In16  1  0.16460788  0.51511215  0.00799115  1
  In  In17  1  0.52137531  0.68898415  0.84119102  1
  In  In18  1  0.67370056  0.66633911  0.65632065  1
  In  In19  1  0.14252470  0.50690421  0.34060987  1
  In  In20  1  -0.01051748  0.15758076  0.15293995  1
  In  In21  1  0.68621302  0.66550966  0.01489996  1
  In  In22  1  0.14648243  0.16150189  -0.00458792  1
  In  In23  1  0.63765008  0.50161272  0.16566095  1
  In  In24  1  0.00234146  0.83778162  0.48770661  1
  In  In25  1  0.82323122  0.15104130  0.01152940  1
  In  In26  1  0.36127246  -0.00502456  0.01301387  1
  In  In27  1  0.15809374  0.14805507  0.66834573  1
  In  In28  1  0.50655521  0.00751067  0.48702134  1
  In  In29  1  0.64486785  0.17531064  0.17491331  1
  In  In30  1  0.65836066  0.85728254  0.14887648  1
  In  In31  1  -0.01203645  0.82743021  0.84274053  1
  In  In32  1  0.29926592  0.29652769  0.59765651  1
  In  In33  1  0.32903483  0.51747888  0.81758994  1
  In  In34  1  0.33052165  0.83501640  0.16942559  1
  In  In35  1  0.86000266  0.69905077  0.18530129  1
  In  In36  1  0.32095999  0.65940569  0.65588060  1
  In  In37  1  0.33759896  0.68821100  0.00256092  1
  In  In38  1  0.18379327  0.82950841  -0.00258394  1
  In  In39  1  0.00757762  0.18779274  0.49117438  1
  In  In40  1  0.33228134  0.34002112  0.33097304  1
  In  In41  1  0.33831958  0.00799406  0.33833548  1
  In  In42  1  0.48867209  0.19142033  0.33231029  1
  In  In43  1  0.31884842  0.32614746  -0.01229139  1
  In  In44  1  0.00500357  0.00205963  0.67240369  1
  In  In45  1  0.18070788  0.32336416  0.16336829  1
  In  In46  1  0.34959444  0.16422062  0.82590362  1
  In  In47  1  0.18209952  -0.01256967  0.49452322  1
  In  In48  1  -0.00870527  0.49929634  0.82241482  1
  In  In49  1  0.00517062  -0.02201143  0.31186793  1
  In  In50  1  0.19116701  0.17749022  0.35702580  1
  In  In51  1  0.68674753  0.00764242  0.32839191  1
  In  In52  1  0.66742889  0.30909361  0.01436047  1
  In  In53  1  0.81284205  0.16941253  0.69692712  1
  In  In54  1  0.68247319  0.87139895  0.85976447  1
  In  In55  1  0.17302762  0.68666665  0.16536148  1
  In  In56  1  0.47344172  0.47733174  0.65705398  1
  In  In57  1  0.80468647  0.33761277  0.17348700  1
  In  In58  1  0.48824135  0.33690495  0.51130597  1
  In  In59  1  0.68786487  0.80667219  0.49735884  1
  In  In60  1  0.83310546  0.51239675  0.33010555  1
  In  In61  1  0.67252686  0.12013845  0.86227296  1
  In  In62  1  0.83891124  0.51165233  0.64917224  1
  In  In63  1  0.82499286  -0.00491710  0.52507090  1
  In  In64  1  0.34633503  0.80488076  0.46933192  1
  In  In65  1  0.65395854  0.66263207  0.33468015  1
  In  In66  1  0.14493213  0.67625081  0.48504553  1
  In  In67  1  0.51762394  0.83996696  0.66889347  1
  In  In68  1  0.66335446  0.38850753  0.33279608  1
  In  In69  1  0.31507049  0.49250766  0.50408944  1
  In  In70  1  0.65286891  0.16401008  0.52460647  1
  In  In71  1  0.00145578  0.68008323  0.66638866  1
  Te  Te72  1  0.07357043  0.06549076  0.07893239  1
  Te  Te73  1  0.08378606  0.07236032  0.41546389  1
  Te  Te74  1  0.06821217  0.09100130  0.77672955  1
  Te  Te75  1  0.08895574  0.39733275  0.06811688  1
  Te  Te76  1  0.09776435  0.40408274  0.43927408  1
  Te  Te77  1  0.05838889  0.40450963  0.73209372  1
  Te  Te78  1  0.07526313  0.75407061  0.07161009  1
  Te  Te79  1  0.08434960  0.76915715  0.38667594  1
  Te  Te80  1  0.08303124  0.76709282  0.74910078  1
  Te  Te81  1  0.46904593  0.07042795  0.08106912  1
  Te  Te82  1  0.40812883  0.10634639  0.42978030  1
  Te  Te83  1  0.44504094  0.06671393  0.77042836  1
  Te  Te84  1  0.37824059  0.41777234  0.08626973  1
  Te  Te85  1  0.42076258  0.43050663  0.41358712  1
  Te  Te86  1  0.41350394  0.39940861  0.77079690  1
  Te  Te87  1  0.42533968  0.78358166  0.06848266  1
  Te  Te88  1  0.43042942  0.71315916  0.39191088  1
  Te  Te89  1  0.41552927  0.74703562  0.74632139  1
  Te  Te90  1  0.74448208  0.07822684  0.11611881  1
  Te  Te91  1  0.75268029  0.09222719  0.43290486  1
  Te  Te92  1  0.75049428  0.05278691  0.75834252  1
  Te  Te93  1  0.73939032  0.42797104  0.07260948  1
  Te  Te94  1  0.77694104  0.41342851  0.42175300  1
  Te  Te95  1  0.74439127  0.42352264  0.75225236  1
  Te  Te96  1  0.76819075  0.77018442  0.08721526  1
  Te  Te97  1  0.76505089  0.73269523  0.39919856  1
  Te  Te98  1  0.72792143  0.75908699  0.76005263  1
  Te  Te99  1  0.08809608  0.24169332  0.25272089  1
  Te  Te100  1  0.09362698  0.25271099  0.58895314  1
  Te  Te101  1  0.04882318  0.24299393  0.92368648  1
  Te  Te102  1  0.07343186  0.60667468  0.25038733  1
  Te  Te103  1  0.07457884  0.58180246  0.57852067  1
  Te  Te104  1  0.08523821  0.59007907  0.90545494  1
  Te  Te105  1  0.07876326  0.87968486  0.23409506  1
  Te  Te106  1  0.08991064  0.91079150  0.58750515  1
  Te  Te107  1  0.08357077  0.91632305  0.92349325  1
  Te  Te108  1  0.38892117  0.24188733  0.23896035  1
  Te  Te109  1  0.43417840  0.24676759  0.61194664  1
  Te  Te110  1  0.42966796  0.23765117  0.93217217  1
  Te  Te111  1  0.51388535  0.52860851  0.25057281  1
  Te  Te112  1  0.41853790  0.58617729  0.56740085  1
  Te  Te113  1  0.42373421  0.58876534  0.91171490  1
  Te  Te114  1  0.42585917  0.92821095  0.24473321  1
  Te  Te115  1  0.41551864  0.90657342  0.56803467  1
  Te  Te116  1  0.43251277  0.90402014  0.92131972  1
  Te  Te117  1  0.73105990  0.25493490  0.27068819  1
  Te  Te118  1  0.75422995  0.25742662  0.58868609  1
  Te  Te119  1  0.75374210  0.24931343  0.90685146  1
  Te  Te120  1  0.75123628  0.59218675  0.22837227  1
  Te  Te121  1  0.75073955  0.58874956  0.56127654  1
  Te  Te122  1  0.77380323  0.59949301  0.91662640  1
  Te  Te123  1  0.75802054  0.89713770  0.25735933  1
  Te  Te124  1  0.72872017  0.90835863  0.60155375  1
  Te  Te125  1  0.77586890  0.94334733  0.95159491  1
  Te  Te126  1  0.25596764  0.22185268  0.08047491  1
  Te  Te127  1  0.26493601  0.27023799  0.44759828  1
  Te  Te128  1  0.24315508  0.24452305  0.75664982  1
  Te  Te129  1  0.26624516  0.58883997  0.09152140  1
  Te  Te130  1  0.24686795  0.59040238  0.41090786  1
  Te  Te131  1  0.22660063  0.57399079  0.72961297  1
  Te  Te132  1  0.24576265  0.93213489  0.08887291  1
  Te  Te133  1  0.25055944  0.89782616  0.39491640  1
  Te  Te134  1  0.24930571  0.90998407  0.72885445  1
  Te  Te135  1  0.55481768  0.26853105  0.09990597  1
  Te  Te136  1  0.58855134  0.26083124  0.42373789  1
  Te  Te137  1  0.59777327  0.21845641  0.76295552  1
  Te  Te138  1  0.56201514  0.59781274  0.07026143  1
  Te  Te139  1  0.60570841  0.52703677  0.37824578  1
  Te  Te140  1  0.56339216  0.57892431  0.73790270  1
  Te  Te141  1  0.58573408  0.96007204  0.06980118  1
  Te  Te142  1  0.59835457  0.90816026  0.41554246  1
  Te  Te143  1  0.56702997  0.92276589  0.77990841  1
  Te  Te144  1  0.90050255  0.25934476  0.08413933  1
  Te  Te145  1  0.90903639  0.25574203  0.40764877  1
  Te  Te146  1  0.92575520  0.23824898  0.75823954  1
  Te  Te147  1  0.91186585  0.58862627  0.09191436  1
  Te  Te148  1  0.93280859  0.59787556  0.39432473  1
  Te  Te149  1  0.90320974  0.60193186  0.75036876  1
  Te  Te150  1  0.90642821  0.93049262  0.03728049  1
  Te  Te151  1  0.90252147  0.92607287  0.41706651  1
  Te  Te152  1  0.90600599  0.92384037  0.75504343  1
  Te  Te153  1  0.23721519  0.08059838  0.25992791  1
  Te  Te154  1  0.26244328  0.08261775  0.57959221  1
  Te  Te155  1  0.26307289  0.07347608  0.91422393  1
  Te  Te156  1  0.23958455  0.43144112  0.25108433  1
  Te  Te157  1  0.24956515  0.43144213  0.62056472  1
  Te  Te158  1  0.23523447  0.42373192  0.90423786  1
  Te  Te159  1  0.27594161  0.73259789  0.25871045  1
  Te  Te160  1  0.24330415  0.75597906  0.56967549  1
  Te  Te161  1  0.24087977  0.73263962  0.89545922  1
  Te  Te162  1  0.57019547  0.07836387  0.26689151  1
  Te  Te163  1  0.57938971  0.06337145  0.59943312  1
  Te  Te164  1  0.58134249  0.08259003  0.97088971  1
  Te  Te165  1  0.55644334  0.38261784  0.22184252  1
  Te  Te166  1  0.59217446  0.42683854  0.57826247  1
  Te  Te167  1  0.59774245  0.42807979  0.91604669  1
  Te  Te168  1  0.58527585  0.74880953  0.22920523  1
  Te  Te169  1  0.57233736  0.73929024  0.56894539  1
  Te  Te170  1  0.59970077  0.76784776  0.93989692  1
  Te  Te171  1  0.91011664  0.08403137  0.25897704  1
  Te  Te172  1  0.92064401  0.09468847  0.58757907  1
  Te  Te173  1  0.89313377  0.04738294  0.93317067  1
  Te  Te174  1  0.92651668  0.41904157  0.23326862  1
  Te  Te175  1  0.92237769  0.40849656  0.58995421  1
  Te  Te176  1  0.91566867  0.43490390  0.93036690  1
  Te  Te177  1  0.94881086  0.80534136  0.24367326  1
  Te  Te178  1  0.90873124  0.74631492  0.56590105  1
  Te  Te179  1  0.88414482  0.74630153  0.90934873  1
