# generated using pymatgen
data_In2Te3
_symmetry_space_group_name_H-M   'P 1'
_cell_length_a   18.76368323
_cell_length_b   18.76426676
_cell_length_c   18.76416056
_cell_angle_alpha   89.99054389
_cell_angle_beta   90.09572002
_cell_angle_gamma   89.99422189
_symmetry_Int_Tables_number   1
_chemical_formula_structural   In2Te3
_chemical_formula_sum   'In72 Te108'
_cell_volume   6606.60310646
_cell_formula_units_Z   36
loop_
 _symmetry_equiv_pos_site_id
 _symmetry_equiv_pos_as_xyz
  1  'x, y, z'
loop_
 _atom_site_type_symbol
 _atom_site_label
 _atom_site_symmetry_multiplicity
 _atom_site_fract_x
 _atom_site_fract_y
 _atom_site_fract_z
 _atom_site_occupancy
  In  In0  1  0.81541359  0.81809555  0.00664874  1
  In  In1  1  -0.01611574  0.63907870  0.67674237  1
  In  In2  1  0.49641404  0.51122970  0.68640867  1
  In  In3  1  0.31765260  -0.00755355  0.33023122  1
  In  In4  1  -0.00397881  0.17898661  0.14162181  1
  In  In5  1  0.17701770  0.15354320  0.33035623  1
  In  In6  1  -0.01081692  0.01229732  0.67285331  1
  In  In7  1  0.00787356  0.81726504  0.17828832  1
  In  In8  1  0.01163524  0.50908089  0.15693965  1
  In  In9  1  0.65581687  0.64702534  0.33283076  1
  In  In10  1  0.34260442  0.35315480  0.68226699  1
  In  In11  1  0.33984427  0.61094773  -0.00726526  1
  In  In12  1  0.65882286  0.17319274  0.16506785  1
  In  In13  1  0.65970312  0.02002613  -0.01415034  1
  In  In14  1  0.31104335  0.37464335  -0.00901875  1
  In  In15  1  0.84007790  0.00504606  0.85356569  1
  In  In16  1  0.34308994  0.18023121  0.50871828  1
  In  In17  1  0.80709198  0.19279790  0.32273530  1
  In  In18  1  0.17244213  0.66736169  0.84546037  1
  In  In19  1  0.36228265  -0.01680963  -0.00937072  1
  In  In20  1  0.16658360  0.17506047  0.01568534  1
  In  In21  1  0.49894766  -0.00932296  0.50789661  1
  In  In22  1  0.49532098  0.00168658  0.16489132  1
  In  In23  1  0.34306789  0.35178911  0.31759600  1
  In  In24  1  0.16786007  0.48570563  0.67094339  1
  In  In25  1  0.02923668  0.82101991  0.49963316  1
  In  In26  1  0.67701568  0.18412729  0.50454460  1
  In  In27  1  0.63565091  0.34693499  0.32234975  1
  In  In28  1  0.51098174  0.17595492  0.00411937  1
  In  In29  1  0.49569663  0.34540038  0.51031069  1
  In  In30  1  0.84847890  -0.01623755  0.50992242  1
  In  In31  1  0.82197560  0.80373278  0.30918787  1
  In  In32  1  0.18141194  -0.00450605  0.81466434  1
  In  In33  1  0.84744681  -0.01581856  0.16305746  1
  In  In34  1  -0.02938394  0.37205012  -0.01666353  1
  In  In35  1  0.17881893  -0.01778898  0.45826513  1
  In  In36  1  0.49154327  0.35574080  0.14714104  1
  In  In37  1  0.34222604  0.17856447  0.81834009  1
  In  In38  1  0.35022980  0.00457979  0.68136797  1
  In  In39  1  0.16398244  0.82650530  -0.00833500  1
  In  In40  1  0.79995631  0.50219885  0.70310962  1
  In  In41  1  0.02223870  0.35634711  0.69014442  1
  In  In42  1  -0.00973720  0.66354639  0.00530031  1
  In  In43  1  0.01388967  0.00003812  0.33210933  1
  In  In44  1  0.81543124  0.20178728  -0.03580264  1
  In  In45  1  0.83435813  0.33211572  0.51017973  1
  In  In46  1  0.16296519  0.35027975  0.17204720  1
  In  In47  1  0.65557873  0.81865177  0.50771558  1
  In  In48  1  -0.01569308  0.17677376  0.84727560  1
  In  In49  1  0.32711789  0.82037809  0.15836578  1
  In  In50  1  0.53471376  0.35299775  0.84695308  1
  In  In51  1  0.52045806  0.63960771  0.15202358  1
  In  In52  1  0.65748403  0.79150577  0.13633913  1
  In  In53  1  0.17600698  0.81089698  0.32586670  1
  In  In54  1  0.17990590  0.34744575  0.53799810  1
  In  In55  1  0.50564261  0.81029282  0.68435781  1
  In  In56  1  0.00433226  0.81222821  0.85509157  1
  In  In57  1  -0.00054183  0.50857303  0.49560291  1
  In  In58  1  -0.01933483  0.36436868  0.32882796  1
  In  In59  1  0.65427139  0.50945532  0.50528660  1
  In  In60  1  0.82349416  0.79007893  0.68757093  1
  In  In61  1  0.51860805  0.79792564  -0.03285157  1
  In  In62  1  0.18532985  0.51466184  0.32375058  1
  In  In63  1  0.65752945  0.64043367  0.67820344  1
  In  In64  1  0.19833373  0.82594385  0.65449435  1
  In  In65  1  0.64463597  -0.01087506  0.34368578  1
  In  In66  1  0.34599639  0.66706113  0.66023924  1
  In  In67  1  0.83296988  0.51783123  0.32321494  1
  In  In68  1  0.64995172  -0.00179642  0.68015369  1
  In  In69  1  0.35988773  0.66554995  0.33378340  1
  In  In70  1  0.19906798  0.19226190  0.66072634  1
  In  In71  1  0.82282649  0.16928346  0.67970744  1
  Te  Te72  1  0.08576320  0.07500007  0.08961745  1
  Te  Te73  1  0.07820535  0.09611026  0.43207093  1
  Te  Te74  1  0.08686680  0.10243875  0.75286048  1
  Te  Te75  1  0.09720928  0.42923568  0.05880566  1
  Te  Te76  1  0.09549506  0.41346944  0.41944735  1
  Te  Te77  1  0.08654488  0.44538324  0.79415336  1
  Te  Te78  1  0.09984369  0.72989828  0.08992359  1
  Te  Te79  1  0.07580804  0.72641754  0.39729185  1
  Te  Te80  1  0.08346216  0.75355268  0.73919875  1
  Te  Te81  1  0.40698014  0.09615238  0.08408854  1
  Te  Te82  1  0.41268557  0.08074347  0.41712669  1
  Te  Te83  1  0.44476145  0.08904904  0.75777584  1
  Te  Te84  1  0.41903469  0.45515895  0.05681911  1
  Te  Te85  1  0.42286773  0.43142717  0.41379392  1
  Te  Te86  1  0.41270617  0.43376325  0.78987605  1
  Te  Te87  1  0.42293924  0.73658022  0.07138082  1
  Te  Te88  1  0.41736036  0.77581219  0.41227816  1
  Te  Te89  1  0.42415226  0.72298893  0.77824055  1
  Te  Te90  1  0.75738868  0.08808733  0.08454712  1
  Te  Te91  1  0.75317796  0.07503257  0.41755024  1
  Te  Te92  1  0.73793199  0.08525629  0.77212553  1
  Te  Te93  1  0.71562567  0.44274939  0.04027775  1
  Te  Te94  1  0.74646338  0.41414624  0.41499097  1
  Te  Te95  1  0.73476116  0.41070468  0.80305800  1
  Te  Te96  1  0.77349358  0.70828221  0.09902539  1
  Te  Te97  1  0.74941965  0.73299351  0.42379606  1
  Te  Te98  1  0.72830991  0.72637254  0.78254189  1
  Te  Te99  1  0.07583617  0.25463347  0.25504849  1
  Te  Te100  1  0.07513085  0.25013473  0.59014672  1
  Te  Te101  1  0.07480885  0.26433692  0.93199035  1
  Te  Te102  1  0.07053049  0.59023835  0.26681467  1
  Te  Te103  1  0.09451129  0.58960918  0.58395530  1
  Te  Te104  1  0.07166663  0.58002528  0.91000016  1
  Te  Te105  1  0.10468417  0.91960820  0.24184984  1
  Te  Te106  1  0.08995795  0.92871802  0.59202961  1
  Te  Te107  1  0.08230812  0.93086339  0.91248363  1
  Te  Te108  1  0.42457148  0.25817749  0.23940269  1
  Te  Te109  1  0.42953774  0.24790388  0.61355267  1
  Te  Te110  1  0.41509059  0.26650957  0.92103863  1
  Te  Te111  1  0.43302006  0.56582734  0.24693762  1
  Te  Te112  1  0.43310713  0.58282018  0.57309602  1
  Te  Te113  1  0.43595532  0.60028899  0.88018640  1
  Te  Te114  1  0.41563392  0.90401196  0.25016636  1
  Te  Te115  1  0.41421400  0.89711947  0.59340818  1
  Te  Te116  1  0.45122899  0.91296472  0.89622315  1
  Te  Te117  1  0.74211706  0.28881964  0.22672247  1
  Te  Te118  1  0.73456472  0.27616193  0.61190363  1
  Te  Te119  1  0.70965680  0.26744391  0.87835361  1
  Te  Te120  1  0.73322317  0.57452862  0.22899073  1
  Te  Te121  1  0.76338851  0.58619516  0.57856950  1
  Te  Te122  1  0.72789325  0.54905856  0.94188936  1
  Te  Te123  1  0.73387835  0.91461982  0.24251800  1
  Te  Te124  1  0.74715433  0.90645971  0.59825232  1
  Te  Te125  1  0.73667382  0.90923502  0.91178289  1
  Te  Te126  1  0.26293857  0.26651526  0.09143723  1
  Te  Te127  1  0.24987640  0.26290029  0.41956773  1
  Te  Te128  1  0.23397827  0.28815288  0.77451547  1
  Te  Te129  1  0.24322983  0.54519609  0.08169924  1
  Te  Te130  1  0.26029058  0.59511759  0.42233281  1
  Te  Te131  1  0.25682309  0.58137101  0.75264544  1
  Te  Te132  1  0.25036863  0.92310579  0.07556774  1
  Te  Te133  1  0.28016041  0.86987324  0.42538009  1
  Te  Te134  1  0.28079037  0.89272892  0.76477298  1
  Te  Te135  1  0.60544753  0.27598325  0.06772111  1
  Te  Te136  1  0.56845649  0.24671147  0.41628365  1
  Te  Te137  1  0.60362504  0.25324537  0.76496317  1
  Te  Te138  1  0.60095744  0.57990686  0.03971818  1
  Te  Te139  1  0.55554591  0.57302378  0.41543171  1
  Te  Te140  1  0.57108089  0.58815571  0.79681259  1
  Te  Te141  1  0.58313531  0.91423281  0.07542300  1
  Te  Te142  1  0.55585552  0.88292224  0.40971884  1
  Te  Te143  1  0.58440087  0.90174828  0.77123831  1
  Te  Te144  1  0.89530207  0.27328630  0.07570117  1
  Te  Te145  1  0.91861951  0.25062088  0.41176811  1
  Te  Te146  1  0.90879926  0.27123460  0.75540035  1
  Te  Te147  1  0.90288664  0.56104609  0.06807878  1
  Te  Te148  1  0.91650058  0.59929110  0.41416764  1
  Te  Te149  1  0.90717453  0.57001538  0.78305671  1
  Te  Te150  1  0.93110906  0.89852164  0.07091297  1
  Te  Te151  1  0.91853944  0.89991935  0.40072248  1
  Te  Te152  1  0.91055776  0.90908020  0.75409302  1
  Te  Te153  1  0.25433216  0.08129800  0.22946157  1
  Te  Te154  1  0.25085221  0.07097238  0.57993308  1
  Te  Te155  1  0.25795105  0.08739335  0.91212836  1
  Te  Te156  1  0.27159800  0.45552979  0.21136445  1
  Te  Te157  1  0.28764692  0.44567663  0.57381609  1
  Te  Te158  1  0.22853043  0.42214657  0.87834826  1
  Te  Te159  1  0.24823175  0.71509777  0.23100330  1
  Te  Te160  1  0.24601617  0.72241466  0.56162439  1
  Te  Te161  1  0.27309604  0.74651643  0.92530691  1
  Te  Te162  1  0.56980579  0.09530275  0.26177624  1
  Te  Te163  1  0.57942204  0.09553936  0.58605274  1
  Te  Te164  1  0.56372500  0.08860822  0.89568932  1
  Te  Te165  1  0.56657926  0.44953068  0.23953643  1
  Te  Te166  1  0.58988496  0.41693727  0.60855731  1
  Te  Te167  1  0.57897323  0.44282215  0.96183239  1
  Te  Te168  1  0.57064401  0.74791120  0.25096715  1
  Te  Te169  1  0.56667873  0.71747799  0.57856384  1
  Te  Te170  1  0.62762197  0.71653420  0.90926987  1
  Te  Te171  1  0.91104391  0.09180611  0.25530021  1
  Te  Te172  1  0.91575734  0.10528466  0.57565232  1
  Te  Te173  1  0.92202305  0.08578960  0.95239951  1
  Te  Te174  1  0.89707121  0.42233131  0.21951072  1
  Te  Te175  1  0.91553843  0.42868375  0.59818065  1
  Te  Te176  1  0.87408183  0.41550359  0.87694359  1
  Te  Te177  1  0.91373058  0.71693687  0.23375470  1
  Te  Te178  1  0.92036300  0.74424556  0.58152242  1
  Te  Te179  1  0.89006738  0.72868141  0.90507917  1
