# generated using pymatgen
data_In2Te3
_symmetry_space_group_name_H-M   'P 1'
_cell_length_a   18.77322775
_cell_length_b   18.78558096
_cell_length_c   18.77156101
_cell_angle_alpha   89.98434676
_cell_angle_beta   89.98490939
_cell_angle_gamma   89.95743518
_symmetry_Int_Tables_number   1
_chemical_formula_structural   In2Te3
_chemical_formula_sum   'In72 Te108'
_cell_volume   6620.08883701
_cell_formula_units_Z   36
loop_
 _symmetry_equiv_pos_site_id
 _symmetry_equiv_pos_as_xyz
  1  'x, y, z'
loop_
 _atom_site_type_symbol
 _atom_site_label
 _atom_site_symmetry_multiplicity
 _atom_site_fract_x
 _atom_site_fract_y
 _atom_site_fract_z
 _atom_site_occupancy
  In  In0  1  0.64501149  0.16295820  0.45340285  1
  In  In1  1  0.81642457  0.83391533  -0.00478572  1
  In  In2  1  0.67597885  0.14397015  0.82679654  1
  In  In3  1  0.52418000  0.00288935  0.47966751  1
  In  In4  1  0.48062747  0.68150288  0.83172029  1
  In  In5  1  0.19354117  0.19174603  0.04306430  1
  In  In6  1  0.34328317  0.13481254  0.84941323  1
  In  In7  1  0.78858719  0.01043768  0.18917462  1
  In  In8  1  0.01344593  0.48865355  0.49687202  1
  In  In9  1  0.36677969  0.00020742  0.01609492  1
  In  In10  1  0.65563813  0.68106098  0.04082441  1
  In  In11  1  0.49946339  0.85753992  0.01531560  1
  In  In12  1  0.85277188  0.49711031  0.69112892  1
  In  In13  1  0.49416071  -0.00827689  0.81997229  1
  In  In14  1  0.19598878  0.68787123  0.49858917  1
  In  In15  1  0.80644965  0.86533786  0.63298104  1
  In  In16  1  -0.02272894  0.16451286  0.48452489  1
  In  In17  1  0.64459871  0.67963780  0.66149199  1
  In  In18  1  0.15830291  0.17035429  0.66539001  1
  In  In19  1  0.48089126  0.68258568  0.50138263  1
  In  In20  1  0.66146139  0.33922543  0.64493706  1
  In  In21  1  0.35884866  0.14656938  0.48797155  1
  In  In22  1  0.50916275  0.84890726  0.66796033  1
  In  In23  1  -0.01110100  0.00388128  -0.00362014  1
  In  In24  1  -0.00869922  0.81264840  0.16980158  1
  In  In25  1  0.14706094  -0.00264286  0.48328381  1
  In  In26  1  0.33391906  0.67216352  0.34870928  1
  In  In27  1  -0.00327118  0.31813161  0.02764610  1
  In  In28  1  0.83647037  0.15991594  0.02230704  1
  In  In29  1  0.00258134  0.64980707  -0.00478772  1
  In  In30  1  0.50399962  0.52090842  0.03106826  1
  In  In31  1  0.34513627  0.50028764  0.47141363  1
  In  In32  1  0.14621780  0.49160267  0.01054533  1
  In  In33  1  0.00154493  0.51808955  0.85528180  1
  In  In34  1  0.67922825  0.50631208  0.85699192  1
  In  In35  1  0.17726427  0.83433411  0.33085885  1
  In  In36  1  0.49725946  0.49732280  0.63777495  1
  In  In37  1  0.17312945  0.35756325  0.83544299  1
  In  In38  1  0.50334196  0.30608346  0.21491110  1
  In  In39  1  -0.00463714  0.82861842  0.48162100  1
  In  In40  1  0.29986722  0.49520024  0.82285124  1
  In  In41  1  0.66186606  0.85586009  0.82967728  1
  In  In42  1  0.01837224  0.82606966  0.78343383  1
  In  In43  1  0.82661112  0.30357537  0.46510528  1
  In  In44  1  0.16940056  0.52221229  0.65522429  1
  In  In45  1  0.86212673  0.29969323  0.82614646  1
  In  In46  1  0.67684972  0.49122873  0.48919476  1
  In  In47  1  0.00787418  0.20144829  0.19345314  1
  In  In48  1  0.16796683  0.33946724  0.47190940  1
  In  In49  1  -0.02229912  0.18247032  0.83849444  1
  In  In50  1  0.33540264  0.68036012  0.00518632  1
  In  In51  1  0.35698713  -0.01125697  0.30996447  1
  In  In52  1  0.33686912  0.48184733  0.19288434  1
  In  In53  1  0.83097967  0.67733775  0.17675596  1
  In  In54  1  -0.01956126  -0.00273254  0.65538092  1
  In  In55  1  0.19341885  -0.01296993  0.81473927  1
  In  In56  1  0.49386591  0.31426813  0.83959806  1
  In  In57  1  0.49547637  0.48288027  0.34122663  1
  In  In58  1  0.82225949  0.67752574  0.50201392  1
  In  In59  1  0.84455462  0.66184635  0.83259157  1
  In  In60  1  -0.01026539  0.00459976  0.34000846  1
  In  In61  1  0.63976429  0.70392885  0.31285209  1
  In  In62  1  0.16200224  0.64030095  0.20359905  1
  In  In63  1  0.34857999  0.30792410  0.64558419  1
  In  In64  1  0.49281728  0.17137824  0.01451927  1
  In  In65  1  0.84745332  0.49201946  0.32569350  1
  In  In66  1  0.82122633  0.48069610  0.04067541  1
  In  In67  1  0.33639235  -0.01640019  0.67703881  1
  In  In68  1  0.17892546  0.84773074  0.00494743  1
  In  In69  1  0.67312370  0.33676011  0.03109085  1
  In  In70  1  0.18569149  0.01309566  0.15604369  1
  In  In71  1  -0.03148331  0.32195395  0.68338815  1
  Te  Te72  1  0.06911675  0.09830724  0.08582791  1
  Te  Te73  1  0.09128993  0.10766666  0.39606970  1
  Te  Te74  1  0.07535376  0.07968562  0.75619018  1
  Te  Te75  1  0.09129331  0.39772028  0.11321999  1
  Te  Te76  1  0.05631444  0.39500628  0.38834856  1
  Te  Te77  1  0.07207890  0.42435179  0.73970523  1
  Te  Te78  1  0.09745022  0.74030591  0.08602646  1
  Te  Te79  1  0.08297795  0.73713870  0.39729207  1
  Te  Te80  1  0.11820501  0.72814225  0.74426829  1
  Te  Te81  1  0.42380220  0.09002247  0.12253925  1
  Te  Te82  1  0.44892165  0.09080425  0.37782349  1
  Te  Te83  1  0.42701015  0.09686972  0.72965731  1
  Te  Te84  1  0.43601969  0.40700096  0.10387415  1
  Te  Te85  1  0.39602390  0.38406903  0.39471405  1
  Te  Te86  1  0.41658580  0.41335800  0.74711680  1
  Te  Te87  1  0.44736635  0.73573272  0.08847886  1
  Te  Te88  1  0.41438488  0.77873888  0.41174785  1
  Te  Te89  1  0.41342189  0.74801061  0.72014909  1
  Te  Te90  1  0.72276784  0.08556829  0.08009516  1
  Te  Te91  1  0.76590417  0.09985584  0.38407595  1
  Te  Te92  1  0.77794144  0.08367133  0.74075316  1
  Te  Te93  1  0.74220248  0.40783401  0.14353164  1
  Te  Te94  1  0.73869551  0.40021921  0.38518806  1
  Te  Te95  1  0.75113952  0.40139054  0.75615631  1
  Te  Te96  1  0.73657028  0.78405753  0.11619096  1
  Te  Te97  1  0.74918611  0.75681322  0.40052311  1
  Te  Te98  1  0.74960240  0.75016572  0.75004632  1
  Te  Te99  1  0.13640456  0.26929245  0.23098074  1
  Te  Te100  1  0.07064139  0.25856785  0.57797977  1
  Te  Te101  1  0.09114978  0.25474863  0.91977181  1
  Te  Te102  1  0.04756648  0.56198198  0.24761751  1
  Te  Te103  1  0.07971636  0.60653350  0.56733066  1
  Te  Te104  1  0.11757823  0.60203728  0.90699071  1
  Te  Te105  1  0.08391147  0.92259610  0.24305408  1
  Te  Te106  1  0.08078957  0.90569443  0.58455146  1
  Te  Te107  1  0.07944523  0.91699402  0.90842354  1
  Te  Te108  1  0.38437023  0.21067631  0.22315641  1
  Te  Te109  1  0.44908112  0.23209402  0.57038485  1
  Te  Te110  1  0.39064773  0.25275022  0.93488433  1
  Te  Te111  1  0.42398280  0.58919623  0.25696558  1
  Te  Te112  1  0.39005910  0.59241638  0.58664519  1
  Te  Te113  1  0.41490330  0.56951353  0.91289610  1
  Te  Te114  1  0.46666720  0.91464314  0.23459144  1
  Te  Te115  1  0.42133022  0.92312845  0.56665159  1
  Te  Te116  1  0.40286530  0.90162338  0.90146702  1
  Te  Te117  1  0.70971950  0.21420405  0.29076136  1
  Te  Te118  1  0.73619420  0.23408787  0.56504149  1
  Te  Te119  1  0.74588707  0.25426522  0.92267037  1
  Te  Te120  1  0.74572428  0.59565205  0.27384952  1
  Te  Te121  1  0.74558957  0.57416083  0.60191678  1
  Te  Te122  1  0.76624338  0.60039483  0.95013134  1
  Te  Te123  1  0.71308665  0.91923695  0.27990710  1
  Te  Te124  1  0.70691898  0.92720154  0.54254437  1
  Te  Te125  1  0.72869099  0.93544892  0.93409271  1
  Te  Te126  1  0.27407726  0.27979614  0.13803520  1
  Te  Te127  1  0.27392155  0.25023053  0.41878707  1
  Te  Te128  1  0.25423545  0.24380885  0.75933705  1
  Te  Te129  1  0.25567949  0.57800417  0.08916219  1
  Te  Te130  1  0.23094542  0.56969265  0.40070372  1
  Te  Te131  1  0.24400664  0.61311133  0.74801405  1
  Te  Te132  1  0.28113775  0.90598836  0.10312015  1
  Te  Te133  1  0.26370825  0.92406197  0.41740694  1
  Te  Te134  1  0.23860258  0.87586184  0.72249417  1
  Te  Te135  1  0.59450240  0.23267122  0.11013737  1
  Te  Te136  1  0.57985696  0.26311012  0.35558372  1
  Te  Te137  1  0.59016240  0.24458051  0.74529409  1
  Te  Te138  1  0.60565841  0.57119031  0.12616158  1
  Te  Te139  1  0.58102303  0.59172133  0.42326222  1
  Te  Te140  1  0.57947570  0.57095471  0.74877698  1
  Te  Te141  1  0.57260807  0.92839969  0.12157163  1
  Te  Te142  1  0.62220599  0.91197487  0.40987038  1
  Te  Te143  1  0.60844484  0.95231327  0.72531325  1
  Te  Te144  1  0.88705834  0.26522289  0.12128988  1
  Te  Te145  1  0.93164045  0.25277270  0.37219982  1
  Te  Te146  1  0.88179050  0.19366521  0.70678857  1
  Te  Te147  1  0.92499137  0.57660073  0.10314630  1
  Te  Te148  1  0.91730667  0.58619464  0.42465980  1
  Te  Te149  1  0.94946830  0.60481039  0.73757565  1
  Te  Te150  1  0.90743859  0.91919315  0.09431329  1
  Te  Te151  1  0.89582819  0.92614702  0.42582094  1
  Te  Te152  1  0.89734741  0.91349455  0.75337579  1
  Te  Te153  1  0.25476416  0.08830308  0.26211993  1
  Te  Te154  1  0.24599217  0.07658855  0.58442441  1
  Te  Te155  1  0.23778314  0.07203180  0.94120050  1
  Te  Te156  1  0.23116498  0.39556366  0.25271437  1
  Te  Te157  1  0.25329923  0.41337568  0.58499863  1
  Te  Te158  1  0.26187356  0.41081499  0.94735025  1
  Te  Te159  1  0.26325933  0.75210071  0.23607371  1
  Te  Te160  1  0.24637116  0.78857889  0.59070486  1
  Te  Te161  1  0.26447009  0.76986320  0.91181454  1
  Te  Te162  1  0.64670320  0.06799258  0.29301076  1
  Te  Te163  1  0.60401816  0.08327961  0.57595061  1
  Te  Te164  1  0.57115079  0.07782387  0.91938199  1
  Te  Te165  1  0.59053578  0.42788693  0.23952514  1
  Te  Te166  1  0.56390903  0.39900232  0.54230868  1
  Te  Te167  1  0.57482533  0.40886669  0.93026633  1
  Te  Te168  1  0.54188410  0.77614707  0.22593225  1
  Te  Te169  1  0.59242538  0.77481969  0.55880257  1
  Te  Te170  1  0.59127008  0.74686465  0.91438072  1
  Te  Te171  1  0.91065418  0.08855932  0.24052428  1
  Te  Te172  1  0.89852713  0.04958017  0.54069118  1
  Te  Te173  1  0.88942283  0.07417820  0.90539176  1
  Te  Te174  1  0.95553510  0.43535136  0.24082754  1
  Te  Te175  1  0.89573759  0.40936058  0.57033778  1
  Te  Te176  1  0.91445322  0.41538592  0.92810727  1
  Te  Te177  1  0.90704792  0.75792084  0.27669927  1
  Te  Te178  1  0.91174976  0.76151683  0.59321284  1
  Te  Te179  1  0.93182956  0.76214649  0.91843225  1
