# generated using pymatgen
data_In2Te3
_symmetry_space_group_name_H-M   'P 1'
_cell_length_a   18.92412606
_cell_length_b   18.91995512
_cell_length_c   18.93772091
_cell_angle_alpha   90.03843339
_cell_angle_beta   90.04505679
_cell_angle_gamma   90.07248792
_symmetry_Int_Tables_number   1
_chemical_formula_structural   In2Te3
_chemical_formula_sum   'In72 Te108'
_cell_volume   6780.52101632
_cell_formula_units_Z   36
loop_
 _symmetry_equiv_pos_site_id
 _symmetry_equiv_pos_as_xyz
  1  'x, y, z'
loop_
 _atom_site_type_symbol
 _atom_site_label
 _atom_site_symmetry_multiplicity
 _atom_site_fract_x
 _atom_site_fract_y
 _atom_site_fract_z
 _atom_site_occupancy
  In  In0  1  0.17600090  0.65393010  0.83799947  1
  In  In1  1  0.83156162  0.18500458  -0.02493420  1
  In  In2  1  0.84966375  0.02475449  0.14076668  1
  In  In3  1  0.00876879  0.64053625  0.00831631  1
  In  In4  1  0.00594760  0.32738251  -0.01282202  1
  In  In5  1  0.52561924  0.16712613  -0.03190900  1
  In  In6  1  0.17131829  0.32205991  0.83757214  1
  In  In7  1  0.68219185  -0.00682046  0.33065393  1
  In  In8  1  0.49693911  0.49225718  0.35612765  1
  In  In9  1  0.00410753  0.18752896  0.53066559  1
  In  In10  1  0.32774684  0.01230022  0.68168860  1
  In  In11  1  0.18110670  0.49279436  -0.02573737  1
  In  In12  1  0.16300001  0.67550536  0.50922027  1
  In  In13  1  0.66640274  0.20058382  0.52555957  1
  In  In14  1  0.36308991  0.65270621  0.01388552  1
  In  In15  1  0.85320246  0.15791977  0.33651702  1
  In  In16  1  0.66711168  0.84687826  0.13942895  1
  In  In17  1  0.33065112  0.35441149  0.68409279  1
  In  In18  1  0.84306555  0.83991638  0.00639835  1
  In  In19  1  0.16637087  0.50202873  0.33039255  1
  In  In20  1  -0.01275503  0.48072312  0.16553143  1
  In  In21  1  0.15996345  0.85195259  -0.01107002  1
  In  In22  1  0.15450623  0.30292584  0.53076763  1
  In  In23  1  0.32269050  0.20245513  0.13928752  1
  In  In24  1  0.15731511  0.15313538  0.32325168  1
  In  In25  1  0.16322620  0.65985582  0.16801571  1
  In  In26  1  0.35189492  0.17602774  0.51404745  1
  In  In27  1  0.65993777  0.67371957  -0.00170830  1
  In  In28  1  0.51430765  0.33184125  0.15371526  1
  In  In29  1  0.33554305  0.34715130  0.33297846  1
  In  In30  1  0.15314888  -0.01826476  0.15939493  1
  In  In31  1  0.49294520  0.48957764  -0.00266042  1
  In  In32  1  0.70692188  0.67144535  0.32537880  1
  In  In33  1  0.00767888  0.16889810  0.13752070  1
  In  In34  1  0.49380501  0.34820870  0.83365910  1
  In  In35  1  0.84625304  0.32363954  0.79399676  1
  In  In36  1  0.65989078  0.35529899  0.65721839  1
  In  In37  1  0.32068418  0.03130640  -0.01711885  1
  In  In38  1  0.47074053  -0.00530457  0.51207612  1
  In  In39  1  0.50138870  0.65379547  0.51899538  1
  In  In40  1  0.81753303  0.83121032  0.66297196  1
  In  In41  1  0.00449916  0.31343640  0.32648360  1
  In  In42  1  -0.00160154  0.01005172  0.64895597  1
  In  In43  1  0.67766248  0.32137980  0.34479234  1
  In  In44  1  0.48914965  0.81390187  0.36118188  1
  In  In45  1  0.81453440  0.51019911  0.63839794  1
  In  In46  1  0.66001475  0.65633392  0.65775042  1
  In  In47  1  0.54193694  0.17921093  0.33723505  1
  In  In48  1  -0.00884313  0.49914619  0.50395814  1
  In  In49  1  0.32693939  0.64553960  0.67494440  1
  In  In50  1  0.83581179  -0.00180565  0.51116313  1
  In  In51  1  0.31901602  0.84622480  0.83266904  1
  In  In52  1  0.65043518  0.17303222  0.14617975  1
  In  In53  1  0.81121215  0.46441707  0.00572612  1
  In  In54  1  0.47970743  0.84569296  -0.02320748  1
  In  In55  1  0.51392294  0.16183155  0.68685618  1
  In  In56  1  0.00197901  0.85151312  0.84699153  1
  In  In57  1  -0.02036812  0.82841701  0.20433129  1
  In  In58  1  0.14244011  -0.01856427  0.49477176  1
  In  In59  1  0.01069143  0.66765094  0.67008456  1
  In  In60  1  0.30516177  -0.00154832  0.35102266  1
  In  In61  1  0.47790121  -0.02564772  0.15097867  1
  In  In62  1  0.52642220  0.64376960  0.20066876  1
  In  In63  1  0.50164987  0.64839358  0.82868585  1
  In  In64  1  0.34202220  0.65969995  0.34105728  1
  In  In65  1  0.15767938  0.17087292  0.66537156  1
  In  In66  1  0.82452825  0.66206027  0.81771233  1
  In  In67  1  0.83523047  0.50744040  0.34660389  1
  In  In68  1  0.32523076  0.79633944  0.16516558  1
  In  In69  1  0.80181925  0.01400417  0.83915124  1
  In  In70  1  -0.02082560  0.82549356  0.49852453  1
  In  In71  1  0.68347228  0.80544576  0.49513178  1
  Te  Te72  1  0.10791768  0.08590744  0.06474347  1
  Te  Te73  1  0.06434007  0.09172735  0.42614341  1
  Te  Te74  1  0.09429400  0.06519294  0.74753637  1
  Te  Te75  1  0.09005606  0.41850403  0.07416576  1
  Te  Te76  1  0.08843044  0.39771561  0.42179344  1
  Te  Te77  1  0.12419201  0.44171607  0.76669489  1
  Te  Te78  1  0.08040882  0.75461018  0.08111360  1
  Te  Te79  1  0.05519925  0.72458769  0.41997297  1
  Te  Te80  1  0.09089341  0.75648559  0.76553858  1
  Te  Te81  1  0.42883191  0.09899228  0.07655087  1
  Te  Te82  1  0.42387499  0.08894453  0.40035595  1
  Te  Te83  1  0.42122989  0.08448132  0.77158481  1
  Te  Te84  1  0.41137974  0.41778512  0.09616388  1
  Te  Te85  1  0.39990045  0.42185558  0.44126293  1
  Te  Te86  1  0.44862014  0.43887362  0.72147504  1
  Te  Te87  1  0.45550017  0.74532434  0.09558145  1
  Te  Te88  1  0.39515853  0.74504572  0.45560671  1
  Te  Te89  1  0.40784625  0.74809326  0.75894783  1
  Te  Te90  1  0.73892843  0.08662481  0.06029280  1
  Te  Te91  1  0.73942695  0.09991422  0.42312929  1
  Te  Te92  1  0.71983340  0.09394280  0.74454201  1
  Te  Te93  1  0.72414250  0.38431330  0.08778021  1
  Te  Te94  1  0.74201709  0.42301540  0.43725486  1
  Te  Te95  1  0.74929703  0.43493226  0.75239804  1
  Te  Te96  1  0.76282999  0.74030909  0.08926892  1
  Te  Te97  1  0.78685524  0.78256472  0.38785167  1
  Te  Te98  1  0.72467893  0.75633913  0.75539288  1
  Te  Te99  1  0.10041373  0.25401450  0.22474035  1
  Te  Te100  1  0.04794905  0.28373280  0.64649401  1
  Te  Te101  1  0.05589591  0.23085280  0.88165354  1
  Te  Te102  1  0.06328758  0.58191043  0.25058625  1
  Te  Te103  1  0.09357393  0.56685500  0.59309384  1
  Te  Te104  1  0.06675286  0.56048555  0.89453450  1
  Te  Te105  1  0.08983468  0.90481096  0.26546965  1
  Te  Te106  1  0.07640071  0.89071373  0.59621379  1
  Te  Te107  1  0.08784280  0.95301481  0.91169273  1
  Te  Te108  1  0.42721687  0.24308184  0.25119796  1
  Te  Te109  1  0.43093290  0.26205894  0.60533869  1
  Te  Te110  1  0.41919689  0.25713198  0.92422088  1
  Te  Te111  1  0.40772784  0.56404710  0.24518865  1
  Te  Te112  1  0.42605630  0.55840725  0.60368111  1
  Te  Te113  1  0.39610282  0.56498880  0.89767489  1
  Te  Te114  1  0.40372879  0.89867022  0.26319397  1
  Te  Te115  1  0.40718800  0.91025852  0.61105495  1
  Te  Te116  1  0.41839511  0.95396197  0.89235758  1
  Te  Te117  1  0.75021533  0.22868805  0.24818447  1
  Te  Te118  1  0.76738729  0.26288083  0.61073655  1
  Te  Te119  1  0.74673646  0.25868412  0.88028275  1
  Te  Te120  1  0.74717018  0.56047203  0.24092034  1
  Te  Te121  1  0.75795579  0.61831542  0.55399003  1
  Te  Te122  1  0.74808255  0.57977817  0.91866556  1
  Te  Te123  1  0.76618753  0.92673560  0.22473563  1
  Te  Te124  1  0.72683967  0.92319001  0.58413760  1
  Te  Te125  1  0.74374492  0.89592867  0.91284661  1
  Te  Te126  1  0.24175744  0.26283268  0.03084023  1
  Te  Te127  1  0.24628836  0.23713840  0.41385617  1
  Te  Te128  1  0.26555784  0.23383691  0.74988356  1
  Te  Te129  1  0.25428923  0.57331510  0.08548265  1
  Te  Te130  1  0.25347311  0.57528441  0.42985690  1
  Te  Te131  1  0.23540985  0.54600814  0.75231766  1
  Te  Te132  1  0.27771876  0.91073729  0.07578704  1
  Te  Te133  1  0.24463904  0.89545076  0.43337137  1
  Te  Te134  1  0.22812825  0.94130595  0.76691465  1
  Te  Te135  1  0.61396868  0.28441880  0.04474984  1
  Te  Te136  1  0.56484472  0.28317777  0.44512126  1
  Te  Te137  1  0.59879622  0.26130563  0.76279942  1
  Te  Te138  1  0.59262627  0.57089130  0.08811436  1
  Te  Te139  1  0.58339213  0.60896792  0.40069351  1
  Te  Te140  1  0.59128103  0.56311810  0.74904974  1
  Te  Te141  1  0.58275004  0.93435271  0.04819828  1
  Te  Te142  1  0.58574687  0.91613349  0.42161823  1
  Te  Te143  1  0.64884004  0.97031892  0.78914399  1
  Te  Te144  1  0.90520837  0.26480459  0.08362333  1
  Te  Te145  1  0.90947608  0.25987945  0.43274331  1
  Te  Te146  1  0.95487012  0.22601110  0.76276217  1
  Te  Te147  1  0.89884363  0.57260626  0.08399596  1
  Te  Te148  1  0.93344421  0.59886957  0.41096248  1
  Te  Te149  1  0.91698219  0.57183405  0.74128043  1
  Te  Te150  1  0.94374714  0.92077763  0.08301118  1
  Te  Te151  1  0.91932811  0.93089824  0.41328832  1
  Te  Te152  1  0.90985586  0.91925765  0.74412111  1
  Te  Te153  1  0.26022395  0.08219291  0.23123348  1
  Te  Te154  1  0.24259394  0.08211656  0.56353664  1
  Te  Te155  1  0.22340539  0.13689184  0.94502722  1
  Te  Te156  1  0.23745086  0.40743016  0.24338136  1
  Te  Te157  1  0.24714984  0.40668207  0.57442767  1
  Te  Te158  1  0.27577074  0.39051394  0.92182216  1
  Te  Te159  1  0.23351217  0.74507680  0.27261729  1
  Te  Te160  1  0.23938818  0.74571872  0.61350150  1
  Te  Te161  1  0.26009343  0.74242129  0.93886093  1
  Te  Te162  1  0.57929506  0.05899856  0.23659161  1
  Te  Te163  1  0.57739703  0.08256802  0.57415860  1
  Te  Te164  1  0.62020877  0.09363130  0.88156821  1
  Te  Te165  1  0.58658580  0.41136770  0.26269050  1
  Te  Te166  1  0.62713308  0.43435630  0.53651236  1
  Te  Te167  1  0.59006520  0.43833902  0.90178859  1
  Te  Te168  1  0.59483231  0.77418367  0.25462908  1
  Te  Te169  1  0.57396638  0.76570794  0.59240830  1
  Te  Te170  1  0.57857752  0.75877881  0.90207146  1
  Te  Te171  1  0.94544332  0.08004356  0.24563672  1
  Te  Te172  1  0.89207736  0.10659255  0.60032640  1
  Te  Te173  1  0.90907960  0.07304843  0.92135521  1
  Te  Te174  1  0.90020560  0.39720222  0.25633382  1
  Te  Te175  1  0.90985648  0.40943919  0.58665562  1
  Te  Te176  1  0.91248786  0.41286374  0.90473540  1
  Te  Te177  1  0.87742189  0.74500944  0.26488315  1
  Te  Te178  1  0.89742877  0.72857627  0.58575548  1
  Te  Te179  1  0.92393404  0.73624487  0.91506899  1
