# generated using pymatgen
data_In2Te3
_symmetry_space_group_name_H-M   'P 1'
_cell_length_a   18.78117019
_cell_length_b   18.77417407
_cell_length_c   18.77904226
_cell_angle_alpha   90.05182753
_cell_angle_beta   90.00002511
_cell_angle_gamma   90.09254240
_symmetry_Int_Tables_number   1
_chemical_formula_structural   In2Te3
_chemical_formula_sum   'In72 Te108'
_cell_volume   6621.49695364
_cell_formula_units_Z   36
loop_
 _symmetry_equiv_pos_site_id
 _symmetry_equiv_pos_as_xyz
  1  'x, y, z'
loop_
 _atom_site_type_symbol
 _atom_site_label
 _atom_site_symmetry_multiplicity
 _atom_site_fract_x
 _atom_site_fract_y
 _atom_site_fract_z
 _atom_site_occupancy
  In  In0  1  0.64081266  -0.01352542  0.69308171  1
  In  In1  1  0.02855479  0.85844562  0.85870228  1
  In  In2  1  0.17039671  0.82450783  0.67529073  1
  In  In3  1  0.16917537  0.67243913  0.49367112  1
  In  In4  1  0.83786745  0.68073352  0.81984053  1
  In  In5  1  0.33623923  0.66445544  0.34975315  1
  In  In6  1  0.64254547  -0.03030597  0.02512018  1
  In  In7  1  0.49639768  0.18929443  0.67190346  1
  In  In8  1  0.29588561  0.34780282  0.00049912  1
  In  In9  1  0.86413612  0.17790832  0.01675264  1
  In  In10  1  0.01680483  -0.01986652  0.65810587  1
  In  In11  1  0.81830103  0.16225244  0.65491473  1
  In  In12  1  0.00148819  0.50362833  0.84194618  1
  In  In13  1  0.32959375  0.33819240  0.67103244  1
  In  In14  1  0.16498456  0.48996214  0.31876100  1
  In  In15  1  0.85784287  0.83831469  0.31821505  1
  In  In16  1  0.66408107  0.52882055  0.49437803  1
  In  In17  1  0.79469898  0.50648134  0.65178312  1
  In  In18  1  0.17287343  0.17829245  0.34268583  1
  In  In19  1  0.50743418  0.80893903  0.33316968  1
  In  In20  1  0.48918786  -0.02019286  0.86484171  1
  In  In21  1  0.15855331  0.84375643  0.34371231  1
  In  In22  1  0.34674706  0.19068015  0.14911515  1
  In  In23  1  0.01129903  0.50249873  0.46970985  1
  In  In24  1  0.64521971  0.67713782  0.00746658  1
  In  In25  1  0.46653755  -0.01146948  0.52235704  1
  In  In26  1  0.67484590  0.66220640  0.65916588  1
  In  In27  1  0.01950299  0.16803829  0.48811266  1
  In  In28  1  0.31325289  -0.00469574  0.00975666  1
  In  In29  1  0.32417334  0.14483999  0.85095402  1
  In  In30  1  0.18494245  0.65235250  0.13458977  1
  In  In31  1  0.49432606  0.15729559  -0.00560020  1
  In  In32  1  0.65496724  0.49609257  0.84823259  1
  In  In33  1  0.31177216  -0.01130729  0.67936446  1
  In  In34  1  0.67028534  0.35005705  -0.00847661  1
  In  In35  1  0.63564430  0.34836298  0.66205948  1
  In  In36  1  0.46797925  0.48161821  0.35700577  1
  In  In37  1  0.85263229  0.32451222  0.85693975  1
  In  In38  1  0.00701222  0.33616385  0.66505011  1
  In  In39  1  0.15369779  0.02144054  0.16704338  1
  In  In40  1  0.45824133  0.68199877  0.83824003  1
  In  In41  1  0.51019558  0.16982172  0.31342849  1
  In  In42  1  0.82814005  0.67863032  0.17382408  1
  In  In43  1  0.48144256  0.34698459  0.16584244  1
  In  In44  1  0.17770021  0.32153210  0.18083574  1
  In  In45  1  0.84329639  0.47352834  -0.00896404  1
  In  In46  1  0.50373114  0.66461516  0.16579890  1
  In  In47  1  0.83939485  0.51500761  0.31881288  1
  In  In48  1  0.18522597  0.50851646  0.68829358  1
  In  In49  1  0.32344249  -0.02713960  0.33139668  1
  In  In50  1  0.31479515  0.17256683  0.49313579  1
  In  In51  1  0.02467927  0.66834412  -0.01132042  1
  In  In52  1  0.19883487  0.68562427  0.85372647  1
  In  In53  1  0.83423199  -0.02099946  0.48172205  1
  In  In54  1  0.68628877  0.16236881  0.15300256  1
  In  In55  1  0.01508199  0.49763484  0.16171240  1
  In  In56  1  0.67165286  0.33846178  0.32116196  1
  In  In57  1  0.66505593  0.15115462  0.47288597  1
  In  In58  1  0.85282066  0.87089886  0.02461578  1
  In  In59  1  -0.00239770  0.69660500  0.64197338  1
  In  In60  1  0.68988711  -0.00480997  0.32941007  1
  In  In61  1  0.85775819  0.31404105  0.48042366  1
  In  In62  1  0.67841370  0.82968690  0.48149396  1
  In  In63  1  0.16765410  0.16827741  0.66482477  1
  In  In64  1  0.50263308  0.34376032  0.81751050  1
  In  In65  1  0.48706871  0.65933990  0.49870703  1
  In  In66  1  0.85049565  0.33514811  0.14859617  1
  In  In67  1  0.82344102  -0.00793123  0.85658083  1
  In  In68  1  0.84271836  0.80525656  0.66610089  1
  In  In69  1  0.03907941  0.18516967  0.85953108  1
  In  In70  1  0.35491675  0.81900215  0.16197182  1
  In  In71  1  0.47044707  0.50258820  0.66632436  1
  Te  Te72  1  0.05457163  0.05373800  0.05723911  1
  Te  Te73  1  0.09667521  0.06982378  0.40923842  1
  Te  Te74  1  0.08409567  0.07725658  0.75400091  1
  Te  Te75  1  0.10589141  0.41073655  0.08184457  1
  Te  Te76  1  0.07867009  0.39535507  0.39580529  1
  Te  Te77  1  0.09480628  0.40807582  0.76517921  1
  Te  Te78  1  0.09394735  0.75798012  0.08201218  1
  Te  Te79  1  0.07228340  0.73876734  0.40547342  1
  Te  Te80  1  0.06930393  0.73427363  0.77225345  1
  Te  Te81  1  0.42196436  0.06807986  0.09264786  1
  Te  Te82  1  0.42030813  0.08537903  0.41165329  1
  Te  Te83  1  0.42338025  0.08033615  0.75062659  1
  Te  Te84  1  0.38655054  0.43220508  0.08747412  1
  Te  Te85  1  0.38430839  0.38625573  0.43146477  1
  Te  Te86  1  0.38974955  0.43614112  0.77725698  1
  Te  Te87  1  0.41002432  0.72414296  0.05708061  1
  Te  Te88  1  0.40152902  0.77270922  0.43549097  1
  Te  Te89  1  0.42385091  0.78073341  0.73425511  1
  Te  Te90  1  0.76742464  0.06686152  0.06920281  1
  Te  Te91  1  0.78366600  0.09817334  0.39736334  1
  Te  Te92  1  0.74312742  0.08087044  0.75994089  1
  Te  Te93  1  0.74202923  0.43143696  0.09853734  1
  Te  Te94  1  0.75170788  0.42106146  0.42604892  1
  Te  Te95  1  0.75184321  0.40403168  0.76276955  1
  Te  Te96  1  0.74899784  0.76621531  0.07746207  1
  Te  Te97  1  0.74953275  0.75233469  0.37960788  1
  Te  Te98  1  0.72703255  0.76570169  0.75953705  1
  Te  Te99  1  0.08114683  0.21665025  0.23008292  1
  Te  Te100  1  0.10360234  0.26830600  0.56875211  1
  Te  Te101  1  0.08831833  0.28738891  0.95256196  1
  Te  Te102  1  0.08907887  0.60074953  0.24560555  1
  Te  Te103  1  0.07683739  0.57513871  0.59179616  1
  Te  Te104  1  0.11925951  0.56352802  0.92529461  1
  Te  Te105  1  0.07226465  0.93118579  0.25599741  1
  Te  Te106  1  0.08537077  0.88567676  0.56877180  1
  Te  Te107  1  0.09894925  0.93845515  0.95894354  1
  Te  Te108  1  0.40180834  0.26805817  0.26946692  1
  Te  Te109  1  0.41902562  0.26439284  0.56701788  1
  Te  Te110  1  0.41080119  0.25820392  0.91623786  1
  Te  Te111  1  0.40863082  0.57651476  0.25049501  1
  Te  Te112  1  0.38593489  0.59000177  0.58219903  1
  Te  Te113  1  0.38512782  0.60749375  0.94825972  1
  Te  Te114  1  0.43959708  0.91840675  0.24448018  1
  Te  Te115  1  0.40459382  0.88716594  0.61401909  1
  Te  Te116  1  0.38032483  0.89138451  0.92018672  1
  Te  Te117  1  0.76892037  0.24713548  0.24864372  1
  Te  Te118  1  0.73425872  0.26162039  0.57441173  1
  Te  Te119  1  0.74934346  0.23776836  0.92806860  1
  Te  Te120  1  0.73684035  0.58192725  0.23810065  1
  Te  Te121  1  0.77509516  0.61929012  0.55121831  1
  Te  Te122  1  0.76219324  0.58314173  0.91457823  1
  Te  Te123  1  0.76158737  0.91813474  0.22369931  1
  Te  Te124  1  0.74396339  0.92331839  0.59542765  1
  Te  Te125  1  0.73083798  0.89462071  0.92484770  1
  Te  Te126  1  0.22993763  0.22415463  0.06106557  1
  Te  Te127  1  0.26175661  0.28476482  0.40647049  1
  Te  Te128  1  0.24733786  0.24868974  0.76733342  1
  Te  Te129  1  0.27558538  0.56488873  0.05220926  1
  Te  Te130  1  0.25070724  0.56335152  0.42449130  1
  Te  Te131  1  0.27553693  0.61458600  0.74611080  1
  Te  Te132  1  0.24042073  0.90539867  0.10981301  1
  Te  Te133  1  0.25610468  0.90166077  0.44107133  1
  Te  Te134  1  0.22830313  0.91550978  0.77642473  1
  Te  Te135  1  0.57815991  0.25512056  0.08789413  1
  Te  Te136  1  0.57787260  0.26230197  0.41578715  1
  Te  Te137  1  0.60353576  0.24071757  0.76809486  1
  Te  Te138  1  0.57903358  0.56780747  0.07995720  1
  Te  Te139  1  0.57438185  0.59491948  0.39254974  1
  Te  Te140  1  0.57752519  0.58208205  0.74867250  1
  Te  Te141  1  0.53525628  0.91132606  0.10412705  1
  Te  Te142  1  0.57848719  0.93304364  0.42342918  1
  Te  Te143  1  0.55063363  0.88805206  0.76023705  1
  Te  Te144  1  0.95808926  0.23524214  0.11717769  1
  Te  Te145  1  0.93500923  0.23442189  0.38485835  1
  Te  Te146  1  0.92238086  0.23605655  0.74573781  1
  Te  Te147  1  0.92156647  0.58186729  0.06876244  1
  Te  Te148  1  0.92333002  0.60036150  0.40599603  1
  Te  Te149  1  0.91070984  0.57319174  0.73875911  1
  Te  Te150  1  0.95302408  0.94091905  0.11663141  1
  Te  Te151  1  0.94267924  0.94185418  0.38886474  1
  Te  Te152  1  0.91278291  0.91305997  0.75485016  1
  Te  Te153  1  0.27104449  0.09068760  0.24869301  1
  Te  Te154  1  0.23500164  0.06736699  0.57193025  1
  Te  Te155  1  0.21709094  0.06966120  0.92124046  1
  Te  Te156  1  0.26768161  0.42935320  0.22940418  1
  Te  Te157  1  0.24379405  0.42081867  0.58427888  1
  Te  Te158  1  0.23324559  0.45410795  0.92045064  1
  Te  Te159  1  0.25103945  0.74633251  0.25285444  1
  Te  Te160  1  0.25454923  0.71995790  0.60796892  1
  Te  Te161  1  0.28675664  0.76503163  0.94446338  1
  Te  Te162  1  0.59413807  0.07176717  0.23404279  1
  Te  Te163  1  0.58112922  0.08780981  0.58551437  1
  Te  Te164  1  0.59526492  0.07653202  0.91784775  1
  Te  Te165  1  0.57460758  0.43139362  0.25217915  1
  Te  Te166  1  0.56209589  0.43481067  0.56273684  1
  Te  Te167  1  0.55112603  0.43019718  0.93740069  1
  Te  Te168  1  0.60113453  0.75566247  0.23388554  1
  Te  Te169  1  0.58455371  0.75135258  0.57471084  1
  Te  Te170  1  0.56579329  0.75420584  0.91074138  1
  Te  Te171  1  0.86731526  0.02945825  0.20509560  1
  Te  Te172  1  0.92229067  0.07880737  0.58066993  1
  Te  Te173  1  0.92979676  0.08640953  0.91090168  1
  Te  Te174  1  0.93137633  0.41103150  0.25597924  1
  Te  Te175  1  0.90815674  0.41841019  0.58264473  1
  Te  Te176  1  0.96349172  0.38654587  0.94571237  1
  Te  Te177  1  0.94181914  0.75294693  0.22861962  1
  Te  Te178  1  0.92552471  0.78389497  0.54567568  1
  Te  Te179  1  0.91332239  0.76391658  0.92374297  1
