# generated using pymatgen
data_In2Te3
_symmetry_space_group_name_H-M   'P 1'
_cell_length_a   18.96961786
_cell_length_b   18.97588981
_cell_length_c   18.95021680
_cell_angle_alpha   89.91329004
_cell_angle_beta   89.97833224
_cell_angle_gamma   89.80189458
_symmetry_Int_Tables_number   1
_chemical_formula_structural   In2Te3
_chemical_formula_sum   'In72 Te108'
_cell_volume   6821.37289752
_cell_formula_units_Z   36
loop_
 _symmetry_equiv_pos_site_id
 _symmetry_equiv_pos_as_xyz
  1  'x, y, z'
loop_
 _atom_site_type_symbol
 _atom_site_label
 _atom_site_symmetry_multiplicity
 _atom_site_fract_x
 _atom_site_fract_y
 _atom_site_fract_z
 _atom_site_occupancy
  In  In0  1  0.68039237  0.51249152  0.49983205  1
  In  In1  1  0.13450684  0.50924203  -0.01045889  1
  In  In2  1  0.17772321  0.00339544  0.50407551  1
  In  In3  1  0.84208873  0.66357528  0.51098689  1
  In  In4  1  0.49590808  0.66379229  0.17008883  1
  In  In5  1  0.65153634  0.30100573  0.34865800  1
  In  In6  1  0.48428662  0.12605242  0.68048993  1
  In  In7  1  0.82673808  0.32277984  0.81730414  1
  In  In8  1  0.15948412  0.65229639  0.81151146  1
  In  In9  1  -0.00353796  0.48106800  0.52949176  1
  In  In10  1  0.00127766  0.65665937  0.34454963  1
  In  In11  1  0.01529363  0.32084259  0.69089481  1
  In  In12  1  0.16698902  0.50470651  0.65262717  1
  In  In13  1  0.13280532  0.01281657  0.14029616  1
  In  In14  1  0.67909223  0.17874909  0.82589222  1
  In  In15  1  0.35081639  0.01543175  0.32869976  1
  In  In16  1  0.34855128  0.84176796  0.82789720  1
  In  In17  1  0.80828043  0.84128005  0.32801149  1
  In  In18  1  0.31741377  0.00084031  -0.01146261  1
  In  In19  1  0.85699492  0.02891063  0.18583663  1
  In  In20  1  0.52997886  0.67377357  0.84212937  1
  In  In21  1  0.18819309  0.00278118  0.81937392  1
  In  In22  1  -0.00295365  0.33019349  0.33658685  1
  In  In23  1  0.66927930  0.16262034  0.15370143  1
  In  In24  1  0.15946474  0.83211613  0.01840581  1
  In  In25  1  0.68121839  0.33749196  0.65058448  1
  In  In26  1  0.68451557  0.66677145  -0.00954125  1
  In  In27  1  0.50588690  0.32426249  0.17794245  1
  In  In28  1  0.84648479  0.32282713  0.14328980  1
  In  In29  1  0.16514516  0.85172846  0.32916743  1
  In  In30  1  0.32299199  0.16500020  0.50945221  1
  In  In31  1  0.15734391  0.65101192  0.14967295  1
  In  In32  1  0.86164380  0.66101706  0.79954114  1
  In  In33  1  -0.02210363  0.86276522  0.48077786  1
  In  In34  1  0.67210218  0.03528841  0.33302244  1
  In  In35  1  0.81832446  0.64490298  0.15391496  1
  In  In36  1  0.52256870  0.85280241  0.68963419  1
  In  In37  1  0.33568031  0.50412218  0.84306714  1
  In  In38  1  0.84651684  0.48694831  0.00167884  1
  In  In39  1  -0.03873720  0.01371509  0.63978555  1
  In  In40  1  0.80843865  0.48572284  0.31243424  1
  In  In41  1  0.16620720  0.31688540  0.51281507  1
  In  In42  1  0.81925598  0.84583806  0.68014054  1
  In  In43  1  0.51982095  -0.01105479  0.52336641  1
  In  In44  1  0.53198747  0.48211017  0.00698807  1
  In  In45  1  0.49598744  0.51131752  0.67693425  1
  In  In46  1  0.50971739  0.32457689  0.84831975  1
  In  In47  1  0.33120503  0.32019887  -0.00870196  1
  In  In48  1  0.17473681  0.34865951  0.16031857  1
  In  In49  1  0.49116184  0.17659152  0.00170563  1
  In  In50  1  0.33961017  0.17772111  0.17611691  1
  In  In51  1  0.66952388  0.00155410  -0.00740337  1
  In  In52  1  0.01473060  0.82860361  0.16740143  1
  In  In53  1  0.30581529  0.64994260  -0.00582782  1
  In  In54  1  0.47498684  0.85750615  -0.00999936  1
  In  In55  1  0.01229883  0.30729230  -0.04637578  1
  In  In56  1  0.15023204  0.16619587  0.66525319  1
  In  In57  1  -0.02951088  0.02210157  -0.03418861  1
  In  In58  1  0.34926839  0.65507056  0.36255572  1
  In  In59  1  0.34684584  0.82446245  0.20193870  1
  In  In60  1  0.17817918  0.71897323  0.59032430  1
  In  In61  1  0.18964872  0.49843477  0.31755822  1
  In  In62  1  0.01921588  0.82596760  0.81899204  1
  In  In63  1  0.49554242  0.69360178  0.51561245  1
  In  In64  1  0.50325575  0.29397202  0.51039708  1
  In  In65  1  0.85481584  0.30117394  0.50811714  1
  In  In66  1  0.64487102  0.81970928  0.16224639  1
  In  In67  1  0.67697651  0.84596542  0.51249407  1
  In  In68  1  0.82977294  0.86783564  -0.03091662  1
  In  In69  1  0.14839519  0.16091263  0.34378294  1
  In  In70  1  0.49897031  0.49805226  0.34752024  1
  In  In71  1  0.33586198  0.48264190  0.49094731  1
  Te  Te72  1  0.04209379  0.10516972  0.06839539  1
  Te  Te73  1  0.07191034  0.08528047  0.44250822  1
  Te  Te74  1  0.07288749  0.05918967  0.73811777  1
  Te  Te75  1  0.06678816  0.40030441  0.06780133  1
  Te  Te76  1  0.09062598  0.41961287  0.42052367  1
  Te  Te77  1  0.09739253  0.42599068  0.75739983  1
  Te  Te78  1  0.06056976  0.72703687  0.06201468  1
  Te  Te79  1  0.08101420  0.76297633  0.41948433  1
  Te  Te80  1  0.08472570  0.73947572  0.71308572  1
  Te  Te81  1  0.40852939  0.07862595  0.08215371  1
  Te  Te82  1  0.42842723  0.08261416  0.43999991  1
  Te  Te83  1  0.38837154  0.06293983  0.76952018  1
  Te  Te84  1  0.42249868  0.40555876  0.07785498  1
  Te  Te85  1  0.42376477  0.38578643  0.41529756  1
  Te  Te86  1  0.41725768  0.40947037  0.75881226  1
  Te  Te87  1  0.40041724  0.75090863  0.07089432  1
  Te  Te88  1  0.42151948  0.76935600  0.41306816  1
  Te  Te89  1  0.42991212  0.74101338  0.75141485  1
  Te  Te90  1  0.77033852  0.08378257  0.07165243  1
  Te  Te91  1  0.77716543  0.07503001  0.42672232  1
  Te  Te92  1  0.78441523  0.07998972  0.78915761  1
  Te  Te93  1  0.75133669  0.42160929  0.09190024  1
  Te  Te94  1  0.75428318  0.39718672  0.43079585  1
  Te  Te95  1  0.72607704  0.41971081  0.76310859  1
  Te  Te96  1  0.76582898  0.77435856  0.07808381  1
  Te  Te97  1  0.74529452  0.74163773  0.42352842  1
  Te  Te98  1  0.74896914  0.74636434  0.76085582  1
  Te  Te99  1  0.08563921  0.25233742  0.24108008  1
  Te  Te100  1  0.05394756  0.23374497  0.56686497  1
  Te  Te101  1  0.10933272  0.21644592  0.88481017  1
  Te  Te102  1  0.07468004  0.56699515  0.24534931  1
  Te  Te103  1  0.07944063  0.59824617  0.57116696  1
  Te  Te104  1  0.05783206  0.58772928  0.89288216  1
  Te  Te105  1  0.06549228  0.94108604  0.25778249  1
  Te  Te106  1  0.07190641  0.92477074  0.58183522  1
  Te  Te107  1  0.08568421  0.92352105  0.92276911  1
  Te  Te108  1  0.44710218  0.22163714  0.26774110  1
  Te  Te109  1  0.40356745  0.24184348  0.61124328  1
  Te  Te110  1  0.39761104  0.22800119  0.89184834  1
  Te  Te111  1  0.40554367  0.57170836  0.25052885  1
  Te  Te112  1  0.40722077  0.58554759  0.57734639  1
  Te  Te113  1  0.43212495  0.58604616  0.93228077  1
  Te  Te114  1  0.43605496  0.92918884  0.24604288  1
  Te  Te115  1  0.41836491  0.90674775  0.59599492  1
  Te  Te116  1  0.42915988  0.96254634  0.88152258  1
  Te  Te117  1  0.74909587  0.25331391  0.24449997  1
  Te  Te118  1  0.76963946  0.22646285  0.60487737  1
  Te  Te119  1  0.75969201  0.24862163  0.92628540  1
  Te  Te120  1  0.73332344  0.60044350  0.26235775  1
  Te  Te121  1  0.76531742  0.57604482  0.60594989  1
  Te  Te122  1  0.77425277  0.58436896  0.90662995  1
  Te  Te123  1  0.73763669  0.93247805  0.22764168  1
  Te  Te124  1  0.74535483  0.94610282  0.59703946  1
  Te  Te125  1  0.73504064  0.93716581  0.86971185  1
  Te  Te126  1  0.23963667  0.23724487  0.07836035  1
  Te  Te127  1  0.25320351  0.25087596  0.40599031  1
  Te  Te128  1  0.17500063  0.27822419  0.76115043  1
  Te  Te129  1  0.25033773  0.54870097  0.08953190  1
  Te  Te130  1  0.23680694  0.58457569  0.43281256  1
  Te  Te131  1  0.27081703  0.58761683  0.73451273  1
  Te  Te132  1  0.25162363  0.91255820  0.10661346  1
  Te  Te133  1  0.26803597  0.91947339  0.41489141  1
  Te  Te134  1  0.23812549  0.88827149  0.73848219  1
  Te  Te135  1  0.59361501  0.26467720  0.06919967  1
  Te  Te136  1  0.61492254  0.21343488  0.46017638  1
  Te  Te137  1  0.57555774  0.25150540  0.73059255  1
  Te  Te138  1  0.60180011  0.58677272  0.09076512  1
  Te  Te139  1  0.57960809  0.59785303  0.42583290  1
  Te  Te140  1  0.59871001  0.58025724  0.75392551  1
  Te  Te141  1  0.57132205  0.92843740  0.08331332  1
  Te  Te142  1  0.59728988  0.92495212  0.40963377  1
  Te  Te143  1  0.62094665  0.93137258  0.76244357  1
  Te  Te144  1  0.93552131  0.23564721  0.06139786  1
  Te  Te145  1  0.90399387  0.22383769  0.38654780  1
  Te  Te146  1  0.92297701  0.22191664  0.75525167  1
  Te  Te147  1  0.92640617  0.57984788  0.08454025  1
  Te  Te148  1  0.91049364  0.55704090  0.41898263  1
  Te  Te149  1  0.89475366  0.56181697  0.69682677  1
  Te  Te150  1  0.92630779  0.92099518  0.08196837  1
  Te  Te151  1  0.88540686  0.94659293  0.39925468  1
  Te  Te152  1  0.92231003  0.92530465  0.75958178  1
  Te  Te153  1  0.23630279  0.07826249  0.24134775  1
  Te  Te154  1  0.25894206  0.07364670  0.61099513  1
  Te  Te155  1  0.21961611  0.09694876  0.93060372  1
  Te  Te156  1  0.27390534  0.39562358  0.25733167  1
  Te  Te157  1  0.26170637  0.39988185  0.59468096  1
  Te  Te158  1  0.23992524  0.41821060  0.92032509  1
  Te  Te159  1  0.23158756  0.73511688  0.25096025  1
  Te  Te160  1  0.28897887  0.80937497  0.60186791  1
  Te  Te161  1  0.23867982  0.75683288  0.90902371  1
  Te  Te162  1  0.57119878  0.10377384  0.24823808  1
  Te  Te163  1  0.60387787  0.05443015  0.62743143  1
  Te  Te164  1  0.58127544  0.09494304  0.91210450  1
  Te  Te165  1  0.59262981  0.41616514  0.26137048  1
  Te  Te166  1  0.57343808  0.42266965  0.57013826  1
  Te  Te167  1  0.60892584  0.42213710  0.89784911  1
  Te  Te168  1  0.56776572  0.74929021  0.26386335  1
  Te  Te169  1  0.60279855  0.75086285  0.60447818  1
  Te  Te170  1  0.59256659  0.77499317  0.93437238  1
  Te  Te171  1  0.91860860  0.13958996  0.25605330  1
  Te  Te172  1  0.85700656  0.08492451  0.56076790  1
  Te  Te173  1  0.89875481  0.12302216  0.87795387  1
  Te  Te174  1  0.92135996  0.41898834  0.23948344  1
  Te  Te175  1  0.90207856  0.40309324  0.61471761  1
  Te  Te176  1  0.92345550  0.41396736  0.89224291  1
  Te  Te177  1  0.91862514  0.75293851  0.25892161  1
  Te  Te178  1  0.91537471  0.77104183  0.58432372  1
  Te  Te179  1  0.91793472  0.76029291  0.90946209  1
