# generated using pymatgen
data_In2Te3
_symmetry_space_group_name_H-M   'P 1'
_cell_length_a   18.93798532
_cell_length_b   18.91384590
_cell_length_c   18.92354321
_cell_angle_alpha   90.03908800
_cell_angle_beta   90.08490046
_cell_angle_gamma   89.96923529
_symmetry_Int_Tables_number   1
_chemical_formula_structural   In2Te3
_chemical_formula_sum   'In72 Te108'
_cell_volume   6778.21652374
_cell_formula_units_Z   36
loop_
 _symmetry_equiv_pos_site_id
 _symmetry_equiv_pos_as_xyz
  1  'x, y, z'
loop_
 _atom_site_type_symbol
 _atom_site_label
 _atom_site_symmetry_multiplicity
 _atom_site_fract_x
 _atom_site_fract_y
 _atom_site_fract_z
 _atom_site_occupancy
  In  In0  1  0.17579562  0.02247313  0.83751923  1
  In  In1  1  0.16218605  0.01520324  0.53192975  1
  In  In2  1  0.81347021  0.84630938  0.63260903  1
  In  In3  1  0.67089691  0.66449569  0.33265549  1
  In  In4  1  0.48233356  0.00038621  0.14872900  1
  In  In5  1  0.16711964  0.32433034  0.49675910  1
  In  In6  1  0.86127322  0.47011412  0.31155048  1
  In  In7  1  0.34384219  0.01773090  -0.01886427  1
  In  In8  1  0.00767661  0.64499248  0.01095269  1
  In  In9  1  0.52119652  0.34421389  0.15866117  1
  In  In10  1  0.14651254  0.59470006  0.14480425  1
  In  In11  1  0.49853986  0.83204505  0.01939994  1
  In  In12  1  0.31518759  0.33921098  0.64911024  1
  In  In13  1  -0.00453196  0.34736846  0.02990778  1
  In  In14  1  0.32378493  0.33722205  0.01135866  1
  In  In15  1  0.12828202  0.81048233  0.32604581  1
  In  In16  1  0.15844170  0.64648779  0.85925771  1
  In  In17  1  0.46973724  0.48033647  0.35804436  1
  In  In18  1  0.15904988  0.82587832  -0.01748451  1
  In  In19  1  0.31862395  0.17718151  0.17480780  1
  In  In20  1  0.54208452  0.82763219  0.66103260  1
  In  In21  1  0.15296313  0.48000939  0.32411707  1
  In  In22  1  0.81229833  0.15276949  0.68156682  1
  In  In23  1  -0.00787098  -0.01210583  0.66059191  1
  In  In24  1  0.02186870  -0.00778670  0.34213588  1
  In  In25  1  0.48990937  0.67895874  0.52756904  1
  In  In26  1  0.31854026  0.01141074  0.33926475  1
  In  In27  1  0.49624929  0.19654908  0.34235809  1
  In  In28  1  0.84815971  -0.00709014  0.17386841  1
  In  In29  1  0.51520405  0.85190670  0.33981019  1
  In  In30  1  0.30973679  0.82551610  0.14757123  1
  In  In31  1  0.32454971  0.49193477  0.84836796  1
  In  In32  1  0.51905531  0.66851931  0.81051225  1
  In  In33  1  0.67566602  0.35645875  0.67484029  1
  In  In34  1  0.30792151  0.63797323  0.35771101  1
  In  In35  1  -0.02389680  0.83322628  0.81050742  1
  In  In36  1  0.83511833  0.64473403  0.50936832  1
  In  In37  1  0.48967481  0.64244888  0.20303146  1
  In  In38  1  0.51189613  0.35614377  0.82759186  1
  In  In39  1  0.67186431  0.00237740  -0.01246346  1
  In  In40  1  0.68848014  0.62947709  0.68974711  1
  In  In41  1  0.68015628  0.00335455  0.32280158  1
  In  In42  1  -0.00835010  0.44403997  0.81152983  1
  In  In43  1  0.34557703  0.19241033  0.80709737  1
  In  In44  1  0.47624372  0.18474811  0.65418439  1
  In  In45  1  -0.00953627  0.79474080  0.48412978  1
  In  In46  1  -0.01406130  0.18679174  0.50390761  1
  In  In47  1  0.88778031  0.80051145  0.32517887  1
  In  In48  1  0.33838937  0.63964459  0.68658256  1
  In  In49  1  0.75091532  0.80165751  0.12159717  1
  In  In50  1  0.85506056  0.63524624  0.83956077  1
  In  In51  1  0.16296786  0.20308944  0.31461692  1
  In  In52  1  0.83574859  0.20102682  0.32972742  1
  In  In53  1  0.16758030  0.19832372  0.68237800  1
  In  In54  1  0.67420049  0.49167637  0.48709912  1
  In  In55  1  0.32753808  0.83011277  0.50555722  1
  In  In56  1  -0.00992394  0.20711149  0.84694055  1
  In  In57  1  0.51867920  0.01198436  0.46687317  1
  In  In58  1  0.82623442  0.52515059  0.01566419  1
  In  In59  1  0.00804297  0.17397633  0.15376616  1
  In  In60  1  0.66285501  0.17854879  0.17502593  1
  In  In61  1  0.81388586  0.18277057  -0.03064502  1
  In  In62  1  0.68911139  0.83124556  0.85172894  1
  In  In63  1  0.65956646  0.17986825  0.49653535  1
  In  In64  1  0.34222679  0.01306223  0.63370682  1
  In  In65  1  0.31536280  0.83135596  0.83907065  1
  In  In66  1  0.51160472  0.49462428  -0.01265344  1
  In  In67  1  0.17501527  0.80275059  0.67687472  1
  In  In68  1  -0.03071222  0.02130582  0.01540815  1
  In  In69  1  0.00549391  0.50348202  0.52017162  1
  In  In70  1  0.57417593  0.05387362  0.80719981  1
  In  In71  1  0.67133918  0.49282718  0.15455237  1
  Te  Te72  1  0.08798441  0.08880287  0.06599661  1
  Te  Te73  1  0.09388103  0.10706527  0.42895371  1
  Te  Te74  1  0.07568004  0.08937018  0.74154579  1
  Te  Te75  1  0.07080435  0.44895305  0.11896607  1
  Te  Te76  1  0.06232940  0.40295371  0.41980277  1
  Te  Te77  1  0.09951510  0.37220367  0.74071624  1
  Te  Te78  1  0.10182560  0.73649890  0.08863221  1
  Te  Te79  1  0.10163147  0.70773031  0.43349447  1
  Te  Te80  1  0.07455735  0.72782791  0.75912231  1
  Te  Te81  1  0.41642965  0.11438746  0.07550859  1
  Te  Te82  1  0.40330784  0.10236428  0.42393661  1
  Te  Te83  1  0.42224092  0.06929549  0.75614023  1
  Te  Te84  1  0.41729388  0.43057487  0.08687814  1
  Te  Te85  1  0.39534426  0.37694631  0.43161994  1
  Te  Te86  1  0.40642862  0.42173859  0.74092249  1
  Te  Te87  1  0.41607339  0.73189851  0.09743424  1
  Te  Te88  1  0.41471707  0.75094313  0.40456714  1
  Te  Te89  1  0.41657621  0.76914088  0.73645896  1
  Te  Te90  1  0.75667370  0.08546031  0.09478370  1
  Te  Te91  1  0.75695746  0.09595556  0.41198973  1
  Te  Te92  1  0.72064566  0.09089679  0.77714183  1
  Te  Te93  1  0.75624564  0.40682852  0.07338628  1
  Te  Te94  1  0.78059715  0.40968718  0.42279826  1
  Te  Te95  1  0.73711184  0.41503308  0.79659677  1
  Te  Te96  1  0.77362732  0.67174363  0.05113574  1
  Te  Te97  1  0.77252362  0.74334299  0.41169653  1
  Te  Te98  1  0.76735729  0.74156195  0.75786108  1
  Te  Te99  1  0.04342532  0.27467223  0.26029209  1
  Te  Te100  1  0.06057792  0.27442198  0.60523753  1
  Te  Te101  1  0.08236801  0.26612526  0.94270611  1
  Te  Te102  1  0.07315962  0.59879700  0.27437253  1
  Te  Te103  1  0.07348274  0.62763980  0.56265784  1
  Te  Te104  1  0.06071558  0.54427718  0.91143300  1
  Te  Te105  1  0.07726523  0.91086123  0.23368137  1
  Te  Te106  1  0.08230796  0.89079335  0.58397760  1
  Te  Te107  1  0.07966143  0.91633809  0.88971736  1
  Te  Te108  1  0.41303919  0.27446036  0.24277772  1
  Te  Te109  1  0.42068757  0.28197747  0.55599379  1
  Te  Te110  1  0.42133847  0.26932781  0.91456019  1
  Te  Te111  1  0.37931142  0.55158496  0.25447572  1
  Te  Te112  1  0.40790813  0.57002310  0.57784714  1
  Te  Te113  1  0.42641136  0.59015741  0.90460233  1
  Te  Te114  1  0.39896011  0.91621423  0.24731575  1
  Te  Te115  1  0.44249527  0.91179862  0.56686434  1
  Te  Te116  1  0.42554259  0.91041225  0.91062613  1
  Te  Te117  1  0.73378383  0.27809848  0.25731696  1
  Te  Te118  1  0.75363679  0.25800200  0.58708006  1
  Te  Te119  1  0.77408356  0.27866045  0.86049886  1
  Te  Te120  1  0.75770445  0.57119866  0.25414438  1
  Te  Te121  1  0.77222555  0.53921495  0.60029590  1
  Te  Te122  1  0.73329795  0.59404050  0.91556475  1
  Te  Te123  1  0.76565213  0.89590868  0.25812058  1
  Te  Te124  1  0.72953244  0.92981506  0.55101058  1
  Te  Te125  1  0.77245745  0.90208931  0.95182648  1
  Te  Te126  1  0.22630877  0.27366055  0.10740212  1
  Te  Te127  1  0.26404966  0.28257270  0.38929842  1
  Te  Te128  1  0.23097899  0.29642201  0.78225048  1
  Te  Te129  1  0.24977336  0.57273462  0.04449766  1
  Te  Te130  1  0.24371434  0.52919876  0.43443203  1
  Te  Te131  1  0.22597299  0.56105769  0.75240494  1
  Te  Te132  1  0.24579686  0.92927737  0.05842142  1
  Te  Te133  1  0.23260034  0.91970749  0.42663143  1
  Te  Te134  1  0.25035041  0.92957555  0.73384982  1
  Te  Te135  1  0.60126270  0.25960217  0.06873474  1
  Te  Te136  1  0.60482576  0.27651585  0.39912429  1
  Te  Te137  1  0.57915419  0.25183268  0.74088323  1
  Te  Te138  1  0.57579318  0.59092786  0.08904809  1
  Te  Te139  1  0.56882435  0.59210505  0.41832785  1
  Te  Te140  1  0.57021016  0.55452604  0.73351883  1
  Te  Te141  1  0.59717060  0.91701529  0.09785650  1
  Te  Te142  1  0.62312553  0.90037614  0.43962630  1
  Te  Te143  1  0.62497987  0.92116876  0.74483200  1
  Te  Te144  1  0.89281263  0.24474614  0.08292239  1
  Te  Te145  1  0.89617353  0.28540956  0.43729473  1
  Te  Te146  1  0.89456060  0.26269525  0.74800048  1
  Te  Te147  1  0.91564414  0.59735445  0.12196226  1
  Te  Te148  1  0.92066823  0.57291202  0.40999553  1
  Te  Te149  1  0.92951385  0.55834987  0.73364649  1
  Te  Te150  1  0.92533789  0.90057647  0.08778928  1
  Te  Te151  1  0.92061413  0.91592601  0.42389884  1
  Te  Te152  1  0.87931642  0.92918670  0.74315083  1
  Te  Te153  1  0.22385798  0.07972409  0.24346472  1
  Te  Te154  1  0.25598659  0.12586613  0.57909134  1
  Te  Te155  1  0.25597164  0.12305694  0.91451929  1
  Te  Te156  1  0.19848224  0.40818117  0.20015287  1
  Te  Te157  1  0.22851928  0.43506414  0.57582833  1
  Te  Te158  1  0.23120398  0.44691724  0.95861754  1
  Te  Te159  1  0.25000164  0.74580558  0.26215862  1
  Te  Te160  1  0.25573369  0.71986266  0.58002501  1
  Te  Te161  1  0.26641536  0.72575735  0.93410078  1
  Te  Te162  1  0.56256968  0.07733303  0.25907833  1
  Te  Te163  1  0.57468545  0.08907000  0.58414553  1
  Te  Te164  1  0.57869393  0.10641093  0.94226244  1
  Te  Te165  1  0.58095743  0.43388637  0.26579906  1
  Te  Te166  1  0.58397116  0.42485371  0.58141666  1
  Te  Te167  1  0.61713026  0.41943987  0.91334361  1
  Te  Te168  1  0.58616379  0.75528744  0.24448592  1
  Te  Te169  1  0.62201012  0.72534362  0.58527968  1
  Te  Te170  1  0.58395120  0.74792337  0.92372441  1
  Te  Te171  1  0.92747730  0.08684362  0.26595445  1
  Te  Te172  1  0.90682702  0.08055922  0.57703638  1
  Te  Te173  1  0.90655932  0.08660337  0.89584386  1
  Te  Te174  1  0.95565210  0.40139102  0.21824689  1
  Te  Te175  1  0.91612253  0.44708963  0.62456272  1
  Te  Te176  1  0.90332019  0.41794761  0.93136623  1
  Te  Te177  1  0.94840642  0.70188955  0.23410798  1
  Te  Te178  1  0.91446770  0.73755291  0.60198251  1
  Te  Te179  1  0.92721069  0.74191953  0.92083114  1
