# generated using pymatgen
data_In2Te3
_symmetry_space_group_name_H-M   'P 1'
_cell_length_a   18.90361213
_cell_length_b   18.91812542
_cell_length_c   18.92914123
_cell_angle_alpha   89.89140673
_cell_angle_beta   89.90362919
_cell_angle_gamma   90.03213147
_symmetry_Int_Tables_number   1
_chemical_formula_structural   In2Te3
_chemical_formula_sum   'In72 Te108'
_cell_volume   6769.43381307
_cell_formula_units_Z   36
loop_
 _symmetry_equiv_pos_site_id
 _symmetry_equiv_pos_as_xyz
  1  'x, y, z'
loop_
 _atom_site_type_symbol
 _atom_site_label
 _atom_site_symmetry_multiplicity
 _atom_site_fract_x
 _atom_site_fract_y
 _atom_site_fract_z
 _atom_site_occupancy
  In  In0  1  0.80898670  0.16567053  0.00978402  1
  In  In1  1  0.82062584  -0.03095639  0.84184063  1
  In  In2  1  0.17858794  0.00857939  0.47718758  1
  In  In3  1  0.50407061  -0.02187640  0.49471061  1
  In  In4  1  0.82923227  0.70378759  0.46232070  1
  In  In5  1  0.11972571  0.84855537  0.17001141  1
  In  In6  1  0.17079361  0.33858280  0.48819172  1
  In  In7  1  0.83723381  -0.00907830  0.16279964  1
  In  In8  1  0.02881175  0.67188232  0.69259971  1
  In  In9  1  0.00980603  0.52124741  0.16657995  1
  In  In10  1  0.66360986  0.50189365  0.84116898  1
  In  In11  1  0.00243839  0.14537264  0.85534858  1
  In  In12  1  0.20063199  0.66350211  0.48427593  1
  In  In13  1  0.16204280  0.52841895  0.00912148  1
  In  In14  1  0.19191251  -0.00381595  0.87125190  1
  In  In15  1  0.48227032  0.83650056  0.69152591  1
  In  In16  1  0.02885800  0.00795222  0.03774365  1
  In  In17  1  0.33072088  0.35301684  0.32827675  1
  In  In18  1  0.33802025  0.49254314  0.15752797  1
  In  In19  1  0.66114289  0.34195394  0.00915667  1
  In  In20  1  0.83796948  0.52039018  0.64069553  1
  In  In21  1  0.47097081  0.70095814  0.47374568  1
  In  In22  1  0.64504616  0.67133305  0.01409898  1
  In  In23  1  0.33603465  0.66688759  0.66060673  1
  In  In24  1  0.63143857  0.03257762  0.66624542  1
  In  In25  1  0.68142841  0.69560850  0.32609079  1
  In  In26  1  0.83857962  0.35330947  0.81793758  1
  In  In27  1  0.81083684  0.00420043  0.49171648  1
  In  In28  1  0.34025931  -0.02192884  0.31625309  1
  In  In29  1  0.83705116  0.67679688  0.84867716  1
  In  In30  1  0.84319347  0.33653267  0.15261017  1
  In  In31  1  0.01401189  0.32425056  -0.01426263  1
  In  In32  1  0.18082674  0.16217491  0.32468603  1
  In  In33  1  0.64921644  0.14884712  0.83773386  1
  In  In34  1  0.02806352  0.48871867  0.84705260  1
  In  In35  1  0.82347630  0.19323398  0.66522907  1
  In  In36  1  0.19476394  0.69835270  0.85373881  1
  In  In37  1  0.34776332  -0.00416005  0.02029388  1
  In  In38  1  0.82722589  0.83871094  0.66215585  1
  In  In39  1  0.49294699  -0.00572251  0.85453760  1
  In  In40  1  0.66524127  0.31234514  0.34147524  1
  In  In41  1  0.49777809  0.82807120  -0.00014046  1
  In  In42  1  0.32953339  0.82625424  0.17778560  1
  In  In43  1  0.50521295  0.51133037  0.65457153  1
  In  In44  1  0.51880509  0.30674961  0.18107598  1
  In  In45  1  0.50072713  0.48027645  0.31886627  1
  In  In46  1  0.81680221  0.14690501  0.33289825  1
  In  In47  1  0.65410974  0.84815606  0.17422235  1
  In  In48  1  0.83662997  0.51647939  0.30954572  1
  In  In49  1  0.00749149  0.47116275  0.48744569  1
  In  In50  1  0.80477428  0.83642984  0.31591005  1
  In  In51  1  0.64201457  0.49831529  0.49428417  1
  In  In52  1  -0.00755932  0.84021083  0.50026422  1
  In  In53  1  -0.02613809  -0.00581272  0.65833812  1
  In  In54  1  0.64384510  0.30193852  0.68581439  1
  In  In55  1  0.03258803  0.66014040  0.32943795  1
  In  In56  1  0.16260092  0.48767823  0.65645553  1
  In  In57  1  0.48020776  0.48021544  -0.01266385  1
  In  In58  1  0.84491959  0.85269473  -0.00097035  1
  In  In59  1  0.33365164  0.31802231  0.64756947  1
  In  In60  1  0.33243344  0.49305261  0.83974990  1
  In  In61  1  0.84979971  0.66769232  0.16629908  1
  In  In62  1  0.33448841  0.00363571  0.68315816  1
  In  In63  1  0.64997359  0.66627339  0.67327184  1
  In  In64  1  0.20933856  0.33778950  0.83199665  1
  In  In65  1  0.49161246  0.65736578  0.16844825  1
  In  In66  1  0.81735525  0.32724395  0.51485444  1
  In  In67  1  0.03209518  0.31330314  0.33890051  1
  In  In68  1  0.52519818  0.12982358  0.31387763  1
  In  In69  1  0.03047900  0.16249492  0.48156448  1
  In  In70  1  0.32350997  0.15366974  0.15907133  1
  In  In71  1  0.17225169  0.15825615  0.66618787  1
  Te  Te72  1  0.10626897  0.11747164  0.09556304  1
  Te  Te73  1  0.06408643  0.05287156  0.38309486  1
  Te  Te74  1  0.07702570  0.06847387  0.74648924  1
  Te  Te75  1  0.08488798  0.41567477  0.08336731  1
  Te  Te76  1  0.11245301  0.43550028  0.38502695  1
  Te  Te77  1  0.08811833  0.39386464  0.74789933  1
  Te  Te78  1  0.12963426  0.72369586  0.09099190  1
  Te  Te79  1  0.09553804  0.76243874  0.42118230  1
  Te  Te80  1  0.11598052  0.77314146  0.75098874  1
  Te  Te81  1  0.43688611  0.09812606  0.08032101  1
  Te  Te82  1  0.41775441  0.07041325  0.40686200  1
  Te  Te83  1  0.42806002  0.08908533  0.76014394  1
  Te  Te84  1  0.42232736  0.38353944  0.09087287  1
  Te  Te85  1  0.42798952  0.40893588  0.42346863  1
  Te  Te86  1  0.41302927  0.42003963  0.73393121  1
  Te  Te87  1  0.40151446  0.73682490  0.07602957  1
  Te  Te88  1  0.37882063  0.78731532  0.39394994  1
  Te  Te89  1  0.39814314  0.74327911  0.76872371  1
  Te  Te90  1  0.73143810  0.06753166  0.09219031  1
  Te  Te91  1  0.71729909  0.10005662  0.43111567  1
  Te  Te92  1  0.76375452  0.07938580  0.74735137  1
  Te  Te93  1  0.76065059  0.42713260  0.07314743  1
  Te  Te94  1  0.75827156  0.43007235  0.41549750  1
  Te  Te95  1  0.73776708  0.42907197  0.72279477  1
  Te  Te96  1  0.75000374  0.76095137  0.09404916  1
  Te  Te97  1  0.71069322  0.79573635  0.43949295  1
  Te  Te98  1  0.74246146  0.75377527  0.75639355  1
  Te  Te99  1  0.09162788  0.23382610  0.23065496  1
  Te  Te100  1  0.08638548  0.25701678  0.58510404  1
  Te  Te101  1  0.10861331  0.23991479  0.90437793  1
  Te  Te102  1  0.11927232  0.60358481  0.22458510  1
  Te  Te103  1  0.07867404  0.58285632  0.57167928  1
  Te  Te104  1  0.07900492  0.61265328  0.91333133  1
  Te  Te105  1  0.10041257  0.93546212  0.28419000  1
  Te  Te106  1  0.08501899  0.93177982  0.57704413  1
  Te  Te107  1  0.08352612  0.91679462  0.93488880  1
  Te  Te108  1  0.41043177  0.23112587  0.25927158  1
  Te  Te109  1  0.43777079  0.22768014  0.59937088  1
  Te  Te110  1  0.34878303  0.31694698  0.88863265  1
  Te  Te111  1  0.40243513  0.58524613  0.27000041  1
  Te  Te112  1  0.41450715  0.58660372  0.55771916  1
  Te  Te113  1  0.40596632  0.58867006  0.92252453  1
  Te  Te114  1  0.43869493  0.92252293  0.21879265  1
  Te  Te115  1  0.40334131  0.90822104  0.58408096  1
  Te  Te116  1  0.39203789  0.89673519  0.91374574  1
  Te  Te117  1  0.75182347  0.24630613  0.23615932  1
  Te  Te118  1  0.71196575  0.23076911  0.56854254  1
  Te  Te119  1  0.75282012  0.25341954  0.89526640  1
  Te  Te120  1  0.73285953  0.58947770  0.22949363  1
  Te  Te121  1  0.73821223  0.60531773  0.56263806  1
  Te  Te122  1  0.74752517  0.58692233  0.93323793  1
  Te  Te123  1  0.69802249  0.95066077  0.28848876  1
  Te  Te124  1  0.72823945  0.93138422  0.59625260  1
  Te  Te125  1  0.72586772  0.91158905  0.93693593  1
  Te  Te126  1  0.22917492  0.20435429  0.05409608  1
  Te  Te127  1  0.26386381  0.24186288  0.42100871  1
  Te  Te128  1  0.27611968  0.21979524  0.75571875  1
  Te  Te129  1  0.26571456  0.60180842  0.08564209  1
  Te  Te130  1  0.27206108  0.60415168  0.37139468  1
  Te  Te131  1  0.23127196  0.57570957  0.75823412  1
  Te  Te132  1  0.23730224  0.91532086  0.09141081  1
  Te  Te133  1  0.26255840  0.90025659  0.42058887  1
  Te  Te134  1  0.24218429  0.91625176  0.75880886  1
  Te  Te135  1  0.58819986  0.23256552  0.07392660  1
  Te  Te136  1  0.55235416  0.24489183  0.40395042  1
  Te  Te137  1  0.54400150  0.22590489  0.76459739  1
  Te  Te138  1  0.57038000  0.55896064  0.08403337  1
  Te  Te139  1  0.57901969  0.60219603  0.40432279  1
  Te  Te140  1  0.56154163  0.59087332  0.77117536  1
  Te  Te141  1  0.55227438  0.92572323  0.09851467  1
  Te  Te142  1  0.59283132  0.91085472  0.39954517  1
  Te  Te143  1  0.58904519  0.92159313  0.75918190  1
  Te  Te144  1  0.92680446  0.23564467  0.07566448  1
  Te  Te145  1  0.91531783  0.25371218  0.41925656  1
  Te  Te146  1  0.92908129  0.24468754  0.76016881  1
  Te  Te147  1  0.92834866  0.59288226  0.06904461  1
  Te  Te148  1  0.92061531  0.58367181  0.41980872  1
  Te  Te149  1  0.92131222  0.57466633  0.75581577  1
  Te  Te150  1  0.94157078  0.89703500  0.10859331  1
  Te  Te151  1  0.90097012  0.91745341  0.40706432  1
  Te  Te152  1  0.92758507  0.89422122  0.76275931  1
  Te  Te153  1  0.23529761  0.05199067  0.23500087  1
  Te  Te154  1  0.26614587  0.08883219  0.57019459  1
  Te  Te155  1  0.27202020  0.10092001  0.93857639  1
  Te  Te156  1  0.24321814  0.39927021  0.22145498  1
  Te  Te157  1  0.26517130  0.43110329  0.56184850  1
  Te  Te158  1  0.25502643  0.41317169  0.96198306  1
  Te  Te159  1  0.27378060  0.74048781  0.28966993  1
  Te  Te160  1  0.24300966  0.75506242  0.58882897  1
  Te  Te161  1  0.19775090  0.79086382  0.97244887  1
  Te  Te162  1  0.62890067  0.07515314  0.22469598  1
  Te  Te163  1  0.52894347  0.10086041  0.58201851  1
  Te  Te164  1  0.57154417  0.08334978  0.94386792  1
  Te  Te165  1  0.61031148  0.41314367  0.24066211  1
  Te  Te166  1  0.57540104  0.39704394  0.58211074  1
  Te  Te167  1  0.57188393  0.39546525  0.89784044  1
  Te  Te168  1  0.56060887  0.75873995  0.25690268  1
  Te  Te169  1  0.56063163  0.75407319  0.58799091  1
  Te  Te170  1  0.58590306  0.75286528  0.90916476  1
  Te  Te171  1  0.91425236  0.08539980  0.24313570  1
  Te  Te172  1  0.91245313  0.10180582  0.56970660  1
  Te  Te173  1  0.90364717  0.06351374  0.93674850  1
  Te  Te174  1  0.93135361  0.40972888  0.25686649  1
  Te  Te175  1  0.92358141  0.40306455  0.59489300  1
  Te  Te176  1  0.91413961  0.42524451  0.92676432  1
  Te  Te177  1  0.92450580  0.74968344  0.26786237  1
  Te  Te178  1  0.92137938  0.73865984  0.59455387  1
  Te  Te179  1  0.93053978  0.75925903  0.92443471  1
