# generated using pymatgen
data_In2Te3
_symmetry_space_group_name_H-M   'P 1'
_cell_length_a   18.80963452
_cell_length_b   18.81593258
_cell_length_c   18.80516311
_cell_angle_alpha   89.92995212
_cell_angle_beta   89.90480992
_cell_angle_gamma   89.79817302
_symmetry_Int_Tables_number   1
_chemical_formula_structural   In2Te3
_chemical_formula_sum   'In72 Te108'
_cell_volume   6655.48324811
_cell_formula_units_Z   36
loop_
 _symmetry_equiv_pos_site_id
 _symmetry_equiv_pos_as_xyz
  1  'x, y, z'
loop_
 _atom_site_type_symbol
 _atom_site_label
 _atom_site_symmetry_multiplicity
 _atom_site_fract_x
 _atom_site_fract_y
 _atom_site_fract_z
 _atom_site_occupancy
  In  In0  1  0.12443646  0.33071309  0.17004881  1
  In  In1  1  0.16293341  0.49501641  0.32973005  1
  In  In2  1  0.64942194  0.83592734  0.82832309  1
  In  In3  1  0.85137670  0.64997583  0.85379226  1
  In  In4  1  0.82230634  -0.01780840  0.20223021  1
  In  In5  1  0.82157546  0.83962160  0.31928531  1
  In  In6  1  0.65858168  -0.01459162  0.00995777  1
  In  In7  1  0.38014053  0.70391497  0.34563272  1
  In  In8  1  -0.02382891  0.80700571  0.17864597  1
  In  In9  1  0.51785366  0.66654244  0.83758010  1
  In  In10  1  0.66107799  0.51457391  0.47301464  1
  In  In11  1  0.86317076  0.67080114  0.50065664  1
  In  In12  1  0.83653719  0.18714192  0.00215461  1
  In  In13  1  0.49659617  -0.01340255  0.15183453  1
  In  In14  1  0.02708891  0.00605523  0.66583902  1
  In  In15  1  0.32930133  0.01039649  0.68392626  1
  In  In16  1  0.83234926  0.83664437  0.63635260  1
  In  In17  1  0.50773364  0.31485246  0.83385678  1
  In  In18  1  0.81748422  0.00093523  0.83959306  1
  In  In19  1  0.64925494  0.17744317  0.16698814  1
  In  In20  1  0.00836991  0.17809560  0.49594953  1
  In  In21  1  0.01335570  -0.02243301  0.01537179  1
  In  In22  1  0.33961598  0.48788608  0.83487848  1
  In  In23  1  0.67259533  0.68558441  0.66716661  1
  In  In24  1  0.70875491  0.50778748  0.82888709  1
  In  In25  1  0.71490416  0.53992464  0.16546342  1
  In  In26  1  0.66067515  0.33268711  0.66657791  1
  In  In27  1  0.15763690  0.48645452  0.66755517  1
  In  In28  1  0.17304328  -0.00034996  0.17438176  1
  In  In29  1  0.83971681  0.16142022  0.35181386  1
  In  In30  1  0.01730560  0.83544976  0.52711349  1
  In  In31  1  0.17803104  0.65794076  0.51522065  1
  In  In32  1  0.00750264  0.82212944  0.82447641  1
  In  In33  1  0.32043409  0.01185431  0.32847307  1
  In  In34  1  0.47554981  0.49975547  0.65828663  1
  In  In35  1  0.47548500  0.14248165  0.00227499  1
  In  In36  1  0.17787582  0.84464526  -0.02446190  1
  In  In37  1  0.19572263  0.14011259  -0.02010814  1
  In  In38  1  0.30659678  0.33441384  0.00375574  1
  In  In39  1  0.49362599  0.70839184  0.19260389  1
  In  In40  1  0.87446656  0.38179268  0.17848239  1
  In  In41  1  0.50456982  -0.02149387  0.50062665  1
  In  In42  1  0.32859245  0.30652423  0.35223366  1
  In  In43  1  0.83421116  0.52342911  -0.01034815  1
  In  In44  1  0.65647384  0.13471438  0.49186687  1
  In  In45  1  0.18001039  0.84602379  0.34081768  1
  In  In46  1  0.67664033  0.32434364  -0.02056904  1
  In  In47  1  -0.00161436  0.35510052  -0.00847479  1
  In  In48  1  0.66717540  0.83918556  0.49902164  1
  In  In49  1  0.50286451  0.50382861  0.32604715  1
  In  In50  1  0.29374629  0.51351790  0.14793447  1
  In  In51  1  0.87187797  0.51526610  0.66574734  1
  In  In52  1  0.85158048  0.33107747  0.49243096  1
  In  In53  1  0.68415201  0.32459752  0.34002892  1
  In  In54  1  0.30743725  0.50176482  0.49674916  1
  In  In55  1  0.50063771  0.15359293  0.32943771  1
  In  In56  1  0.52271176  0.51854386  0.02065405  1
  In  In57  1  0.80660860  -0.01735659  0.50817841  1
  In  In58  1  0.50003056  0.84367626  0.67567485  1
  In  In59  1  0.34465839  0.67600531  0.65412380  1
  In  In60  1  0.48087173  0.34638767  0.19453276  1
  In  In61  1  0.00888418  0.16121030  0.81934808  1
  In  In62  1  0.33598014  0.83547443  0.15046306  1
  In  In63  1  0.17973913  0.31597658  0.80888259  1
  In  In64  1  0.15291944  0.66439867  0.85274700  1
  In  In65  1  0.84277439  0.17070062  0.67331963  1
  In  In66  1  0.46174044  0.30019960  0.53621201  1
  In  In67  1  0.15914541  0.66174491  0.15235258  1
  In  In68  1  0.16903561  0.31705272  0.51307009  1
  In  In69  1  0.65229468  0.15839352  0.85767776  1
  In  In70  1  -0.00364493  0.01859501  0.35005774  1
  In  In71  1  -0.01668371  0.67848318  0.31919303  1
  Te  Te72  1  0.08654367  0.08992120  0.08273692  1
  Te  Te73  1  0.09596255  0.06976596  0.44419222  1
  Te  Te74  1  0.11787184  0.08918130  0.74849766  1
  Te  Te75  1  0.08630182  0.43994913  0.07578211  1
  Te  Te76  1  0.09330775  0.42330945  0.43762575  1
  Te  Te77  1  0.07999107  0.41977523  0.77479651  1
  Te  Te78  1  0.08190555  0.76863766  0.07558847  1
  Te  Te79  1  0.08287257  0.74784204  0.41178454  1
  Te  Te80  1  0.09931083  0.74363650  0.73982635  1
  Te  Te81  1  0.38826363  0.07451496  0.09913809  1
  Te  Te82  1  0.41500584  0.08252269  0.43012518  1
  Te  Te83  1  0.38880439  0.11904167  0.77136474  1
  Te  Te84  1  0.41512243  0.42017119  0.07631413  1
  Te  Te85  1  0.41510598  0.41324670  0.41934151  1
  Te  Te86  1  0.41022550  0.38920199  0.74125006  1
  Te  Te87  1  0.40810847  0.73166819  0.07451099  1
  Te  Te88  1  0.43578491  0.80826235  0.43059878  1
  Te  Te89  1  0.41526319  0.75321087  0.76462042  1
  Te  Te90  1  0.74929522  0.08801567  0.08170683  1
  Te  Te91  1  0.73732830  0.05279916  0.39096323  1
  Te  Te92  1  0.73668184  0.08895230  0.74506265  1
  Te  Te93  1  0.75190340  0.41274147  0.07785352  1
  Te  Te94  1  0.77057092  0.42978543  0.40515670  1
  Te  Te95  1  0.77241682  0.41012148  0.73218614  1
  Te  Te96  1  0.79918591  0.69445253  0.04181158  1
  Te  Te97  1  0.75508954  0.74236834  0.42056487  1
  Te  Te98  1  0.77216122  0.75326714  0.75824807  1
  Te  Te99  1  0.06873452  0.25294072  0.27902779  1
  Te  Te100  1  0.06917602  0.25464761  0.60743959  1
  Te  Te101  1  0.09154983  0.24196150  0.92320898  1
  Te  Te102  1  0.06284680  0.57203593  0.23297187  1
  Te  Te103  1  0.07877190  0.56330982  0.56675004  1
  Te  Te104  1  0.09621064  0.58027438  0.96052502  1
  Te  Te105  1  0.06609318  0.91129436  0.25133452  1
  Te  Te106  1  0.12053493  0.91654672  0.59270262  1
  Te  Te107  1  0.08799062  0.93572308  0.88979702  1
  Te  Te108  1  0.40345804  0.22591233  0.23622228  1
  Te  Te109  1  0.37565969  0.20833831  0.61573894  1
  Te  Te110  1  0.39972612  0.24731158  0.91856245  1
  Te  Te111  1  0.40362746  0.57871536  0.23630006  1
  Te  Te112  1  0.42042266  0.59202265  0.55036435  1
  Te  Te113  1  0.42231436  0.58111164  0.92263584  1
  Te  Te114  1  0.41203456  0.91249697  0.25626656  1
  Te  Te115  1  0.39584371  0.91154432  0.58673137  1
  Te  Te116  1  0.36859646  0.92150960  0.88759201  1
  Te  Te117  1  0.76568232  0.24560692  0.23873556  1
  Te  Te118  1  0.74777123  0.24318190  0.56421588  1
  Te  Te119  1  0.77023855  0.25423171  0.88182761  1
  Te  Te120  1  0.75447584  0.60587456  0.28891855  1
  Te  Te121  1  0.75176108  0.58444828  0.58305634  1
  Te  Te122  1  0.71189471  0.62009119  0.93187665  1
  Te  Te123  1  0.71641096  0.87681004  0.21478449  1
  Te  Te124  1  0.71240338  0.92820757  0.61446593  1
  Te  Te125  1  0.75381205  0.89735338  0.92894955  1
  Te  Te126  1  0.23109960  0.24090878  0.09290519  1
  Te  Te127  1  0.24718813  0.21654618  0.43402429  1
  Te  Te128  1  0.26100963  0.21072254  0.73856616  1
  Te  Te129  1  0.23267275  0.59475075  0.03592545  1
  Te  Te130  1  0.25810289  0.60303004  0.38908686  1
  Te  Te131  1  0.26124353  0.57890877  0.73947425  1
  Te  Te132  1  0.26099363  0.93718877  0.06592942  1
  Te  Te133  1  0.24589390  0.93649191  0.43407613  1
  Te  Te134  1  0.26445289  0.91264649  0.78164111  1
  Te  Te135  1  0.56871000  0.25849217  0.06623212  1
  Te  Te136  1  0.57377823  0.25572560  0.41903105  1
  Te  Te137  1  0.57899759  0.22496873  0.73393765  1
  Te  Te138  1  0.59434755  0.61589859  0.11082466  1
  Te  Te139  1  0.57910139  0.60957876  0.39488303  1
  Te  Te140  1  0.58716161  0.57086068  0.73586362  1
  Te  Te141  1  0.55924493  0.88550884  0.06185802  1
  Te  Te142  1  0.56956540  0.89021944  0.39234829  1
  Te  Te143  1  0.56668413  0.94127353  0.76483078  1
  Te  Te144  1  0.92948091  0.26270181  0.09329637  1
  Te  Te145  1  0.94809755  0.26935997  0.37912494  1
  Te  Te146  1  0.94513556  0.26193107  0.72843788  1
  Te  Te147  1  0.90993913  0.60452137  0.08490279  1
  Te  Te148  1  0.93231030  0.57234751  0.41266689  1
  Te  Te149  1  0.95129962  0.57650314  0.77297067  1
  Te  Te150  1  0.90057944  0.90900621  0.09072556  1
  Te  Te151  1  0.91593006  0.90194831  0.42513602  1
  Te  Te152  1  0.91080698  0.92781920  0.73988323  1
  Te  Te153  1  0.21930587  0.10287904  0.26773935  1
  Te  Te154  1  0.25333384  0.11197755  0.60004592  1
  Te  Te155  1  0.28834089  0.04938576  0.89238788  1
  Te  Te156  1  0.25842345  0.40171584  0.25107718  1
  Te  Te157  1  0.26556584  0.40002705  0.60008950  1
  Te  Te158  1  0.22556745  0.42272419  0.91181812  1
  Te  Te159  1  0.24857414  0.74807669  0.24400568  1
  Te  Te160  1  0.24739192  0.76519111  0.58620409  1
  Te  Te161  1  0.26536822  0.75391159  0.89646006  1
  Te  Te162  1  0.59111369  0.06241592  0.24692389  1
  Te  Te163  1  0.56185645  0.08257787  0.59029943  1
  Te  Te164  1  0.55719858  0.05062091  0.91203009  1
  Te  Te165  1  0.60558493  0.41876878  0.24130737  1
  Te  Te166  1  0.57981658  0.41954107  0.57002226  1
  Te  Te167  1  0.58584367  0.42901661  0.90394253  1
  Te  Te168  1  0.59734812  0.78381790  0.26380034  1
  Te  Te169  1  0.56966909  0.74696230  0.57675656  1
  Te  Te170  1  0.55920953  0.77504865  0.93137692  1
  Te  Te171  1  0.92152561  0.09038546  0.23886338  1
  Te  Te172  1  0.91040265  0.07478865  0.57291112  1
  Te  Te173  1  0.91890222  0.07973501  0.92513718  1
  Te  Te174  1  0.94303959  0.47087725  0.27087026  1
  Te  Te175  1  0.93592587  0.41102280  0.58178553  1
  Te  Te176  1  0.90342700  0.42473892  0.90271695  1
  Te  Te177  1  0.85770351  0.70965509  0.23209818  1
  Te  Te178  1  0.94326557  0.73386618  0.61432710  1
  Te  Te179  1  0.92863147  0.75180549  0.93012770  1
