# generated using pymatgen
data_In2Te3
_symmetry_space_group_name_H-M   'P 1'
_cell_length_a   18.95543353
_cell_length_b   18.90225021
_cell_length_c   18.96517024
_cell_angle_alpha   90.06834798
_cell_angle_beta   89.85213152
_cell_angle_gamma   89.94255202
_symmetry_Int_Tables_number   1
_chemical_formula_structural   In2Te3
_chemical_formula_sum   'In72 Te108'
_cell_volume   6795.19618733
_cell_formula_units_Z   36
loop_
 _symmetry_equiv_pos_site_id
 _symmetry_equiv_pos_as_xyz
  1  'x, y, z'
loop_
 _atom_site_type_symbol
 _atom_site_label
 _atom_site_symmetry_multiplicity
 _atom_site_fract_x
 _atom_site_fract_y
 _atom_site_fract_z
 _atom_site_occupancy
  In  In0  1  0.87079128  0.17953103  0.31655156  1
  In  In1  1  0.63884726  0.01761061  0.00953908  1
  In  In2  1  0.13392627  0.52407719  -0.03705997  1
  In  In3  1  0.31680535  0.34890573  0.64985211  1
  In  In4  1  0.49690094  -0.04711240  0.47952039  1
  In  In5  1  -0.02676487  0.35213651  0.67174609  1
  In  In6  1  0.53350894  0.51651249  0.02725667  1
  In  In7  1  0.64858592  0.01091457  0.67594841  1
  In  In8  1  0.84900710  0.33457642  0.14194169  1
  In  In9  1  -0.01833702  0.52171726  0.15455151  1
  In  In10  1  0.84041316  0.01765065  0.50003748  1
  In  In11  1  -0.01580530  0.29222327  0.32965763  1
  In  In12  1  0.00977085  -0.04978505  0.34502708  1
  In  In13  1  0.46314435  -0.02720288  0.16062606  1
  In  In14  1  0.16838253  0.17323470  0.02318414  1
  In  In15  1  0.67580370  0.35561714  0.00534182  1
  In  In16  1  0.50360922  0.15573477  0.36968220  1
  In  In17  1  0.16100460  0.33568875  0.83200885  1
  In  In18  1  0.66447082  0.17549443  0.83715976  1
  In  In19  1  0.51093313  0.66510846  0.82067260  1
  In  In20  1  0.03609674  0.81620462  0.17835707  1
  In  In21  1  0.66458634  0.51508160  0.50957255  1
  In  In22  1  0.33858614  0.14224944  0.50634103  1
  In  In23  1  0.81058284  0.66741149  0.18494174  1
  In  In24  1  0.67041903  0.37245623  0.33286569  1
  In  In25  1  0.50468031  0.32865705  0.85177144  1
  In  In26  1  0.33136832  0.50919968  0.83937361  1
  In  In27  1  0.32762983  0.84096592  0.83868725  1
  In  In28  1  0.31977720  0.82059607  0.48826092  1
  In  In29  1  0.67375220  0.82279485  0.49927170  1
  In  In30  1  0.14896331  0.36026946  0.17361332  1
  In  In31  1  0.31287610  0.78698264  0.19582774  1
  In  In32  1  0.37118078  0.17610654  0.82002572  1
  In  In33  1  0.49072923  0.15695648  0.67328980  1
  In  In34  1  0.17163025  -0.01472541  0.81959049  1
  In  In35  1  0.32213071  0.66797150  0.68345036  1
  In  In36  1  0.68206748  0.83526871  0.81999481  1
  In  In37  1  0.50308534  0.52676607  0.66829887  1
  In  In38  1  0.00327986  0.17689153  0.52235506  1
  In  In39  1  0.82506133  0.82109289  0.68563993  1
  In  In40  1  0.01666248  0.13300996  0.84439021  1
  In  In41  1  0.16625025  0.51659466  0.34059620  1
  In  In42  1  0.18246250  0.14207539  0.34605147  1
  In  In43  1  0.16484094  -0.02310317  0.50307926  1
  In  In44  1  0.68779574  0.17717054  0.54178525  1
  In  In45  1  0.81335983  0.36700512  0.82858466  1
  In  In46  1  0.82394960  -0.02723632  0.13730026  1
  In  In47  1  0.82646437  0.18778956  0.68462488  1
  In  In48  1  0.17917588  0.82496975  0.00303805  1
  In  In49  1  0.33041456  0.67296962  0.02476867  1
  In  In50  1  0.47648732  0.33543717  0.13760856  1
  In  In51  1  0.00300884  -0.02655179  0.00625488  1
  In  In52  1  0.65473465  0.16905011  0.17968337  1
  In  In53  1  0.87469198  -0.07986910  0.86230451  1
  In  In54  1  0.14575326  0.34163172  0.51110567  1
  In  In55  1  0.05029336  0.54877853  0.51678308  1
  In  In56  1  0.32314036  0.34820049  0.32367262  1
  In  In57  1  0.49119780  0.35913360  0.46952952  1
  In  In58  1  0.33858223  0.00205782  -0.00478738  1
  In  In59  1  0.49755576  0.53312314  0.29938629  1
  In  In60  1  0.51433402  0.80624930  0.01795949  1
  In  In61  1  -0.04176692  0.52090121  0.80137032  1
  In  In62  1  0.66429188  -0.01189307  0.36109467  1
  In  In63  1  0.86614265  0.51950181  0.36497069  1
  In  In64  1  0.81966959  0.53073012  -0.00730351  1
  In  In65  1  0.80906561  0.80598970  0.33321787  1
  In  In66  1  0.33247459  0.17470882  0.17232212  1
  In  In67  1  0.13000544  0.68817177  0.79770703  1
  In  In68  1  -0.00694774  0.13728073  0.16643791  1
  In  In69  1  0.02340860  0.75747196  0.49879960  1
  In  In70  1  0.48334375  0.67660214  0.50624493  1
  In  In71  1  0.69209194  0.68137377  0.66996523  1
  Te  Te72  1  0.09773643  0.05583576  0.09078159  1
  Te  Te73  1  0.05933504  0.08386208  0.41461689  1
  Te  Te74  1  0.08774623  0.07039994  0.73331671  1
  Te  Te75  1  0.06697950  0.42941418  0.06806418  1
  Te  Te76  1  0.08015474  0.39945980  0.38898595  1
  Te  Te77  1  0.07556562  0.43183910  0.75123649  1
  Te  Te78  1  0.10194777  0.72498576  0.08016530  1
  Te  Te79  1  0.13348454  0.76233717  0.38971886  1
  Te  Te80  1  0.04920419  0.78046711  0.71458838  1
  Te  Te81  1  0.42444357  0.09521122  0.07951049  1
  Te  Te82  1  0.40119272  0.05018553  0.40458538  1
  Te  Te83  1  0.40257893  0.06000279  0.73766519  1
  Te  Te84  1  0.41355183  0.45655897  0.08680116  1
  Te  Te85  1  0.40074884  0.45532139  0.39913803  1
  Te  Te86  1  0.41719735  0.41970902  0.74906596  1
  Te  Te87  1  0.44215748  0.71693812  0.11801440  1
  Te  Te88  1  0.39556618  0.72729017  0.39721320  1
  Te  Te89  1  0.42342805  0.76085833  0.74563579  1
  Te  Te90  1  0.74970078  0.09546363  0.08625957  1
  Te  Te91  1  0.75146565  0.10217081  0.41101293  1
  Te  Te92  1  0.75402400  0.07756628  0.76133243  1
  Te  Te93  1  0.75188393  0.44344086  0.10106846  1
  Te  Te94  1  0.76553513  0.42485731  0.43599618  1
  Te  Te95  1  0.77843497  0.42415409  0.69986883  1
  Te  Te96  1  0.73039438  0.73753027  0.07846329  1
  Te  Te97  1  0.74367820  0.71520643  0.42830890  1
  Te  Te98  1  0.83520612  0.70131989  0.79704441  1
  Te  Te99  1  0.09815134  0.23042169  0.24128676  1
  Te  Te100  1  0.08662765  0.25605817  0.61906336  1
  Te  Te101  1  0.07980626  0.24757027  0.92590221  1
  Te  Te102  1  0.07675133  0.58830251  0.24559689  1
  Te  Te103  1  0.10088568  0.66539245  0.60023316  1
  Te  Te104  1  0.03613395  0.61719536  0.89290157  1
  Te  Te105  1  0.11377380  0.92234849  0.24488464  1
  Te  Te106  1  0.05525242  0.89516870  0.55618034  1
  Te  Te107  1  0.08619336  0.89385147  0.90744963  1
  Te  Te108  1  0.43221013  0.25046194  0.27073507  1
  Te  Te109  1  0.42036906  0.25688503  0.56775319  1
  Te  Te110  1  0.40274913  0.26341552  0.93244846  1
  Te  Te111  1  0.39978964  0.63539230  0.25559457  1
  Te  Te112  1  0.39294443  0.57900425  0.58076784  1
  Te  Te113  1  0.42524147  0.59377686  0.92479182  1
  Te  Te114  1  0.40490327  0.88282580  0.25924162  1
  Te  Te115  1  0.40339077  0.90297019  0.57752848  1
  Te  Te116  1  0.43334366  0.90261384  0.92939073  1
  Te  Te117  1  0.75139091  0.26563848  0.24846571  1
  Te  Te118  1  0.75092319  0.29486184  0.61261972  1
  Te  Te119  1  0.75831582  0.25953443  0.92177869  1
  Te  Te120  1  0.75352652  0.56640823  0.28103104  1
  Te  Te121  1  0.76833089  0.56947763  0.60362380  1
  Te  Te122  1  0.76066742  0.58560107  0.87184550  1
  Te  Te123  1  0.74041931  0.91419460  0.24996326  1
  Te  Te124  1  0.74670753  0.92796618  0.58638738  1
  Te  Te125  1  0.73314703  0.92556857  0.92864180  1
  Te  Te126  1  0.25313435  0.27687027  0.09412782  1
  Te  Te127  1  0.25340483  0.25498402  0.42240895  1
  Te  Te128  1  0.25782410  0.25103966  0.74890783  1
  Te  Te129  1  0.21352349  0.59406889  0.06925738  1
  Te  Te130  1  0.22454335  0.63537975  0.41221513  1
  Te  Te131  1  0.22632199  0.57245854  0.75271511  1
  Te  Te132  1  0.28024479  0.89634388  0.08737790  1
  Te  Te133  1  0.22738984  0.89517783  0.39435476  1
  Te  Te134  1  0.23953922  0.88844161  0.73140332  1
  Te  Te135  1  0.58534126  0.25264635  0.07219713  1
  Te  Te136  1  0.60286112  0.26102043  0.42263379  1
  Te  Te137  1  0.58165651  0.25839625  0.74015692  1
  Te  Te138  1  0.63056243  0.61364844  0.07840881  1
  Te  Te139  1  0.57621151  0.59515320  0.41579067  1
  Te  Te140  1  0.61703929  0.57711109  0.75456539  1
  Te  Te141  1  0.58740127  0.90771158  0.10451624  1
  Te  Te142  1  0.57746255  0.86512662  0.38594007  1
  Te  Te143  1  0.57666052  0.90687819  0.74847975  1
  Te  Te144  1  0.93328658  0.23542415  0.07594473  1
  Te  Te145  1  0.89732880  0.25573222  0.44933609  1
  Te  Te146  1  0.92616273  0.25063454  0.77921869  1
  Te  Te147  1  0.91034157  0.62297868  0.06969053  1
  Te  Te148  1  0.95586254  0.62262889  0.42663033  1
  Te  Te149  1  0.91950376  0.61586838  0.68943719  1
  Te  Te150  1  0.92217239  0.87165761  0.08478730  1
  Te  Te151  1  0.89391890  0.89655237  0.42666013  1
  Te  Te152  1  0.94592148  0.89984223  0.73004398  1
  Te  Te153  1  0.26172178  0.07065194  0.24604076  1
  Te  Te154  1  0.23203822  0.08058640  0.58397619  1
  Te  Te155  1  0.23858498  0.08568438  0.91942479  1
  Te  Te156  1  0.25680170  0.44917777  0.23317978  1
  Te  Te157  1  0.23619544  0.44093323  0.56973052  1
  Te  Te158  1  0.24404746  0.42131932  0.92609026  1
  Te  Te159  1  0.20945584  0.70088672  0.26633309  1
  Te  Te160  1  0.23623604  0.75135005  0.59398998  1
  Te  Te161  1  0.24701576  0.72647243  0.90066401  1
  Te  Te162  1  0.57337305  0.07050469  0.26235304  1
  Te  Te163  1  0.57135367  0.07519644  0.56029468  1
  Te  Te164  1  0.56742456  0.08946530  0.90423157  1
  Te  Te165  1  0.57053666  0.41856609  0.23069108  1
  Te  Te166  1  0.57132322  0.42013677  0.58322029  1
  Te  Te167  1  0.59276684  0.43803539  0.90975764  1
  Te  Te168  1  0.65656887  0.69607031  0.21008796  1
  Te  Te169  1  0.58081597  0.75248059  0.59751458  1
  Te  Te170  1  0.60400733  0.74166598  0.91215676  1
  Te  Te171  1  0.91325121  0.03898270  0.25157330  1
  Te  Te172  1  0.91615327  0.08729197  0.60942068  1
  Te  Te173  1  0.91076410  0.06147002  0.92517002  1
  Te  Te174  1  0.91909869  0.41318226  0.25365451  1
  Te  Te175  1  0.96194183  0.43687968  0.55169942  1
  Te  Te176  1  0.91331329  0.43151615  0.91985478  1
  Te  Te177  1  0.92560915  0.74597215  0.25680350  1
  Te  Te178  1  0.89552068  0.73130731  0.58644013  1
  Te  Te179  1  0.90008774  0.78399039  0.90722058  1
