# generated using pymatgen
data_In2Te3
_symmetry_space_group_name_H-M   'P 1'
_cell_length_a   18.92546988
_cell_length_b   18.93983597
_cell_length_c   18.93078814
_cell_angle_alpha   90.12130788
_cell_angle_beta   89.92211226
_cell_angle_gamma   90.08798786
_symmetry_Int_Tables_number   1
_chemical_formula_structural   In2Te3
_chemical_formula_sum   'In72 Te108'
_cell_volume   6785.62249227
_cell_formula_units_Z   36
loop_
 _symmetry_equiv_pos_site_id
 _symmetry_equiv_pos_as_xyz
  1  'x, y, z'
loop_
 _atom_site_type_symbol
 _atom_site_label
 _atom_site_symmetry_multiplicity
 _atom_site_fract_x
 _atom_site_fract_y
 _atom_site_fract_z
 _atom_site_occupancy
  In  In0  1  0.66345766  0.49375182  0.82717909  1
  In  In1  1  0.51250880  0.68199084  0.84407390  1
  In  In2  1  -0.00570258  -0.02226753  0.34389344  1
  In  In3  1  0.15429842  0.31877250  0.85973912  1
  In  In4  1  -0.02176898  0.85933902  0.15732724  1
  In  In5  1  0.81819573  0.16337997  0.67782127  1
  In  In6  1  0.83401749  0.30647861  0.86387614  1
  In  In7  1  -0.00636108  0.18031913  0.51085321  1
  In  In8  1  0.15312512  0.51158863  -0.01574569  1
  In  In9  1  0.30781335  0.49296761  0.80702436  1
  In  In10  1  0.69977188  -0.00874461  0.01064014  1
  In  In11  1  0.32870287  0.33262568  0.32625974  1
  In  In12  1  0.82574685  0.15432357  0.02037074  1
  In  In13  1  0.64595578  0.33463766  0.65349471  1
  In  In14  1  0.33246009  0.83381272  0.83239683  1
  In  In15  1  0.15092317  0.33597914  0.17407172  1
  In  In16  1  -0.00663703  0.66096281  0.62688187  1
  In  In17  1  0.17332047  0.83045352  0.01033643  1
  In  In18  1  0.48362769  -0.00645982  0.82949703  1
  In  In19  1  0.49557236  0.49176168  0.63577563  1
  In  In20  1  0.65614581  0.15535597  0.15710890  1
  In  In21  1  0.01152843  0.84274551  0.84567844  1
  In  In22  1  0.30888186  0.65698840  0.35209662  1
  In  In23  1  0.49646900  0.67640180  0.14284823  1
  In  In24  1  0.82095815  0.64238089  0.18579808  1
  In  In25  1  0.84821047  0.33148078  0.16129170  1
  In  In26  1  0.68311485  0.16710506  0.85668269  1
  In  In27  1  0.30687026  0.32701420  0.66834027  1
  In  In28  1  0.32011754  0.15749297  0.17764857  1
  In  In29  1  0.49706775  0.15730236  0.34305532  1
  In  In30  1  0.17028091  -0.03008916  0.51032052  1
  In  In31  1  0.16907048  0.69901064  0.17653747  1
  In  In32  1  0.68077384  0.66654164  0.64577599  1
  In  In33  1  0.49776044  0.17692948  0.00408255  1
  In  In34  1  0.80703567  0.48538560  0.63752386  1
  In  In35  1  0.14361508  0.50988539  0.63369237  1
  In  In36  1  0.15344144  0.82332592  0.64832605  1
  In  In37  1  0.65864336  0.33534567  0.31989548  1
  In  In38  1  0.16478198  -0.01083641  0.16628819  1
  In  In39  1  0.14737050  0.17835798  0.33434236  1
  In  In40  1  0.51384230  -0.00160267  0.17009378  1
  In  In41  1  0.52631238  -0.00371648  0.49526124  1
  In  In42  1  0.70615214  0.84321065  0.18935977  1
  In  In43  1  -0.00243854  0.50181518  0.82518625  1
  In  In44  1  -0.02434398  0.67034657  0.35942669  1
  In  In45  1  0.32667636  0.67339229  -0.00450955  1
  In  In46  1  0.85008763  0.68479966  0.82200851  1
  In  In47  1  0.84632972  -0.00616270  0.49968696  1
  In  In48  1  0.04425529  -0.02106380  0.65809101  1
  In  In49  1  0.36524713  0.01348744  0.65227708  1
  In  In50  1  0.82618898  0.48813111  0.01739059  1
  In  In51  1  0.52464964  0.52544507  0.33973369  1
  In  In52  1  0.34127037  0.48631792  0.16789324  1
  In  In53  1  0.83696098  0.82116146  0.65969162  1
  In  In54  1  0.15122090  0.16705136  0.67142347  1
  In  In55  1  0.34916006  0.84778275  0.48659773  1
  In  In56  1  0.50653314  0.33110019  0.85544842  1
  In  In57  1  0.00541468  0.51454547  0.18332426  1
  In  In58  1  0.63562735  0.00921096  0.67524132  1
  In  In59  1  0.50821895  0.83699975  0.33031778  1
  In  In60  1  -0.02614980  0.33001435  0.67510183  1
  In  In61  1  0.34734189  0.17205093  0.48269894  1
  In  In62  1  0.15694194  0.15287140  0.00878129  1
  In  In63  1  0.84648106  0.12827813  0.32799575  1
  In  In64  1  0.33826856  0.63962295  0.65552350  1
  In  In65  1  0.66942589  0.68005241  -0.00253338  1
  In  In66  1  0.19059915  -0.00674738  0.83967434  1
  In  In67  1  0.68226767  0.81149801  0.48605877  1
  In  In68  1  0.49320472  0.34125125  0.49315314  1
  In  In69  1  0.48852696  0.51164201  0.01155351  1
  In  In70  1  0.83561275  0.35786714  0.48445610  1
  In  In71  1  0.15578979  0.42522350  0.46608400  1
  Te  Te72  1  0.07092725  0.09154846  0.11521345  1
  Te  Te73  1  0.07773769  0.07624092  0.43746094  1
  Te  Te74  1  0.08169843  0.07575008  0.76989461  1
  Te  Te75  1  0.07228326  0.42422553  0.07855421  1
  Te  Te76  1  0.03687563  0.42039136  0.37452107  1
  Te  Te77  1  0.09341285  0.40811947  0.74768235  1
  Te  Te78  1  0.06426621  0.75433546  0.08350674  1
  Te  Te79  1  0.07849707  0.74283422  0.44034794  1
  Te  Te80  1  0.06046872  0.74208257  0.73565053  1
  Te  Te81  1  0.41479900  0.08026828  0.08832248  1
  Te  Te82  1  0.40939487  0.05434250  0.41244597  1
  Te  Te83  1  0.42161389  0.10179404  0.75297727  1
  Te  Te84  1  0.41188294  0.40245329  0.07208186  1
  Te  Te85  1  0.41518503  0.43137519  0.40262218  1
  Te  Te86  1  0.42333293  0.41110161  0.74408479  1
  Te  Te87  1  0.41728863  0.76795545  0.06020760  1
  Te  Te88  1  0.42567698  0.73911693  0.41292150  1
  Te  Te89  1  0.41468503  0.74088012  0.74529778  1
  Te  Te90  1  0.77182685  0.05460965  0.13188100  1
  Te  Te91  1  0.76110184  0.09730972  0.44261904  1
  Te  Te92  1  0.74930648  0.06388829  0.76725127  1
  Te  Te93  1  0.74531658  0.43062027  0.12403186  1
  Te  Te94  1  0.74894604  0.43129794  0.38992916  1
  Te  Te95  1  0.75550255  0.39317176  0.75662923  1
  Te  Te96  1  0.77021933  0.74877249  0.08721314  1
  Te  Te97  1  0.73338805  0.72542605  0.37380120  1
  Te  Te98  1  0.73680163  0.75877506  0.75656404  1
  Te  Te99  1  0.05749924  0.27790363  0.27350824  1
  Te  Te100  1  0.08688909  0.27452717  0.58486415  1
  Te  Te101  1  0.05953334  0.23395520  0.93161105  1
  Te  Te102  1  0.08792531  0.61027227  0.26696525  1
  Te  Te103  1  0.10939746  0.62510058  0.53414118  1
  Te  Te104  1  0.06928942  0.60097531  0.90551604  1
  Te  Te105  1  0.08677872  0.89320331  0.25936770  1
  Te  Te106  1  0.04880759  0.87504883  0.54347147  1
  Te  Te107  1  0.08917624  0.93506219  0.93817068  1
  Te  Te108  1  0.42397193  0.24691067  0.24590372  1
  Te  Te109  1  0.41586253  0.25286589  0.59149263  1
  Te  Te110  1  0.40346498  0.24862052  0.91697589  1
  Te  Te111  1  0.41290357  0.59641523  0.24410712  1
  Te  Te112  1  0.42921841  0.59014222  0.55165170  1
  Te  Te113  1  0.40768620  0.57598580  0.89701713  1
  Te  Te114  1  0.41889073  0.92102215  0.25042022  1
  Te  Te115  1  0.44765744  0.90471903  0.58864084  1
  Te  Te116  1  0.40336973  0.91848424  0.92777954  1
  Te  Te117  1  0.75662136  0.23439123  0.24780795  1
  Te  Te118  1  0.75863270  0.26188675  0.58135578  1
  Te  Te119  1  0.73139719  0.26246815  0.96448090  1
  Te  Te120  1  0.73749983  0.58723657  0.29895957  1
  Te  Te121  1  0.76720866  0.59476420  0.54744738  1
  Te  Te122  1  0.75764134  0.58315012  0.90586526  1
  Te  Te123  1  0.79956090  0.94369791  0.24712570  1
  Te  Te124  1  0.74486682  0.92075909  0.58885292  1
  Te  Te125  1  0.80255125  0.90943171  0.93827725  1
  Te  Te126  1  0.24578951  0.25510492  0.09030433  1
  Te  Te127  1  0.23775524  0.26230527  0.42759545  1
  Te  Te128  1  0.24632989  0.23393880  0.77014961  1
  Te  Te129  1  0.24410316  0.58608817  0.09032089  1
  Te  Te130  1  0.22494290  0.55651619  0.42302746  1
  Te  Te131  1  0.21788149  0.59248085  0.73939278  1
  Te  Te132  1  0.26345531  0.91782946  0.08497694  1
  Te  Te133  1  0.23692724  0.89514777  0.40411456  1
  Te  Te134  1  0.25625456  0.91950416  0.72161245  1
  Te  Te135  1  0.57262073  0.26013045  0.10020384  1
  Te  Te136  1  0.58852840  0.24551908  0.42573016  1
  Te  Te137  1  0.59078575  0.24427940  0.76208299  1
  Te  Te138  1  0.60102051  0.57988773  0.08846998  1
  Te  Te139  1  0.61750400  0.62337793  0.40195804  1
  Te  Te140  1  0.57768624  0.57933700  0.73768488  1
  Te  Te141  1  0.60489010  0.90499868  0.09212554  1
  Te  Te142  1  0.61676306  0.91877652  0.40125419  1
  Te  Te143  1  0.57961771  0.90584139  0.76123004  1
  Te  Te144  1  0.92881666  0.24834414  0.06909921  1
  Te  Te145  1  0.90764323  0.24745071  0.40899866  1
  Te  Te146  1  0.92305587  0.22473757  0.77176939  1
  Te  Te147  1  0.92010511  0.58830671  0.08117119  1
  Te  Te148  1  0.94667121  0.53494796  0.41475234  1
  Te  Te149  1  0.90137122  0.57289998  0.72944572  1
  Te  Te150  1  0.90690651  0.93852448  0.05215752  1
  Te  Te151  1  0.86892949  0.90183613  0.38229867  1
  Te  Te152  1  0.92925905  0.91387913  0.73762292  1
  Te  Te153  1  0.24008291  0.07587481  0.27586360  1
  Te  Te154  1  0.24715396  0.09189789  0.57797325  1
  Te  Te155  1  0.26051800  0.08378943  0.93017462  1
  Te  Te156  1  0.23411263  0.43071974  0.25931291  1
  Te  Te157  1  0.26561060  0.43683057  0.57566829  1
  Te  Te158  1  0.25431482  0.41469756  0.92480859  1
  Te  Te159  1  0.27284505  0.76327072  0.25651184  1
  Te  Te160  1  0.27030033  0.75535978  0.58061064  1
  Te  Te161  1  0.23151926  0.74203851  0.89959656  1
  Te  Te162  1  0.59973683  0.07236629  0.27139089  1
  Te  Te163  1  0.57420623  0.10377452  0.58315054  1
  Te  Te164  1  0.59442636  0.07202400  0.93534266  1
  Te  Te165  1  0.56494469  0.42099747  0.24588357  1
  Te  Te166  1  0.60503165  0.43421285  0.54813758  1
  Te  Te167  1  0.59442496  0.42182246  0.93889588  1
  Te  Te168  1  0.59047628  0.75089740  0.23517067  1
  Te  Te169  1  0.58565865  0.75595028  0.58089530  1
  Te  Te170  1  0.58739662  0.77745717  0.92481527  1
  Te  Te171  1  0.96229380  0.08410883  0.24484290  1
  Te  Te172  1  0.93033951  0.07989245  0.60690847  1
  Te  Te173  1  0.87967342  0.04761242  0.93228456  1
  Te  Te174  1  0.90847278  0.43024530  0.25961809  1
  Te  Te175  1  0.93704479  0.43563124  0.57247257  1
  Te  Te176  1  0.92267356  0.41370358  0.92395085  1
  Te  Te177  1  0.91385671  0.74796125  0.24448073  1
  Te  Te178  1  0.87956339  0.72276498  0.55493508  1
  Te  Te179  1  0.93079507  0.74808005  0.92567167  1
