# generated using pymatgen
data_In2Te3
_symmetry_space_group_name_H-M   'P 1'
_cell_length_a   18.81815530
_cell_length_b   18.81746692
_cell_length_c   18.80819116
_cell_angle_alpha   89.96202714
_cell_angle_beta   90.08941809
_cell_angle_gamma   89.91646742
_symmetry_Int_Tables_number   1
_chemical_formula_structural   In2Te3
_chemical_formula_sum   'In72 Te108'
_cell_volume   6660.15219122
_cell_formula_units_Z   36
loop_
 _symmetry_equiv_pos_site_id
 _symmetry_equiv_pos_as_xyz
  1  'x, y, z'
loop_
 _atom_site_type_symbol
 _atom_site_label
 _atom_site_symmetry_multiplicity
 _atom_site_fract_x
 _atom_site_fract_y
 _atom_site_fract_z
 _atom_site_occupancy
  In  In0  1  0.16572860  0.84673589  0.34420308  1
  In  In1  1  0.82615848  0.33427616  0.14793061  1
  In  In2  1  0.85687512  0.01670769  0.52706935  1
  In  In3  1  -0.01791034  0.32590878  -0.02043642  1
  In  In4  1  0.15967418  0.67251955  0.83426372  1
  In  In5  1  0.49008475  0.00065086  0.15649259  1
  In  In6  1  0.33925346  -0.01912835  0.65595453  1
  In  In7  1  0.15890448  0.67348714  0.52485772  1
  In  In8  1  0.14975372  0.51598221  0.65482731  1
  In  In9  1  0.49078436  0.82767274  0.01742926  1
  In  In10  1  -0.02086076  0.32893372  0.66249507  1
  In  In11  1  0.68552066  0.03292821  0.65102985  1
  In  In12  1  0.00407086  -0.00322308  0.01203147  1
  In  In13  1  0.51363701  0.34599463  0.83747478  1
  In  In14  1  0.50213130  0.14146207  0.66885097  1
  In  In15  1  0.34440443  0.14317328  0.48812520  1
  In  In16  1  0.15936696  -0.00044718  0.48760874  1
  In  In17  1  0.32708201  0.14187954  0.16796566  1
  In  In18  1  0.14970569  0.01115162  0.84633361  1
  In  In19  1  0.85674453  0.17272830  0.33408957  1
  In  In20  1  0.30196863  0.33156051  0.31702350  1
  In  In21  1  0.50754672  0.32666667  0.50374259  1
  In  In22  1  0.00361195  0.00331977  0.32513828  1
  In  In23  1  0.83179051  0.47961270  -0.00997837  1
  In  In24  1  0.15934150  0.15010644  0.32692643  1
  In  In25  1  0.49377095  0.47126373  0.30966495  1
  In  In26  1  0.33811487  0.34305142  -0.00599190  1
  In  In27  1  0.69333840  0.17367577  0.82534715  1
  In  In28  1  0.52416841  0.32294390  0.16161600  1
  In  In29  1  0.34852651  0.81592487  0.85549124  1
  In  In30  1  0.34465465  0.48311454  0.15710047  1
  In  In31  1  0.32317582  0.37452325  0.64812114  1
  In  In32  1  0.50954514  0.51745061  0.65829741  1
  In  In33  1  0.16407261  0.83185148  0.67185352  1
  In  In34  1  0.13719777  0.17206174  -0.00229863  1
  In  In35  1  0.50431922  0.67700178  0.50107930  1
  In  In36  1  0.67952340  0.82594050  0.18209731  1
  In  In37  1  0.00058435  0.82422262  0.52128459  1
  In  In38  1  0.16461331  0.32555423  0.19646392  1
  In  In39  1  0.67149716  -0.01497525  0.33677469  1
  In  In40  1  0.33077587  0.66172363  0.33707243  1
  In  In41  1  0.82793977  0.81169576  0.33822120  1
  In  In42  1  0.50242430  0.83960372  0.31271813  1
  In  In43  1  0.66706089  0.17613684  0.15044671  1
  In  In44  1  0.81560443  0.67512988  0.15921726  1
  In  In45  1  0.83880083  0.52430844  0.35508267  1
  In  In46  1  0.31772511  0.49847365  0.51760305  1
  In  In47  1  0.15849918  0.33136056  0.84420977  1
  In  In48  1  0.84492133  0.67877127  0.83140790  1
  In  In49  1  -0.00547755  0.83278736  0.17107682  1
  In  In50  1  0.64803846  0.67751205  0.01202850  1
  In  In51  1  0.50923975  -0.01889402  0.84523532  1
  In  In52  1  0.83646103  0.49237357  0.64915226  1
  In  In53  1  0.83312680  0.16733902  -0.00968796  1
  In  In54  1  0.68581446  0.84331073  0.84278256  1
  In  In55  1  0.49469474  0.82077984  0.66679426  1
  In  In56  1  0.00383089  0.33666160  0.36164515  1
  In  In57  1  0.15854261  0.51199714  -0.00144240  1
  In  In58  1  0.68693437  0.00442577  -0.02587081  1
  In  In59  1  0.69633786  0.18677617  0.52735386  1
  In  In60  1  0.68010186  0.49097655  0.50456080  1
  In  In61  1  -0.00477261  0.68344402  -0.01723579  1
  In  In62  1  0.50194659  0.17058939  0.35800019  1
  In  In63  1  0.14981294  0.65504506  0.16856585  1
  In  In64  1  0.65599221  0.66076417  0.33246195  1
  In  In65  1  0.36086495  0.56511081  0.84927229  1
  In  In66  1  0.13790963  0.16448737  0.68795054  1
  In  In67  1  0.83918626  0.85225230  0.67987703  1
  In  In68  1  0.00712130  0.49690996  0.17096884  1
  In  In69  1  0.29608246  0.15739185  0.85396813  1
  In  In70  1  0.00349799  0.66702136  0.66579195  1
  In  In71  1  0.67843446  0.49948106  0.81216165  1
  Te  Te72  1  0.08942847  0.08143566  0.10190539  1
  Te  Te73  1  0.05852403  0.09821114  0.43165975  1
  Te  Te74  1  0.04367299  0.06501881  0.75138760  1
  Te  Te75  1  0.08797478  0.39910112  0.07283724  1
  Te  Te76  1  0.12226079  0.40295215  0.41584085  1
  Te  Te77  1  0.07840727  0.41737932  0.74676814  1
  Te  Te78  1  0.09031174  0.75946764  0.07461281  1
  Te  Te79  1  0.07697020  0.74666804  0.41591566  1
  Te  Te80  1  0.06190885  0.76775978  0.76425915  1
  Te  Te81  1  0.42563467  0.09999801  0.06793397  1
  Te  Te82  1  0.41518210  0.05628638  0.39307541  1
  Te  Te83  1  0.40458408  0.07725306  0.76788370  1
  Te  Te84  1  0.44839532  0.41897012  0.06544941  1
  Te  Te85  1  0.40067775  0.40363783  0.42166782  1
  Te  Te86  1  0.41460164  0.43562204  0.75713667  1
  Te  Te87  1  0.39323786  0.72878504  0.07129709  1
  Te  Te88  1  0.41348090  0.76310912  0.41427553  1
  Te  Te89  1  0.41943795  0.72995755  0.75844154  1
  Te  Te90  1  0.75979285  0.07363668  0.08869580  1
  Te  Te91  1  0.75621553  0.08353082  0.42178035  1
  Te  Te92  1  0.78412313  0.07879641  0.75229188  1
  Te  Te93  1  0.72970635  0.42404913  0.08026140  1
  Te  Te94  1  0.77604386  0.40945804  0.42552194  1
  Te  Te95  1  0.75357185  0.39476513  0.73154608  1
  Te  Te96  1  0.75911405  0.77596921  0.06127247  1
  Te  Te97  1  0.74165618  0.73326406  0.42733400  1
  Te  Te98  1  0.74365788  0.74667205  0.74067181  1
  Te  Te99  1  0.05712198  0.23776274  0.25461496  1
  Te  Te100  1  0.07754046  0.24857989  0.58422997  1
  Te  Te101  1  0.05357785  0.22832423  0.88391721  1
  Te  Te102  1  0.07017636  0.58396964  0.27137510  1
  Te  Te103  1  0.04169626  0.56558178  0.55154169  1
  Te  Te104  1  0.06112549  0.57251246  0.89992825  1
  Te  Te105  1  0.09918926  0.92693376  0.23292848  1
  Te  Te106  1  0.07321388  0.93445533  0.59795032  1
  Te  Te107  1  0.09225304  0.90649011  0.93125211  1
  Te  Te108  1  0.41547326  0.25077009  0.25179553  1
  Te  Te109  1  0.40999820  0.24702142  0.59061321  1
  Te  Te110  1  0.41117216  0.24693701  0.90244347  1
  Te  Te111  1  0.42311110  0.58636446  0.24016561  1
  Te  Te112  1  0.40195954  0.60106160  0.58941827  1
  Te  Te113  1  0.44399441  0.60585463  0.96562919  1
  Te  Te114  1  0.39753510  0.90344891  0.22318130  1
  Te  Te115  1  0.44670143  0.92602018  0.57378824  1
  Te  Te116  1  0.40198621  0.93435758  0.94299197  1
  Te  Te117  1  0.75179134  0.25076874  0.25269615  1
  Te  Te118  1  0.76418078  0.27058258  0.63100752  1
  Te  Te119  1  0.75695541  0.27079951  0.91693594  1
  Te  Te120  1  0.74025309  0.57301881  0.24089969  1
  Te  Te121  1  0.74761496  0.59290058  0.58555936  1
  Te  Te122  1  0.75309943  0.59766868  0.92433340  1
  Te  Te123  1  0.77768008  0.92318563  0.24674953  1
  Te  Te124  1  0.75060715  0.91774321  0.57216711  1
  Te  Te125  1  0.79075822  0.93876296  0.88943162  1
  Te  Te126  1  0.24998593  0.25787978  0.08453739  1
  Te  Te127  1  0.24308468  0.23712780  0.42126735  1
  Te  Te128  1  0.25485955  0.26130837  0.74547459  1
  Te  Te129  1  0.25886346  0.58727325  0.08062046  1
  Te  Te130  1  0.23312843  0.58378460  0.42341241  1
  Te  Te131  1  0.24960926  0.59124250  0.74186631  1
  Te  Te132  1  0.32948539  0.86272415  0.07756789  1
  Te  Te133  1  0.26290182  0.90945808  0.43628799  1
  Te  Te134  1  0.25285808  0.91802655  0.76588047  1
  Te  Te135  1  0.58480111  0.24610516  0.05097303  1
  Te  Te136  1  0.61113267  0.26043864  0.41567679  1
  Te  Te137  1  0.58372447  0.24523906  0.74223138  1
  Te  Te138  1  0.55185732  0.58808073  0.07732481  1
  Te  Te139  1  0.56344489  0.55908480  0.41762219  1
  Te  Te140  1  0.58221524  0.59766242  0.75760685  1
  Te  Te141  1  0.60253383  0.92209613  0.08103333  1
  Te  Te142  1  0.59824371  0.88585648  0.41585239  1
  Te  Te143  1  0.60245690  0.93040117  0.73787842  1
  Te  Te144  1  0.92833104  0.23756166  0.08974489  1
  Te  Te145  1  0.90370979  0.26166304  0.44455873  1
  Te  Te146  1  0.88493719  0.22722449  0.72524763  1
  Te  Te147  1  0.91950629  0.58320472  0.07911057  1
  Te  Te148  1  0.94265641  0.59172930  0.43153652  1
  Te  Te149  1  0.92001470  0.57313841  0.75166086  1
  Te  Te150  1  0.90514341  0.91043810  0.08453866  1
  Te  Te151  1  0.91936932  0.91331336  0.42154267  1
  Te  Te152  1  0.94586415  0.94557414  0.71839419  1
  Te  Te153  1  0.25786201  0.05808951  0.26607413  1
  Te  Te154  1  0.24257560  0.08613769  0.59698931  1
  Te  Te155  1  0.24148198  0.06473868  0.96006511  1
  Te  Te156  1  0.22988290  0.45119645  0.25490009  1
  Te  Te157  1  0.19849068  0.40206707  0.55486309  1
  Te  Te158  1  0.25581791  0.43764792  0.90400454  1
  Te  Te159  1  0.23968396  0.74828271  0.25138250  1
  Te  Te160  1  0.25939167  0.76459023  0.58227707  1
  Te  Te161  1  0.24054981  0.74929746  0.93158813  1
  Te  Te162  1  0.58599820  0.08495284  0.25536656  1
  Te  Te163  1  0.57997331  0.08724652  0.55090344  1
  Te  Te164  1  0.58414531  0.09559580  0.90980707  1
  Te  Te165  1  0.61013809  0.40703028  0.24867496  1
  Te  Te166  1  0.59426067  0.40516996  0.59986282  1
  Te  Te167  1  0.60435487  0.42764910  0.91902143  1
  Te  Te168  1  0.57010191  0.73156937  0.22726413  1
  Te  Te169  1  0.59712933  0.74128627  0.59465714  1
  Te  Te170  1  0.57558009  0.76022466  0.90511699  1
  Te  Te171  1  0.91345998  0.07860886  0.23634545  1
  Te  Te172  1  0.91168267  0.12278865  0.61216292  1
  Te  Te173  1  0.91058630  0.06511632  0.91454103  1
  Te  Te174  1  0.91040344  0.41314085  0.25261036  1
  Te  Te175  1  0.90755804  0.40231758  0.55116853  1
  Te  Te176  1  0.90219967  0.40459475  0.88453946  1
  Te  Te177  1  0.92260119  0.72665585  0.25487126  1
  Te  Te178  1  0.89487416  0.73945622  0.58679440  1
  Te  Te179  1  0.91521308  0.78326871  0.90902360  1
