# generated using pymatgen
data_In2Te3
_symmetry_space_group_name_H-M   'P 1'
_cell_length_a   18.99674831
_cell_length_b   18.98285442
_cell_length_c   18.99423227
_cell_angle_alpha   89.86158827
_cell_angle_beta   89.99109092
_cell_angle_gamma   90.03800572
_symmetry_Int_Tables_number   1
_chemical_formula_structural   In2Te3
_chemical_formula_sum   'In72 Te108'
_cell_volume   6849.53615193
_cell_formula_units_Z   36
loop_
 _symmetry_equiv_pos_site_id
 _symmetry_equiv_pos_as_xyz
  1  'x, y, z'
loop_
 _atom_site_type_symbol
 _atom_site_label
 _atom_site_symmetry_multiplicity
 _atom_site_fract_x
 _atom_site_fract_y
 _atom_site_fract_z
 _atom_site_occupancy
  In  In0  1  0.83999588  0.83185958  0.66190362  1
  In  In1  1  0.32527318  0.00862583  0.67106379  1
  In  In2  1  0.00065776  0.15575535  0.17255122  1
  In  In3  1  0.32063399  0.00462087  0.33161694  1
  In  In4  1  -0.01541083  0.52608365  0.15950749  1
  In  In5  1  0.46629445  0.01737239  0.17612382  1
  In  In6  1  0.68177222  0.83432949  0.89217733  1
  In  In7  1  0.85988060  0.30116629  0.81685531  1
  In  In8  1  0.68297404  0.66651113  0.67291513  1
  In  In9  1  0.82836657  0.48929246  0.65388732  1
  In  In10  1  0.00198785  0.84523361  0.49296827  1
  In  In11  1  0.66629426  0.48949114  0.48921193  1
  In  In12  1  0.02510451  0.84616102  0.17263141  1
  In  In13  1  0.48783344  0.51112298  0.34714364  1
  In  In14  1  0.84600902  0.00264878  0.50509650  1
  In  In15  1  0.50778698  0.65495059  0.18663856  1
  In  In16  1  0.15175837  0.85264320  0.67741043  1
  In  In17  1  0.33450142  0.67957484  0.33081005  1
  In  In18  1  0.31623514  0.15084495  0.83352056  1
  In  In19  1  0.00592152  0.14953806  0.49354919  1
  In  In20  1  0.68051714  -0.03442048  0.31580728  1
  In  In21  1  -0.02117060  0.31942525  0.35820294  1
  In  In22  1  0.14269238  0.13735101  0.69745715  1
  In  In23  1  0.00149268  0.68342541  0.32380251  1
  In  In24  1  0.33736065  0.48363547  0.84790458  1
  In  In25  1  0.17019840  0.46566034  0.69166055  1
  In  In26  1  0.31440915  0.33614557  0.00183638  1
  In  In27  1  0.67108668  0.81730301  0.49239871  1
  In  In28  1  0.62931924  0.17202562  0.15422202  1
  In  In29  1  0.49335059  0.19330188  0.32957861  1
  In  In30  1  0.14784529  0.67512908  0.49681943  1
  In  In31  1  0.17124107  0.17157352  -0.01816837  1
  In  In32  1  0.50940028  0.66498984  0.80171390  1
  In  In33  1  0.52294605  0.52283075  -0.00559117  1
  In  In34  1  0.84999098  0.69232156  0.88010808  1
  In  In35  1  -0.00103407  0.64716611  0.66914734  1
  In  In36  1  -0.01546842  0.49183421  0.48991393  1
  In  In37  1  0.16276812  -0.00160410  0.15725081  1
  In  In38  1  0.49593976  0.33169254  0.49633792  1
  In  In39  1  0.83819042  0.13271934  -0.02837102  1
  In  In40  1  0.14782403  0.85178999  -0.02076388  1
  In  In41  1  0.15530618  0.49077057  -0.00297574  1
  In  In42  1  0.83968100  0.35104572  0.16387458  1
  In  In43  1  0.67068284  0.35397862  0.33108577  1
  In  In44  1  0.65489631  0.03553949  0.65949159  1
  In  In45  1  0.33597255  0.83406476  0.48355581  1
  In  In46  1  0.17820461  0.32027561  0.49541581  1
  In  In47  1  0.48265628  0.85099538  0.00966417  1
  In  In48  1  0.48005993  0.32390491  0.83653489  1
  In  In49  1  0.85093301  0.00798848  0.81612269  1
  In  In50  1  0.49284439  -0.00741884  0.85023291  1
  In  In51  1  0.00001134  0.50192169  0.82473193  1
  In  In52  1  0.52433068  0.85835469  0.68025847  1
  In  In53  1  0.18331993  0.68093082  0.17917609  1
  In  In54  1  0.48015938  0.32594512  0.13070853  1
  In  In55  1  0.53280984  0.00535823  0.49584109  1
  In  In56  1  0.67672491  -0.02956374  0.00700927  1
  In  In57  1  0.20407027  0.45944026  0.29226258  1
  In  In58  1  0.34079318  0.51354835  0.49799924  1
  In  In59  1  0.16325690  0.14726461  0.32875654  1
  In  In60  1  0.82708115  0.51977752  0.00648908  1
  In  In61  1  0.69525513  0.48150064  0.82620528  1
  In  In62  1  0.33090221  0.16433615  0.52166380  1
  In  In63  1  0.69816025  0.67554543  0.32477957  1
  In  In64  1  0.15919741  0.65496987  0.84977399  1
  In  In65  1  0.65593159  0.51039006  0.18736701  1
  In  In66  1  0.32374680  0.67825853  0.01524909  1
  In  In67  1  0.84312460  -0.01426908  0.16614468  1
  In  In68  1  0.65605127  0.15959825  0.85338950  1
  In  In69  1  0.82046162  0.16503982  0.35113921  1
  In  In70  1  0.00042079  0.32168373  -0.00788603  1
  In  In71  1  0.35282077  0.66554974  0.65901375  1
  Te  Te72  1  0.07544894  0.08361208  0.06570028  1
  Te  Te73  1  0.06907262  0.05562983  0.39768835  1
  Te  Te74  1  0.09039561  0.05128532  0.80777731  1
  Te  Te75  1  0.06553751  0.41443962  0.09239733  1
  Te  Te76  1  0.09342178  0.41393098  0.41060127  1
  Te  Te77  1  0.05031442  0.39354797  0.73880287  1
  Te  Te78  1  0.09364781  0.74572616  0.07828588  1
  Te  Te79  1  0.09876142  0.77521768  0.39690406  1
  Te  Te80  1  0.07559975  0.74060338  0.75780926  1
  Te  Te81  1  0.46854118  0.11242504  0.06623278  1
  Te  Te82  1  0.42470945  0.08695511  0.41747833  1
  Te  Te83  1  0.42880682  0.08539858  0.75019812  1
  Te  Te84  1  0.41368304  0.44133763  0.05888461  1
  Te  Te85  1  0.39758855  0.40610393  0.40631806  1
  Te  Te86  1  0.41833574  0.42178888  0.74540246  1
  Te  Te87  1  0.41790000  0.75061723  0.10506148  1
  Te  Te88  1  0.42759239  0.73714882  0.42808447  1
  Te  Te89  1  0.41643277  0.77285128  0.74747034  1
  Te  Te90  1  0.74523843  0.08536512  0.08952618  1
  Te  Te91  1  0.73394554  0.06247171  0.42072525  1
  Te  Te92  1  0.76942754  0.11999752  0.74125723  1
  Te  Te93  1  0.73688643  0.42648614  0.08487165  1
  Te  Te94  1  0.77088116  0.42280408  0.41094613  1
  Te  Te95  1  0.75826475  0.37909284  0.73378522  1
  Te  Te96  1  0.72820441  0.82754277  0.03459080  1
  Te  Te97  1  0.78009436  0.77160704  0.40505647  1
  Te  Te98  1  0.74979567  0.76165124  0.77211277  1
  Te  Te99  1  0.07423039  0.25245814  0.26160240  1
  Te  Te100  1  0.09223554  0.23540376  0.58361735  1
  Te  Te101  1  0.07780759  0.24669946  0.89466365  1
  Te  Te102  1  0.09685731  0.57711960  0.25147502  1
  Te  Te103  1  0.09798417  0.56408275  0.59007483  1
  Te  Te104  1  0.05464985  0.58821219  0.93684251  1
  Te  Te105  1  0.08177753  0.94428421  0.26909904  1
  Te  Te106  1  0.05667394  0.93210078  0.59875369  1
  Te  Te107  1  0.05675139  0.91796419  0.88148314  1
  Te  Te108  1  0.39955285  0.24916153  0.22922477  1
  Te  Te109  1  0.40578731  0.26593602  0.59346572  1
  Te  Te110  1  0.40281142  0.23691179  0.93261669  1
  Te  Te111  1  0.39611254  0.57010780  0.24322186  1
  Te  Te112  1  0.44115403  0.58451449  0.57688293  1
  Te  Te113  1  0.41337647  0.60078964  0.90737918  1
  Te  Te114  1  0.40661763  0.91136570  0.25735270  1
  Te  Te115  1  0.42834246  0.92630854  0.58224254  1
  Te  Te116  1  0.38637602  0.93242287  0.93266608  1
  Te  Te117  1  0.75190285  0.25028158  0.24519801  1
  Te  Te118  1  0.71084970  0.16484109  0.60407569  1
  Te  Te119  1  0.75837368  0.25031702  0.92027607  1
  Te  Te120  1  0.77039760  0.56737314  0.25656957  1
  Te  Te121  1  0.75890333  0.59113661  0.56829224  1
  Te  Te122  1  0.73435456  0.59864501  0.91529371  1
  Te  Te123  1  0.75071050  0.88319589  0.21747763  1
  Te  Te124  1  0.73487788  0.91775376  0.59156148  1
  Te  Te125  1  0.82992708  0.91858408  0.94022218  1
  Te  Te126  1  0.21860664  0.26499554  0.09105508  1
  Te  Te127  1  0.26154104  0.23435744  0.40454817  1
  Te  Te128  1  0.24540915  0.23395694  0.73629852  1
  Te  Te129  1  0.24582413  0.57092890  0.08697607  1
  Te  Te130  1  0.23907724  0.58770650  0.41249470  1
  Te  Te131  1  0.25085413  0.58339089  0.75018729  1
  Te  Te132  1  0.24384032  0.90800695  0.07434302  1
  Te  Te133  1  0.24240227  0.93116055  0.43216414  1
  Te  Te134  1  0.24888563  0.92261863  0.76044992  1
  Te  Te135  1  0.59762607  0.27687237  0.05900154  1
  Te  Te136  1  0.60225872  0.25063503  0.41682469  1
  Te  Te137  1  0.57296920  0.23669818  0.76227196  1
  Te  Te138  1  0.60953237  0.60970260  0.08136693  1
  Te  Te139  1  0.59320733  0.59470414  0.40891135  1
  Te  Te140  1  0.59673736  0.56022869  0.73770484  1
  Te  Te141  1  0.56892453  0.92673082  0.10591706  1
  Te  Te142  1  0.57544393  0.89501315  0.40306942  1
  Te  Te143  1  0.61600536  0.93420577  0.77923409  1
  Te  Te144  1  0.90515391  0.23890674  0.08077499  1
  Te  Te145  1  0.89027466  0.24675668  0.45674196  1
  Te  Te146  1  0.91058301  0.19491967  0.72834049  1
  Te  Te147  1  0.88885588  0.61908544  0.09611744  1
  Te  Te148  1  0.92579747  0.60649063  0.42394000  1
  Te  Te149  1  0.89004751  0.59116004  0.76167886  1
  Te  Te150  1  0.94886880  0.93444486  0.07827437  1
  Te  Te151  1  0.89231253  0.90070468  0.40894383  1
  Te  Te152  1  0.93575653  0.90760798  0.74400741  1
  Te  Te153  1  0.25960975  0.09387430  0.22448742  1
  Te  Te154  1  0.22485638  0.07462306  0.58013036  1
  Te  Te155  1  0.26844582  0.06626245  0.94514032  1
  Te  Te156  1  0.26841583  0.35973697  0.20879163  1
  Te  Te157  1  0.25990383  0.41346713  0.58282922  1
  Te  Te158  1  0.22207625  0.39990214  0.89678529  1
  Te  Te159  1  0.26530014  0.78027800  0.24840296  1
  Te  Te160  1  0.24101900  0.74953785  0.59061229  1
  Te  Te161  1  0.25276157  0.75659860  0.90912374  1
  Te  Te162  1  0.58696285  0.08346721  0.26819722  1
  Te  Te163  1  0.56018165  0.12503357  0.58041583  1
  Te  Te164  1  0.57094693  0.07986173  0.95358160  1
  Te  Te165  1  0.55514002  0.40940056  0.24725904  1
  Te  Te166  1  0.59905164  0.39638277  0.57846859  1
  Te  Te167  1  0.58387702  0.41800810  0.90668046  1
  Te  Te168  1  0.59780521  0.75128953  0.24821242  1
  Te  Te169  1  0.58050639  0.74666736  0.59457844  1
  Te  Te170  1  0.55571241  0.75441023  0.91642029  1
  Te  Te171  1  0.91093795  0.07826669  0.26686837  1
  Te  Te172  1  0.92761314  0.08043409  0.60150717  1
  Te  Te173  1  0.95490452  0.10201004  0.88237592  1
  Te  Te174  1  0.92406536  0.42511624  0.26273309  1
  Te  Te175  1  0.94002285  0.40776041  0.60217298  1
  Te  Te176  1  0.90085899  0.41988498  0.91675849  1
  Te  Te177  1  0.92189655  0.75167167  0.22121680  1
  Te  Te178  1  0.92417681  0.74005295  0.57668464  1
  Te  Te179  1  0.93226112  0.80488781  0.92706892  1
