# generated using pymatgen
data_In2Te3
_symmetry_space_group_name_H-M   'P 1'
_cell_length_a   19.00979354
_cell_length_b   19.03755365
_cell_length_c   19.00963768
_cell_angle_alpha   90.27019488
_cell_angle_beta   89.85209755
_cell_angle_gamma   90.02630022
_symmetry_Int_Tables_number   1
_chemical_formula_structural   In2Te3
_chemical_formula_sum   'In72 Te108'
_cell_volume   6879.48709166
_cell_formula_units_Z   36
loop_
 _symmetry_equiv_pos_site_id
 _symmetry_equiv_pos_as_xyz
  1  'x, y, z'
loop_
 _atom_site_type_symbol
 _atom_site_label
 _atom_site_symmetry_multiplicity
 _atom_site_fract_x
 _atom_site_fract_y
 _atom_site_fract_z
 _atom_site_occupancy
  In  In0  1  0.25085371  0.13075314  0.07043044  1
  In  In1  1  0.31022050  0.67970772  0.00181301  1
  In  In2  1  0.48073854  0.47856305  0.00626856  1
  In  In3  1  0.20155989  0.53218860  0.63984317  1
  In  In4  1  0.00326365  0.00483507  0.66392910  1
  In  In5  1  0.64163963  0.35665789  0.65925037  1
  In  In6  1  -0.00232831  0.49858578  0.16835741  1
  In  In7  1  0.84023071  0.01138844  0.15637164  1
  In  In8  1  0.82974721  -0.00520048  0.48801792  1
  In  In9  1  0.03928934  0.52344778  0.83452635  1
  In  In10  1  -0.02217627  0.32762550  0.66664376  1
  In  In11  1  0.47898739  0.85500513  -0.00066906  1
  In  In12  1  0.84895246  0.85054943  0.00667383  1
  In  In13  1  0.31333854  0.47290236  0.20273585  1
  In  In14  1  0.14014012  0.65733029  0.17296887  1
  In  In15  1  0.33794942  0.83382826  0.16236438  1
  In  In16  1  0.83834807  0.32882974  0.85439645  1
  In  In17  1  0.15582274  0.67211242  0.48358071  1
  In  In18  1  0.18946471  0.37219301  0.42456259  1
  In  In19  1  0.02172761  0.12950021  0.86883738  1
  In  In20  1  0.35426730  0.14128714  0.47867786  1
  In  In21  1  0.33020836  -0.00119232  0.68695310  1
  In  In22  1  0.81338999  0.31768364  0.47911046  1
  In  In23  1  0.66245459  0.48817786  0.77520224  1
  In  In24  1  0.23356098  0.18628901  0.26848497  1
  In  In25  1  -0.01683562  0.18003618  0.47145977  1
  In  In26  1  0.81890898  0.67373471  0.45808211  1
  In  In27  1  0.51317384  0.83510949  0.32698719  1
  In  In28  1  0.16338214  0.83017126  0.00799682  1
  In  In29  1  0.16305282  0.00461324  0.51430786  1
  In  In30  1  0.47226532  0.50646890  0.66636210  1
  In  In31  1  0.48118428  0.31276164  0.83051573  1
  In  In32  1  0.02075828  -0.00808168  0.02607480  1
  In  In33  1  0.66257449  0.13902566  0.85954689  1
  In  In34  1  0.14910151  0.17944230  0.67963080  1
  In  In35  1  0.66075393  0.67003458  0.32699607  1
  In  In36  1  0.49060177  0.34537950  0.50156588  1
  In  In37  1  0.63633102  0.14347349  0.47410028  1
  In  In38  1  0.66081900  0.48990340  0.16735224  1
  In  In39  1  0.14529181  0.32879026  0.84380086  1
  In  In40  1  0.85164287  0.48208322  0.32788857  1
  In  In41  1  0.62720003  0.16646022  0.16635179  1
  In  In42  1  0.02100930  0.16466799  0.16588047  1
  In  In43  1  0.18896410  0.84841909  0.35317017  1
  In  In44  1  0.85572180  0.66307299  0.87402544  1
  In  In45  1  0.33602852  0.50870137  0.48437529  1
  In  In46  1  0.33751510  0.68388054  0.68783804  1
  In  In47  1  0.67031817  0.32614940  0.31672236  1
  In  In48  1  0.66575207  0.84355923  0.81740781  1
  In  In49  1  0.84640805  0.49974287  0.02128054  1
  In  In50  1  0.87454963  0.68311566  0.20706709  1
  In  In51  1  0.64768160  -0.02150225  0.00317576  1
  In  In52  1  0.32054667  0.16719218  0.86053523  1
  In  In53  1  0.16908616  0.48839331  -0.00842143  1
  In  In54  1  0.66375120  0.69627295  0.65831362  1
  In  In55  1  0.51483544  0.49192014  0.32680337  1
  In  In56  1  0.48250799  0.84850127  0.66355537  1
  In  In57  1  0.63577323  0.32733019  -0.00607984  1
  In  In58  1  0.65993044  0.83970562  0.15841125  1
  In  In59  1  0.69103911  0.65582973  -0.00028368  1
  In  In60  1  0.01419174  0.67510567  0.64350770  1
  In  In61  1  0.50832303  0.16185659  0.66312931  1
  In  In62  1  0.66907180  0.01687242  0.67147111  1
  In  In63  1  0.84834553  0.51879526  0.63968211  1
  In  In64  1  0.85347267  0.83418449  0.67249161  1
  In  In65  1  0.00866273  0.31342708  0.00518254  1
  In  In66  1  0.35999192  0.66809816  0.32600377  1
  In  In67  1  0.65795208  0.00878212  0.31098604  1
  In  In68  1  0.49546922  0.66808371  0.87012440  1
  In  In69  1  0.82223367  0.19201510  0.67332153  1
  In  In70  1  0.16737278  0.84876332  0.66618564  1
  In  In71  1  0.00964859  -0.02041461  0.32631202  1
  Te  Te72  1  0.11940820  0.06201725  0.11573287  1
  Te  Te73  1  0.08361671  0.08343283  0.41320820  1
  Te  Te74  1  0.10547707  0.06140033  0.76205708  1
  Te  Te75  1  0.09125128  0.40562993  0.09005229  1
  Te  Te76  1  0.07446780  0.44244120  0.36799106  1
  Te  Te77  1  0.08117045  0.41522088  0.73497817  1
  Te  Te78  1  0.07606648  0.77378657  0.11449360  1
  Te  Te79  1  0.07366632  0.76028453  0.39493488  1
  Te  Te80  1  0.09049274  0.74794754  0.74150006  1
  Te  Te81  1  0.37349309  0.09717124  0.15252195  1
  Te  Te82  1  0.43272785  0.06715188  0.37803836  1
  Te  Te83  1  0.41877261  0.09565086  0.76290251  1
  Te  Te84  1  0.38797861  0.40049405  0.09142425  1
  Te  Te85  1  0.40519078  0.40832022  0.39453461  1
  Te  Te86  1  0.40824621  0.39818059  0.73760181  1
  Te  Te87  1  0.42480020  0.73958875  0.07977909  1
  Te  Te88  1  0.42730047  0.75786632  0.41788675  1
  Te  Te89  1  0.42536319  0.76608499  0.78069032  1
  Te  Te90  1  0.72541625  0.07795797  0.08625221  1
  Te  Te91  1  0.75623390  0.09153425  0.39897865  1
  Te  Te92  1  0.77018547  0.08349195  0.76321277  1
  Te  Te93  1  0.74403434  0.40369544  0.07425411  1
  Te  Te94  1  0.73506142  0.42658507  0.40952751  1
  Te  Te95  1  0.78221342  0.40307665  0.73361276  1
  Te  Te96  1  0.76685593  0.74828630  0.09215854  1
  Te  Te97  1  0.72539591  0.77622139  0.40777758  1
  Te  Te98  1  0.76265684  0.73442287  0.76963972  1
  Te  Te99  1  0.10390712  0.25439700  0.24745466  1
  Te  Te100  1  0.07209750  0.25352040  0.57331447  1
  Te  Te101  1  0.11289963  0.22101831  0.94557526  1
  Te  Te102  1  0.06725983  0.57690317  0.27571866  1
  Te  Te103  1  0.07758190  0.56417397  0.56283337  1
  Te  Te104  1  0.09523520  0.60416510  0.94057940  1
  Te  Te105  1  0.12517803  0.92924282  0.24961048  1
  Te  Te106  1  0.06267832  0.90590369  0.56755247  1
  Te  Te107  1  0.07134098  0.90394186  0.91967700  1
  Te  Te108  1  0.35958675  0.25073759  0.21934282  1
  Te  Te109  1  0.41299366  0.24334086  0.57975273  1
  Te  Te110  1  0.42145989  0.23897375  0.94300211  1
  Te  Te111  1  0.42697492  0.57044334  0.23145735  1
  Te  Te112  1  0.40907041  0.60603415  0.57383852  1
  Te  Te113  1  0.39429091  0.57148454  0.92412523  1
  Te  Te114  1  0.39884852  0.91557900  0.27144205  1
  Te  Te115  1  0.39081037  0.92403663  0.57461091  1
  Te  Te116  1  0.38196007  0.95962888  0.96300794  1
  Te  Te117  1  0.74081316  0.23454330  0.22906791  1
  Te  Te118  1  0.71808454  0.23823155  0.57262015  1
  Te  Te119  1  0.74845059  0.24086509  0.93554235  1
  Te  Te120  1  0.75866284  0.58263710  0.23612388  1
  Te  Te121  1  0.74136887  0.59751055  0.57267444  1
  Te  Te122  1  0.75276300  0.55255255  0.90586580  1
  Te  Te123  1  0.75861761  0.91674941  0.24201510  1
  Te  Te124  1  0.75429689  0.91696331  0.59363595  1
  Te  Te125  1  0.75561149  0.92272338  0.91134894  1
  Te  Te126  1  0.27683324  0.27704763  0.09716042  1
  Te  Te127  1  0.25062564  0.23051667  0.41772483  1
  Te  Te128  1  0.25125321  0.25642422  0.75770227  1
  Te  Te129  1  0.24916803  0.57606650  0.10191249  1
  Te  Te130  1  0.24766096  0.59048284  0.39493843  1
  Te  Te131  1  0.25291355  0.58955802  0.76110804  1
  Te  Te132  1  0.27309360  0.92478467  0.06243896  1
  Te  Te133  1  0.26988645  0.92239564  0.45318726  1
  Te  Te134  1  0.25913472  0.90125494  0.76969326  1
  Te  Te135  1  0.54595574  0.23610785  0.06376844  1
  Te  Te136  1  0.56568666  0.25631897  0.40477150  1
  Te  Te137  1  0.60387591  0.24198841  0.75830081  1
  Te  Te138  1  0.58368658  0.57463464  0.06876487  1
  Te  Te139  1  0.57035457  0.59495026  0.41308867  1
  Te  Te140  1  0.56728483  0.60596472  0.74876203  1
  Te  Te141  1  0.55039698  0.93160484  0.11083288  1
  Te  Te142  1  0.61584076  0.90588014  0.40860410  1
  Te  Te143  1  0.56913137  0.93793253  0.75490503  1
  Te  Te144  1  0.91904271  0.21551752  0.06756489  1
  Te  Te145  1  0.91396084  0.27221373  0.38344293  1
  Te  Te146  1  0.93844075  0.23204039  0.78021800  1
  Te  Te147  1  0.92864863  0.60706523  0.08410843  1
  Te  Te148  1  0.92117769  0.58102206  0.41019937  1
  Te  Te149  1  0.92235443  0.58635047  0.75283810  1
  Te  Te150  1  0.93765501  0.90136152  0.11859511  1
  Te  Te151  1  0.90650526  0.90223373  0.40228382  1
  Te  Te152  1  0.92509247  0.92619151  0.75860054  1
  Te  Te153  1  0.30168866  0.04798772  0.27933274  1
  Te  Te154  1  0.25025820  0.10273909  0.59400290  1
  Te  Te155  1  0.25322212  0.05902974  0.93523932  1
  Te  Te156  1  0.19939514  0.40976013  0.27533471  1
  Te  Te157  1  0.24799085  0.41207729  0.56262324  1
  Te  Te158  1  0.25212084  0.40588257  0.90529101  1
  Te  Te159  1  0.25061418  0.74122242  0.24557547  1
  Te  Te160  1  0.24310980  0.74446490  0.58344356  1
  Te  Te161  1  0.25957813  0.77703280  0.90663851  1
  Te  Te162  1  0.54343069  0.09615624  0.26971102  1
  Te  Te163  1  0.56206985  0.05464055  0.56971954  1
  Te  Te164  1  0.55786020  0.06021968  0.92106042  1
  Te  Te165  1  0.56553458  0.38969956  0.22568524  1
  Te  Te166  1  0.57499008  0.45297139  0.56568381  1
  Te  Te167  1  0.57574856  0.42601615  0.88953809  1
  Te  Te168  1  0.57342519  0.73647260  0.22448861  1
  Te  Te169  1  0.57798408  0.77854143  0.57684191  1
  Te  Te170  1  0.59996175  0.76341729  0.93391373  1
  Te  Te171  1  0.92619455  0.08438543  0.25618793  1
  Te  Te172  1  0.90594543  0.10001600  0.58323792  1
  Te  Te173  1  0.91859846  0.08072325  0.96250860  1
  Te  Te174  1  0.89777863  0.40237194  0.21432591  1
  Te  Te175  1  0.91135980  0.40818307  0.55840424  1
  Te  Te176  1  0.93885656  0.42455001  0.91844657  1
  Te  Te177  1  0.94629924  0.76652100  0.30359261  1
  Te  Te178  1  0.90817873  0.74506112  0.56452471  1
  Te  Te179  1  0.94041354  0.77139382  0.92107471  1
