# generated using pymatgen
data_In2Te3
_symmetry_space_group_name_H-M   'P 1'
_cell_length_a   18.76124015
_cell_length_b   18.75274930
_cell_length_c   18.76244093
_cell_angle_alpha   89.97336353
_cell_angle_beta   89.97922598
_cell_angle_gamma   89.98497069
_symmetry_Int_Tables_number   1
_chemical_formula_structural   In2Te3
_chemical_formula_sum   'In72 Te108'
_cell_volume   6601.09127904
_cell_formula_units_Z   36
loop_
 _symmetry_equiv_pos_site_id
 _symmetry_equiv_pos_as_xyz
  1  'x, y, z'
loop_
 _atom_site_type_symbol
 _atom_site_label
 _atom_site_symmetry_multiplicity
 _atom_site_fract_x
 _atom_site_fract_y
 _atom_site_fract_z
 _atom_site_occupancy
  In  In0  1  0.33514449  0.00322244  0.67861271  1
  In  In1  1  0.51643111  0.65995850  0.13851498  1
  In  In2  1  0.66041585  -0.00249637  -0.01390506  1
  In  In3  1  0.81461289  0.49844140  0.34154200  1
  In  In4  1  0.83672199  0.18543337  0.35654418  1
  In  In5  1  0.15285435  0.16617056  0.34573818  1
  In  In6  1  0.64164154  0.82338135  0.82310428  1
  In  In7  1  0.49060313  0.30553490  0.84453025  1
  In  In8  1  0.33492161  0.33923714  0.30085665  1
  In  In9  1  -0.02276946  0.33825872  -0.01144747  1
  In  In10  1  0.48039862  0.35256582  0.14127846  1
  In  In11  1  -0.01886673  0.67842826  0.32930422  1
  In  In12  1  0.85852663  0.50247348  0.67989406  1
  In  In13  1  0.66286198  0.33050096  0.34517611  1
  In  In14  1  -0.00226278  0.33637339  0.65713763  1
  In  In15  1  0.51817287  0.50461270  0.31679861  1
  In  In16  1  0.16331342  0.84427395  0.32402755  1
  In  In17  1  0.82006028  0.33304168  0.16093172  1
  In  In18  1  0.32187199  0.30265533  0.68765029  1
  In  In19  1  0.16383120  -0.02369293  0.15475849  1
  In  In20  1  0.49768188  0.32040649  0.50332449  1
  In  In21  1  0.66097008  0.82493574  0.15739563  1
  In  In22  1  0.18995014  0.15773471  -0.00610514  1
  In  In23  1  0.33101683  0.83971589  0.13541920  1
  In  In24  1  0.00727683  0.80691205  0.83737476  1
  In  In25  1  0.34185468  0.66943378  0.32922857  1
  In  In26  1  0.35147360  0.15953469  0.49780740  1
  In  In27  1  0.66033460  0.65661309  0.31376077  1
  In  In28  1  0.18873920  0.48416077  -0.01478293  1
  In  In29  1  0.16822312  0.31284656  0.17514404  1
  In  In30  1  0.15014571  0.32266464  0.50861008  1
  In  In31  1  0.34985916  0.16934886  0.15981028  1
  In  In32  1  0.14719383  0.49860643  0.68188112  1
  In  In33  1  0.84937554  0.35373192  0.82723714  1
  In  In34  1  0.15860436  0.01053365  0.50549531  1
  In  In35  1  0.34179756  0.83387813  0.52089430  1
  In  In36  1  0.01972271  0.64988067  0.00892929  1
  In  In37  1  0.48684932  0.66394059  0.84437572  1
  In  In38  1  0.83220074  0.02326197  0.17651138  1
  In  In39  1  0.65535463  0.33825499  0.01419091  1
  In  In40  1  0.17206253  0.67190048  0.84478209  1
  In  In41  1  0.48375506  0.83707167  0.67865992  1
  In  In42  1  -0.01705259  0.84756444  0.51596627  1
  In  In43  1  0.50238389  0.00210148  0.16607770  1
  In  In44  1  0.82023421  0.18346691  0.63490030  1
  In  In45  1  0.19463319  0.82935437  -0.00791342  1
  In  In46  1  0.16151885  0.66181181  0.52727122  1
  In  In47  1  0.16912865  0.64276787  0.13217985  1
  In  In48  1  0.47722634  -0.02168157  0.84517549  1
  In  In49  1  0.85926956  0.82950761  0.33493726  1
  In  In50  1  0.02683027  -0.00145155  0.03176532  1
  In  In51  1  0.33990823  0.50665861  0.84241375  1
  In  In52  1  0.50475410  0.65365694  0.48900975  1
  In  In53  1  0.01271238  0.15837563  0.84781739  1
  In  In54  1  0.20025995  0.00950073  0.84111953  1
  In  In55  1  0.83953703  0.67015407  0.50683179  1
  In  In56  1  0.66329418  0.86228228  0.49284938  1
  In  In57  1  0.82331601  0.02104406  0.82135069  1
  In  In58  1  0.34011185  0.51189742  0.51103766  1
  In  In59  1  0.14963996  0.46290534  0.34554568  1
  In  In60  1  -0.01086729  0.83329608  0.19806538  1
  In  In61  1  0.49971434  0.49454160  0.63754076  1
  In  In62  1  0.81580218  0.82380091  0.65960630  1
  In  In63  1  0.67423790  0.65806184  0.66429206  1
  In  In64  1  0.66350969  0.01822035  0.33664934  1
  In  In65  1  -0.00650366  0.50192984  0.17193739  1
  In  In66  1  0.68099251  0.49455545  0.85042505  1
  In  In67  1  0.35357091  0.02233116  0.33351674  1
  In  In68  1  0.66193663  0.16545610  0.81449047  1
  In  In69  1  0.82382355  0.17407546  0.01496082  1
  In  In70  1  -0.01047002  0.01076296  0.66156384  1
  In  In71  1  0.83908094  0.80117683  -0.00407907  1
  Te  Te72  1  0.09460366  0.11136411  0.10584603  1
  Te  Te73  1  0.05926517  0.09663151  0.43765754  1
  Te  Te74  1  0.09725166  0.07912992  0.74999820  1
  Te  Te75  1  0.08526928  0.41481465  0.08403456  1
  Te  Te76  1  0.04235026  0.39609122  0.42969748  1
  Te  Te77  1  0.06886641  0.40656799  0.76583881  1
  Te  Te78  1  0.08282019  0.77253673  0.08644636  1
  Te  Te79  1  0.08133592  0.75880468  0.42088810  1
  Te  Te80  1  0.09318803  0.74032255  0.73851466  1
  Te  Te81  1  0.42463368  0.08289255  0.06687638  1
  Te  Te82  1  0.45497120  0.08335959  0.42201973  1
  Te  Te83  1  0.43864349  0.08488832  0.74851253  1
  Te  Te84  1  0.40734646  0.45725144  0.06610850  1
  Te  Te85  1  0.41747296  0.42443746  0.40997923  1
  Te  Te86  1  0.41987806  0.41472466  0.74107014  1
  Te  Te87  1  0.41958769  0.74607722  0.06263671  1
  Te  Te88  1  0.42735539  0.76241919  0.41423744  1
  Te  Te89  1  0.39830019  0.76606334  0.77715396  1
  Te  Te90  1  0.72246013  0.08994383  0.09186988  1
  Te  Te91  1  0.74660372  0.09289566  0.43959678  1
  Te  Te92  1  0.73437546  0.07503762  0.71367394  1
  Te  Te93  1  0.76458098  0.42703228  0.06057976  1
  Te  Te94  1  0.76931686  0.38837361  0.43287354  1
  Te  Te95  1  0.74038107  0.41063806  0.73895739  1
  Te  Te96  1  0.72987920  0.72427528  0.06794480  1
  Te  Te97  1  0.74641998  0.74791242  0.41324134  1
  Te  Te98  1  0.75426558  0.73513850  0.76860218  1
  Te  Te99  1  0.06888336  0.26965796  0.27712102  1
  Te  Te100  1  0.08286628  0.22940649  0.60008281  1
  Te  Te101  1  0.09381973  0.25975115  0.92584895  1
  Te  Te102  1  0.08808823  0.59233782  0.25770263  1
  Te  Te103  1  0.06554942  0.56191028  0.57590849  1
  Te  Te104  1  0.08468000  0.56109023  0.90377692  1
  Te  Te105  1  0.06429724  0.94647970  0.26936243  1
  Te  Te106  1  0.09271501  0.91119722  0.60112995  1
  Te  Te107  1  0.08569787  0.92002305  0.91273025  1
  Te  Te108  1  0.44148171  0.24401752  0.25654583  1
  Te  Te109  1  0.43177340  0.22973407  0.60812947  1
  Te  Te110  1  0.37883164  0.25744541  0.92835789  1
  Te  Te111  1  0.41603416  0.57892603  0.23286298  1
  Te  Te112  1  0.40856111  0.61428684  0.60105190  1
  Te  Te113  1  0.43958842  0.55788599  0.94520054  1
  Te  Te114  1  0.40905160  0.90893525  0.24756841  1
  Te  Te115  1  0.43442077  0.94076454  0.57645672  1
  Te  Te116  1  0.38710421  0.91593837  0.94401862  1
  Te  Te117  1  0.73912900  0.23837240  0.24727783  1
  Te  Te118  1  0.70861832  0.25893468  0.56844743  1
  Te  Te119  1  0.75071739  0.25510288  0.90931630  1
  Te  Te120  1  0.74433547  0.56876577  0.23083490  1
  Te  Te121  1  0.75351299  0.56601424  0.57651031  1
  Te  Te122  1  0.70856180  0.60195444  0.94892674  1
  Te  Te123  1  0.74887897  0.90967151  0.25089429  1
  Te  Te124  1  0.76916817  0.93053136  0.56931192  1
  Te  Te125  1  0.76013057  0.90812510  0.91067735  1
  Te  Te126  1  0.27232792  0.26950571  0.07240402  1
  Te  Te127  1  0.26465730  0.25908463  0.41385766  1
  Te  Te128  1  0.23738984  0.22837859  0.78188470  1
  Te  Te129  1  0.28187899  0.57374836  0.06297763  1
  Te  Te130  1  0.24495444  0.58225147  0.41134186  1
  Te  Te131  1  0.25495755  0.58608846  0.74310666  1
  Te  Te132  1  0.27428890  0.95931347  0.04447919  1
  Te  Te133  1  0.25714350  0.92252290  0.41624334  1
  Te  Te134  1  0.26018240  0.90265955  0.75895569  1
  Te  Te135  1  0.56027042  0.24522612  0.07724784  1
  Te  Te136  1  0.58427485  0.22405079  0.42182658  1
  Te  Te137  1  0.58718115  0.26846739  0.73876718  1
  Te  Te138  1  0.61969295  0.57554678  0.07466866  1
  Te  Te139  1  0.60802872  0.56260798  0.42603462  1
  Te  Te140  1  0.57820913  0.57607229  0.75159472  1
  Te  Te141  1  0.56913131  0.90455423  0.06511666  1
  Te  Te142  1  0.56529336  0.92844780  0.40576308  1
  Te  Te143  1  0.58725131  0.93383057  0.73708438  1
  Te  Te144  1  0.93004485  0.24260127  0.09846765  1
  Te  Te145  1  0.94034914  0.27715974  0.41111601  1
  Te  Te146  1  0.90703079  0.22664698  0.76050141  1
  Te  Te147  1  0.90926334  0.58408161  0.08187479  1
  Te  Te148  1  0.92423353  0.57393200  0.42321965  1
  Te  Te149  1  0.90263812  0.60077593  0.77688610  1
  Te  Te150  1  0.90463019  0.90941678  0.08634313  1
  Te  Te151  1  0.91265566  0.93589547  0.42110926  1
  Te  Te152  1  0.91393835  0.91276225  0.75864667  1
  Te  Te153  1  0.24500948  0.08349425  0.24503583  1
  Te  Te154  1  0.24841899  0.09822609  0.59193940  1
  Te  Te155  1  0.29983140  0.12608653  0.88366908  1
  Te  Te156  1  0.24545747  0.43743672  0.22860272  1
  Te  Te157  1  0.25594136  0.40900330  0.58663918  1
  Te  Te158  1  0.26151810  0.38976808  0.89410432  1
  Te  Te159  1  0.24454032  0.74855342  0.23663122  1
  Te  Te160  1  0.24942691  0.75296947  0.60201802  1
  Te  Te161  1  0.28438296  0.73716107  0.91919310  1
  Te  Te162  1  0.58493756  0.09965860  0.24113503  1
  Te  Te163  1  0.63271105  0.13103480  0.54216253  1
  Te  Te164  1  0.56857531  0.09182052  0.91097541  1
  Te  Te165  1  0.59769290  0.41045960  0.23075626  1
  Te  Te166  1  0.59860005  0.40916985  0.56874366  1
  Te  Te167  1  0.56614000  0.41733351  0.91845315  1
  Te  Te168  1  0.56300919  0.75568889  0.25338785  1
  Te  Te169  1  0.58558131  0.75478393  0.58489486  1
  Te  Te170  1  0.56793586  0.75526157  0.93029123  1
  Te  Te171  1  0.92060186  0.09769777  0.26557396  1
  Te  Te172  1  0.91763685  0.09587158  0.56397180  1
  Te  Te173  1  0.91505725  0.07330746  0.93791351  1
  Te  Te174  1  0.91068632  0.40882654  0.25801116  1
  Te  Te175  1  0.88611004  0.39618632  0.57967268  1
  Te  Te176  1  0.90380531  0.45085793  0.92552282  1
  Te  Te177  1  0.88259144  0.72554382  0.22314172  1
  Te  Te178  1  0.93126588  0.73649164  0.60848139  1
  Te  Te179  1  0.91058986  0.70292549  0.89835321  1
