# generated using pymatgen
data_In2Te3
_symmetry_space_group_name_H-M   'P 1'
_cell_length_a   19.00011041
_cell_length_b   18.96037080
_cell_length_c   18.98869288
_cell_angle_alpha   90.13496970
_cell_angle_beta   89.80964252
_cell_angle_gamma   90.01275846
_symmetry_Int_Tables_number   1
_chemical_formula_structural   In2Te3
_chemical_formula_sum   'In72 Te108'
_cell_volume   6840.60336132
_cell_formula_units_Z   36
loop_
 _symmetry_equiv_pos_site_id
 _symmetry_equiv_pos_as_xyz
  1  'x, y, z'
loop_
 _atom_site_type_symbol
 _atom_site_label
 _atom_site_symmetry_multiplicity
 _atom_site_fract_x
 _atom_site_fract_y
 _atom_site_fract_z
 _atom_site_occupancy
  In  In0  1  0.17110113  0.83539262  0.67032525  1
  In  In1  1  -0.01720171  0.32388763  -0.01604045  1
  In  In2  1  0.66310297  0.84651617  0.16823280  1
  In  In3  1  -0.00548631  0.70747082  0.03730517  1
  In  In4  1  0.01681061  0.01484756  0.64637341  1
  In  In5  1  0.34202000  0.50623261  0.50051558  1
  In  In6  1  0.48496378  -0.01316603  0.15881908  1
  In  In7  1  0.83140547  0.31262366  0.49750146  1
  In  In8  1  0.52267052  0.34280569  0.14777543  1
  In  In9  1  0.66024447  0.49724954  0.52453801  1
  In  In10  1  0.57108255  0.00728457  0.78106815  1
  In  In11  1  0.68019762  -0.00304674  0.32759458  1
  In  In12  1  -0.00828991  0.14721977  0.81616123  1
  In  In13  1  0.80388986  -0.00619404  0.83902008  1
  In  In14  1  0.37066899  -0.02600510  -0.02875102  1
  In  In15  1  0.82401965  -0.01473855  0.49047846  1
  In  In16  1  0.67544165  0.67462154  0.69044175  1
  In  In17  1  0.34598915  0.52788535  0.83197894  1
  In  In18  1  0.32595813  0.83110750  0.16565779  1
  In  In19  1  0.18810649  0.12659063  -0.00384592  1
  In  In20  1  0.19288343  0.50895825  0.68423774  1
  In  In21  1  -0.00294646  0.49975843  0.49158071  1
  In  In22  1  -0.01114934  0.14280511  0.45601919  1
  In  In23  1  0.66080356  0.51569863  0.82000889  1
  In  In24  1  0.47048954  0.66988317  0.18207007  1
  In  In25  1  0.63427302  0.68746089  -0.03841300  1
  In  In26  1  0.01074572  -0.04059891  0.01712618  1
  In  In27  1  0.17039033  0.19695452  0.69088913  1
  In  In28  1  0.81347745  0.16990021  0.68589818  1
  In  In29  1  0.69027907  0.50611865  0.18632514  1
  In  In30  1  -0.03434805  0.69695112  0.28963265  1
  In  In31  1  0.32273265  0.68547299  0.01308118  1
  In  In32  1  0.00092950  0.84486726  0.83625748  1
  In  In33  1  0.37210384  0.31250032  -0.02238573  1
  In  In34  1  0.69504113  0.15262290  0.18450159  1
  In  In35  1  0.81604425  0.15365640  0.00661968  1
  In  In36  1  0.81104457  0.82984290  -0.00390728  1
  In  In37  1  0.49866775  0.49933306  0.00803917  1
  In  In38  1  0.82520902  0.33146798  0.17120099  1
  In  In39  1  0.16699909  0.83832874  0.33150078  1
  In  In40  1  0.81723266  0.36163490  0.83657078  1
  In  In41  1  0.36792961  0.80002642  0.81240670  1
  In  In42  1  0.01589696  0.52777222  0.83998178  1
  In  In43  1  0.33545804  0.16611940  0.49194411  1
  In  In44  1  0.35714579  -0.01750285  0.65840688  1
  In  In45  1  0.52418934  0.31850098  0.53027629  1
  In  In46  1  -0.01710129  -0.00679596  0.31269430  1
  In  In47  1  0.66872489  0.15185127  0.50717446  1
  In  In48  1  0.66561270  0.32504886  -0.00387024  1
  In  In49  1  0.32936660  0.16683960  0.16166120  1
  In  In50  1  0.51567861  0.66110224  0.53421076  1
  In  In51  1  -0.00696865  0.51747935  0.15184317  1
  In  In52  1  0.00258943  0.32960715  0.62764710  1
  In  In53  1  0.49961316  0.49701735  0.34429028  1
  In  In54  1  0.16614524  0.50936968  0.00819759  1
  In  In55  1  0.82907233  0.50074628  0.34617748  1
  In  In56  1  0.47611537  0.15594084  0.35513197  1
  In  In57  1  0.52025649  0.16717057  0.67527351  1
  In  In58  1  0.13300566  0.28426025  0.17799637  1
  In  In59  1  0.51926622  0.85507689  0.32285824  1
  In  In60  1  0.15609190  0.33030582  0.47858540  1
  In  In61  1  0.33347700  0.35118245  0.70028968  1
  In  In62  1  0.31680118  0.33816131  0.31582119  1
  In  In63  1  0.80319798  0.70322472  0.47774716  1
  In  In64  1  0.35546284  0.81355939  0.52263689  1
  In  In65  1  0.18158958  -0.00453119  0.51237814  1
  In  In66  1  0.16540168  0.34167359  0.84260346  1
  In  In67  1  0.33517537  0.65832053  0.35385433  1
  In  In68  1  0.81167020  0.84271833  0.68104891  1
  In  In69  1  0.17863666  0.01362667  0.16472937  1
  In  In70  1  -0.02748131  0.66791978  0.66023865  1
  In  In71  1  0.15915830  0.66969970  0.48204979  1
  Te  Te72  1  0.07184853  0.08377312  0.08310822  1
  Te  Te73  1  0.09812716  0.05505127  0.40178219  1
  Te  Te74  1  0.10790874  0.07188309  0.75394452  1
  Te  Te75  1  0.07918355  0.39945672  0.07310352  1
  Te  Te76  1  0.06954120  0.41423036  0.39701483  1
  Te  Te77  1  0.07882164  0.41213401  0.73995059  1
  Te  Te78  1  0.08600656  0.79390176  0.10919317  1
  Te  Te79  1  0.06423936  0.75155252  0.40094738  1
  Te  Te80  1  0.07250677  0.74675442  0.74423749  1
  Te  Te81  1  0.41753459  0.08750706  0.06877393  1
  Te  Te82  1  0.42548072  0.05555597  0.45155465  1
  Te  Te83  1  0.43115854  0.07105188  0.75400047  1
  Te  Te84  1  0.40216787  0.41186758  0.08779224  1
  Te  Te85  1  0.41483635  0.39547861  0.42631305  1
  Te  Te86  1  0.43556531  0.43296484  0.76290353  1
  Te  Te87  1  0.43581138  0.77304219  0.07930198  1
  Te  Te88  1  0.44254686  0.74460235  0.41547090  1
  Te  Te89  1  0.43910926  0.70270874  0.72505224  1
  Te  Te90  1  0.74723330  0.05376274  0.08904862  1
  Te  Te91  1  0.76653284  0.09593126  0.40485215  1
  Te  Te92  1  0.71665102  0.07287540  0.74638740  1
  Te  Te93  1  0.75303394  0.42138048  0.07394741  1
  Te  Te94  1  0.73791268  0.41027707  0.42732093  1
  Te  Te95  1  0.74442880  0.43072435  0.73288856  1
  Te  Te96  1  0.72029851  0.73769731  0.07589945  1
  Te  Te97  1  0.73173395  0.81310957  0.41031702  1
  Te  Te98  1  0.77702340  0.73792726  0.77685820  1
  Te  Te99  1  0.03560432  0.21958436  0.26940379  1
  Te  Te100  1  0.08590102  0.21572478  0.56508558  1
  Te  Te101  1  0.08321669  0.23197255  0.91089253  1
  Te  Te102  1  0.06705637  0.60273748  0.24500542  1
  Te  Te103  1  0.08816828  0.57715415  0.58748112  1
  Te  Te104  1  0.08195179  0.61478321  0.94138885  1
  Te  Te105  1  0.08230414  0.90032394  0.22132878  1
  Te  Te106  1  0.07845050  0.89964268  0.56945875  1
  Te  Te107  1  0.10134468  0.92101389  0.91020226  1
  Te  Te108  1  0.42843709  0.25917479  0.24431353  1
  Te  Te109  1  0.40199205  0.25330860  0.59772289  1
  Te  Te110  1  0.47693290  0.23543688  0.90576631  1
  Te  Te111  1  0.39488912  0.55818310  0.25477419  1
  Te  Te112  1  0.39787307  0.59808100  0.60255632  1
  Te  Te113  1  0.42749989  0.60701338  0.93161670  1
  Te  Te114  1  0.39747487  0.92206629  0.26470565  1
  Te  Te115  1  0.45617532  0.88077889  0.61055091  1
  Te  Te116  1  0.46410034  0.88635586  0.89117482  1
  Te  Te117  1  0.75351229  0.25260718  0.27126197  1
  Te  Te118  1  0.72958681  0.25954480  0.59833061  1
  Te  Te119  1  0.75080748  0.24047956  0.90164888  1
  Te  Te120  1  0.75747757  0.60412965  0.27159929  1
  Te  Te121  1  0.75526331  0.60052874  0.57973797  1
  Te  Te122  1  0.73108954  0.58444835  0.92882852  1
  Te  Te123  1  0.77307351  0.88820533  0.27080018  1
  Te  Te124  1  0.73403049  0.93796534  0.59785443  1
  Te  Te125  1  0.71007778  0.89859488  0.90587453  1
  Te  Te126  1  0.24518018  0.24960986  0.06605053  1
  Te  Te127  1  0.23966451  0.23340080  0.39604865  1
  Te  Te128  1  0.27466385  0.24437969  0.78940956  1
  Te  Te129  1  0.24479688  0.59443011  0.09732353  1
  Te  Te130  1  0.23373049  0.55886065  0.40934257  1
  Te  Te131  1  0.23269491  0.60826069  0.78336313  1
  Te  Te132  1  0.26042660  0.92666228  0.07083291  1
  Te  Te133  1  0.26503301  0.89665937  0.43268873  1
  Te  Te134  1  0.26879346  0.90852334  0.75631543  1
  Te  Te135  1  0.59835143  0.22623308  0.08907583  1
  Te  Te136  1  0.58524499  0.24274892  0.41516314  1
  Te  Te137  1  0.57450692  0.24631447  0.78498676  1
  Te  Te138  1  0.57093804  0.57382119  0.11688024  1
  Te  Te139  1  0.59041332  0.58770596  0.42275428  1
  Te  Te140  1  0.55870552  0.60850584  0.75861844  1
  Te  Te141  1  0.59740795  0.94105507  0.07631664  1
  Te  Te142  1  0.60639165  0.91362542  0.42780629  1
  Te  Te143  1  0.59224215  0.88878641  0.69121647  1
  Te  Te144  1  0.91231867  0.23851048  0.08607642  1
  Te  Te145  1  0.93717716  0.27023575  0.40054265  1
  Te  Te146  1  0.92396758  0.26432501  0.74795353  1
  Te  Te147  1  0.90205771  0.60299023  0.07864159  1
  Te  Te148  1  0.91482319  0.60692043  0.42249343  1
  Te  Te149  1  0.90927985  0.57436258  0.75243192  1
  Te  Te150  1  0.89656816  0.90400400  0.09582958  1
  Te  Te151  1  0.92424717  0.90875814  0.41720120  1
  Te  Te152  1  0.92072361  0.94302910  0.74110820  1
  Te  Te153  1  0.26126593  0.08509115  0.26213825  1
  Te  Te154  1  0.25494545  0.08769673  0.60804626  1
  Te  Te155  1  0.29020861  0.07774268  0.90384633  1
  Te  Te156  1  0.20709741  0.39536431  0.23947703  1
  Te  Te157  1  0.24238639  0.40268290  0.58156197  1
  Te  Te158  1  0.26275130  0.42381331  0.92291619  1
  Te  Te159  1  0.24932736  0.73560015  0.25599508  1
  Te  Te160  1  0.24714691  0.73114155  0.58893353  1
  Te  Te161  1  0.25820196  0.75416884  0.90091648  1
  Te  Te162  1  0.56695054  0.07421766  0.25867232  1
  Te  Te163  1  0.55511798  0.07611928  0.56323741  1
  Te  Te164  1  0.56874377  0.10999098  0.88893610  1
  Te  Te165  1  0.59457622  0.41215253  0.26147753  1
  Te  Te166  1  0.55543994  0.43649103  0.60910876  1
  Te  Te167  1  0.58189769  0.41824919  0.91325131  1
  Te  Te168  1  0.58597311  0.74160716  0.25082947  1
  Te  Te169  1  0.61301272  0.76078069  0.58568087  1
  Te  Te170  1  0.59718450  0.79507718  0.86889485  1
  Te  Te171  1  0.93142616  0.10990090  0.24460948  1
  Te  Te172  1  0.90612756  0.10129179  0.58490194  1
  Te  Te173  1  0.91569167  0.06646698  0.91949693  1
  Te  Te174  1  0.91620578  0.42570540  0.24698597  1
  Te  Te175  1  0.89743743  0.42512377  0.57895209  1
  Te  Te176  1  0.91458562  0.44120675  0.92048609  1
  Te  Te177  1  0.88839533  0.79584779  0.21313439  1
  Te  Te178  1  0.89824861  0.76988295  0.57817944  1
  Te  Te179  1  0.90899532  0.75246486  0.90991137  1
