# generated using pymatgen
data_In2Te3
_symmetry_space_group_name_H-M   'P 1'
_cell_length_a   18.93639731
_cell_length_b   18.94695225
_cell_length_c   18.93227004
_cell_angle_alpha   89.98398511
_cell_angle_beta   90.07881247
_cell_angle_gamma   89.93362181
_symmetry_Int_Tables_number   1
_chemical_formula_structural   In2Te3
_chemical_formula_sum   'In72 Te108'
_cell_volume   6792.64141259
_cell_formula_units_Z   36
loop_
 _symmetry_equiv_pos_site_id
 _symmetry_equiv_pos_as_xyz
  1  'x, y, z'
loop_
 _atom_site_type_symbol
 _atom_site_label
 _atom_site_symmetry_multiplicity
 _atom_site_fract_x
 _atom_site_fract_y
 _atom_site_fract_z
 _atom_site_occupancy
  In  In0  1  0.32950922  0.17466021  0.82877661  1
  In  In1  1  0.51350350  0.84010075  0.30895015  1
  In  In2  1  0.32320776  0.34118648  -0.00378688  1
  In  In3  1  0.34031091  0.02415284  0.65471798  1
  In  In4  1  0.70097468  0.65361608  0.70619269  1
  In  In5  1  0.85812516  0.17618754  0.35726776  1
  In  In6  1  0.67250997  0.67193394  0.31082168  1
  In  In7  1  0.32200719  0.16045133  0.16225434  1
  In  In8  1  -0.01847548  0.49877385  0.15676396  1
  In  In9  1  0.00857729  0.51264679  0.86091049  1
  In  In10  1  0.16940329  -0.00508579  0.84705050  1
  In  In11  1  0.15953375  0.02814984  0.48556284  1
  In  In12  1  0.15099009  0.34464926  0.18033270  1
  In  In13  1  0.64836734  0.01171657  -0.00595561  1
  In  In14  1  0.85160983  0.03531953  0.49874341  1
  In  In15  1  0.80699814  -0.01693110  0.17077086  1
  In  In16  1  0.15882966  0.32752166  0.84569409  1
  In  In17  1  0.68863627  0.48532822  0.46591286  1
  In  In18  1  0.86608259  0.17414004  -0.00991596  1
  In  In19  1  0.86548972  0.66859726  0.49782827  1
  In  In20  1  0.49239968  0.00113122  0.15543590  1
  In  In21  1  0.69466815  0.51170610  0.15441271  1
  In  In22  1  0.50855220  0.33396028  0.16078434  1
  In  In23  1  0.00074582  0.68065255  0.26809414  1
  In  In24  1  0.01327790  0.01584088  0.35457553  1
  In  In25  1  0.82836211  0.66995976  0.85689226  1
  In  In26  1  0.49750369  0.66984910  0.83949000  1
  In  In27  1  0.34752945  0.69350775  0.31634808  1
  In  In28  1  0.17308123  0.00516149  0.16323672  1
  In  In29  1  0.17323450  0.49197193  0.34380933  1
  In  In30  1  0.30071908  0.85514555  0.50738802  1
  In  In31  1  0.85794195  0.81291894  0.29659481  1
  In  In32  1  0.70319754  0.33237650  0.34806545  1
  In  In33  1  0.85887154  0.33728044  0.84040320  1
  In  In34  1  0.49257772  0.15163158  0.33212441  1
  In  In35  1  -0.00852929  -0.00492708  -0.01127722  1
  In  In36  1  0.15148153  0.66873303  0.85903845  1
  In  In37  1  0.33945755  0.46296363  0.81402058  1
  In  In38  1  0.00042461  -0.02169512  0.69039010  1
  In  In39  1  0.31838837  0.67141472  -0.01742906  1
  In  In40  1  0.35061142  0.19688238  0.51097200  1
  In  In41  1  0.65715130  0.34059172  -0.00015718  1
  In  In42  1  0.48764620  0.48977462  0.33268792  1
  In  In43  1  0.14116111  0.30770303  0.49434807  1
  In  In44  1  0.00624758  0.49765140  0.49468489  1
  In  In45  1  0.67648272  0.65076279  -0.00315560  1
  In  In46  1  0.83809217  0.50323287  0.67035116  1
  In  In47  1  0.66576949  0.82547262  0.51012736  1
  In  In48  1  0.34294957  -0.01770269  -0.03223398  1
  In  In49  1  0.50053893  0.80159654  0.69834790  1
  In  In50  1  0.36333560  0.66592100  0.68900705  1
  In  In51  1  0.65424894  0.50663249  0.85171311  1
  In  In52  1  0.29358851  0.47394574  0.51293604  1
  In  In53  1  0.50475973  -0.00207123  0.51633067  1
  In  In54  1  0.67018168  0.31164817  0.66857875  1
  In  In55  1  0.66050794  0.15110195  0.82563300  1
  In  In56  1  0.16190925  0.83042798  0.28154752  1
  In  In57  1  0.67669775  0.00304527  0.66345856  1
  In  In58  1  0.67749942  0.16097719  0.50954640  1
  In  In59  1  0.00433590  0.17916083  0.82263370  1
  In  In60  1  0.34957016  0.84604826  0.13781991  1
  In  In61  1  0.80603829  0.83745557  -0.00361268  1
  In  In62  1  0.66951839  0.83690422  0.83896666  1
  In  In63  1  0.31634542  0.51015572  0.15757453  1
  In  In64  1  -0.00158194  0.16607103  0.15984879  1
  In  In65  1  0.16028255  0.49214125  0.67995836  1
  In  In66  1  0.17152469  0.81469374  0.69597406  1
  In  In67  1  0.47492919  0.65813378  0.50678250  1
  In  In68  1  0.51134817  0.33384862  0.52186221  1
  In  In69  1  0.15577374  0.65421141  0.49687662  1
  In  In70  1  0.00809411  0.84111721  0.50869515  1
  In  In71  1  0.66767315  0.18323928  0.17234918  1
  Te  Te72  1  0.08609605  0.08495879  0.06712351  1
  Te  Te73  1  0.09867389  0.12835501  0.39359296  1
  Te  Te74  1  0.09615882  0.08233852  0.74746943  1
  Te  Te75  1  0.06729330  0.40792124  0.07482640  1
  Te  Te76  1  0.06526461  0.39993254  0.39527312  1
  Te  Te77  1  0.06061307  0.41207136  0.75732825  1
  Te  Te78  1  0.07287585  0.77011458  0.17264662  1
  Te  Te79  1  0.09951177  0.76504783  0.41240601  1
  Te  Te80  1  0.06671571  0.73586965  0.75768898  1
  Te  Te81  1  0.40818926  0.08571296  0.06347904  1
  Te  Te82  1  0.40659414  0.07555673  0.43080694  1
  Te  Te83  1  0.42226674  0.07760044  0.76253660  1
  Te  Te84  1  0.41909967  0.42560295  0.08097679  1
  Te  Te85  1  0.41131144  0.40971196  0.43450062  1
  Te  Te86  1  0.41267267  0.39440421  0.70945142  1
  Te  Te87  1  0.41989931  0.73992588  0.06625518  1
  Te  Te88  1  0.41858957  0.77478942  0.42371364  1
  Te  Te89  1  0.38528013  0.77871415  0.79897222  1
  Te  Te90  1  0.76155292  0.09796456  0.07880821  1
  Te  Te91  1  0.74484336  0.08215896  0.40019791  1
  Te  Te92  1  0.76063393  0.10358886  0.72796451  1
  Te  Te93  1  0.75308267  0.38933341  0.09934283  1
  Te  Te94  1  0.80847524  0.41487000  0.41341278  1
  Te  Te95  1  0.74637900  0.42031804  0.75926677  1
  Te  Te96  1  0.73757966  0.74663229  0.09272195  1
  Te  Te97  1  0.75886636  0.74823285  0.41284851  1
  Te  Te98  1  0.77045994  0.78402238  0.73938935  1
  Te  Te99  1  0.07029582  0.24816156  0.26033198  1
  Te  Te100  1  0.04274658  0.23026473  0.57394302  1
  Te  Te101  1  0.07202811  0.24773424  0.93403812  1
  Te  Te102  1  0.09916876  0.56681106  0.23747360  1
  Te  Te103  1  0.07144355  0.58840923  0.60085548  1
  Te  Te104  1  0.05740915  0.61136485  0.96294963  1
  Te  Te105  1  0.05445830  0.92949140  0.23551794  1
  Te  Te106  1  0.11059312  0.91864440  0.59036774  1
  Te  Te107  1  0.06597005  0.90487199  0.89928619  1
  Te  Te108  1  0.41539333  0.24926714  0.24628941  1
  Te  Te109  1  0.42655424  0.26436795  0.62391816  1
  Te  Te110  1  0.41230640  0.27492305  0.90042219  1
  Te  Te111  1  0.42484538  0.58855737  0.23834938  1
  Te  Te112  1  0.40112140  0.55522087  0.58980399  1
  Te  Te113  1  0.40842800  0.56796124  0.90266222  1
  Te  Te114  1  0.40283105  0.92854168  0.25534390  1
  Te  Te115  1  0.42400369  0.89250176  0.59396660  1
  Te  Te116  1  0.42606243  0.87645684  0.91315575  1
  Te  Te117  1  0.78157616  0.25254719  0.24543802  1
  Te  Te118  1  0.76759834  0.26351859  0.56631288  1
  Te  Te119  1  0.75342352  0.24720956  0.91690320  1
  Te  Te120  1  0.77197456  0.56150398  0.27506107  1
  Te  Te121  1  0.75317865  0.59272623  0.56865637  1
  Te  Te122  1  0.77353754  0.55160713  0.93355248  1
  Te  Te123  1  0.73856768  0.89166743  0.26167138  1
  Te  Te124  1  0.76327400  0.92694377  0.56589386  1
  Te  Te125  1  0.75212090  0.94593133  0.90345848  1
  Te  Te126  1  0.23450316  0.25680802  0.08565630  1
  Te  Te127  1  0.26354722  0.27240830  0.41973919  1
  Te  Te128  1  0.22732778  0.24348474  0.74676297  1
  Te  Te129  1  0.23250703  0.57738077  0.05888374  1
  Te  Te130  1  0.27236248  0.59790808  0.41061405  1
  Te  Te131  1  0.24918212  0.58790352  0.75740613  1
  Te  Te132  1  0.23744099  0.91446116  0.06101862  1
  Te  Te133  1  0.22762209  0.92291614  0.39685350  1
  Te  Te134  1  0.25946365  0.92704259  0.74341817  1
  Te  Te135  1  0.56923795  0.23068321  0.06828050  1
  Te  Te136  1  0.58396171  0.24698292  0.41223406  1
  Te  Te137  1  0.58469699  0.27063839  0.77992720  1
  Te  Te138  1  0.58606705  0.56129886  0.07049610  1
  Te  Te139  1  0.57896489  0.58991518  0.41335739  1
  Te  Te140  1  0.57400198  0.57921851  0.74350497  1
  Te  Te141  1  0.59054950  0.91674440  0.08822219  1
  Te  Te142  1  0.58970612  0.91986331  0.41839678  1
  Te  Te143  1  0.58065616  0.92034800  0.74856853  1
  Te  Te144  1  0.93825227  0.27232434  0.07467986  1
  Te  Te145  1  0.91413785  0.22402295  0.48675530  1
  Te  Te146  1  0.90669698  0.24840694  0.73559761  1
  Te  Te147  1  0.92992630  0.61178665  0.07367073  1
  Te  Te148  1  0.95376050  0.60316187  0.39688929  1
  Te  Te149  1  0.91827467  0.59262409  0.76184433  1
  Te  Te150  1  0.90831028  0.91048874  0.08540788  1
  Te  Te151  1  0.91149389  0.91100381  0.41054548  1
  Te  Te152  1  0.90789764  0.87271035  0.72898869  1
  Te  Te153  1  0.24755861  0.08267694  0.26202849  1
  Te  Te154  1  0.24283649  0.11270101  0.58197009  1
  Te  Te155  1  0.24673819  0.09469011  0.92998257  1
  Te  Te156  1  0.26728166  0.40922617  0.25944693  1
  Te  Te157  1  0.22626019  0.37802298  0.60561831  1
  Te  Te158  1  0.23211199  0.43766977  0.91967426  1
  Te  Te159  1  0.25896714  0.73895189  0.20520319  1
  Te  Te160  1  0.25782112  0.73137143  0.58855082  1
  Te  Te161  1  0.21856706  0.77269504  0.93875443  1
  Te  Te162  1  0.59146397  0.07566024  0.24701363  1
  Te  Te163  1  0.57335314  0.10133531  0.60135490  1
  Te  Te164  1  0.55685474  0.07411775  0.89744159  1
  Te  Te165  1  0.59555040  0.40923973  0.26234577  1
  Te  Te166  1  0.61048099  0.42974994  0.58237869  1
  Te  Te167  1  0.56226084  0.40619715  0.90672639  1
  Te  Te168  1  0.56787589  0.73193153  0.22727805  1
  Te  Te169  1  0.58598487  0.72696277  0.59499409  1
  Te  Te170  1  0.58419852  0.75390987  0.93005174  1
  Te  Te171  1  0.90635860  0.07623507  0.24992866  1
  Te  Te172  1  0.95968350  0.08502665  0.58895136  1
  Te  Te173  1  0.91160823  0.07376779  0.88639540  1
  Te  Te174  1  0.88454559  0.45714987  0.26064723  1
  Te  Te175  1  0.91880694  0.41905816  0.58280853  1
  Te  Te176  1  0.94183224  0.40660787  0.94175165  1
  Te  Te177  1  0.87016059  0.70046388  0.18625128  1
  Te  Te178  1  0.91894007  0.76326321  0.59981346  1
  Te  Te179  1  0.91481874  0.75835255  0.93455222  1
