# generated using pymatgen
data_In2Te3
_symmetry_space_group_name_H-M   'P 1'
_cell_length_a   18.78939417
_cell_length_b   18.78071197
_cell_length_c   18.77587113
_cell_angle_alpha   90.01251906
_cell_angle_beta   89.88826884
_cell_angle_gamma   90.03102042
_symmetry_Int_Tables_number   1
_chemical_formula_structural   In2Te3
_chemical_formula_sum   'In72 Te108'
_cell_volume   6625.58188086
_cell_formula_units_Z   36
loop_
 _symmetry_equiv_pos_site_id
 _symmetry_equiv_pos_as_xyz
  1  'x, y, z'
loop_
 _atom_site_type_symbol
 _atom_site_label
 _atom_site_symmetry_multiplicity
 _atom_site_fract_x
 _atom_site_fract_y
 _atom_site_fract_z
 _atom_site_occupancy
  In  In0  1  0.01724356  0.33349617  0.67169299  1
  In  In1  1  0.52246824  0.15288521  -0.00890640  1
  In  In2  1  0.30087206  0.14814320  0.53392256  1
  In  In3  1  -0.00296013  0.49917714  0.16579238  1
  In  In4  1  0.82977028  0.82744542  -0.01863431  1
  In  In5  1  0.66184646  -0.00433417  -0.01434964  1
  In  In6  1  0.49174789  0.48577870  0.35178411  1
  In  In7  1  0.85906790  0.15492429  -0.00960147  1
  In  In8  1  0.79953096  0.31959211  0.16488961  1
  In  In9  1  0.68166217  0.14656609  0.83644725  1
  In  In10  1  0.49833232  0.83852596  0.68915939  1
  In  In11  1  0.86950575  0.67399764  0.53048312  1
  In  In12  1  0.33419049  -0.01584256  0.34852580  1
  In  In13  1  0.49895994  0.48214246  -0.01751348  1
  In  In14  1  0.16247413  0.34358628  0.18291043  1
  In  In15  1  0.66347468  0.51290774  0.50466776  1
  In  In16  1  0.49473934  0.66973593  0.14246186  1
  In  In17  1  0.00831027  0.49333899  0.50826790  1
  In  In18  1  0.50114867  0.14563387  0.68057106  1
  In  In19  1  0.03838710  0.65608847  0.35005950  1
  In  In20  1  0.16696393  0.00974216  0.15196049  1
  In  In21  1  0.50152601  0.16887259  0.31111186  1
  In  In22  1  -0.01613305  -0.00411907  0.34429185  1
  In  In23  1  0.00557221  0.16367619  0.52075935  1
  In  In24  1  0.82924957  0.83883541  0.67475754  1
  In  In25  1  0.32771270  0.50731683  0.81701628  1
  In  In26  1  0.16587559  0.50125806  0.67038303  1
  In  In27  1  0.80683543  0.48787297  0.33784241  1
  In  In28  1  0.67582611  0.18544867  0.17132282  1
  In  In29  1  0.64904851  0.50698316  0.16095394  1
  In  In30  1  0.49555590  0.68606366  0.53325666  1
  In  In31  1  0.65199503  0.01756370  0.36134660  1
  In  In32  1  0.68704217  0.15547200  0.51557192  1
  In  In33  1  0.84934993  0.83756885  0.35922208  1
  In  In34  1  0.84847281  0.69931368  0.14569228  1
  In  In35  1  0.67600343  0.83528692  0.14079940  1
  In  In36  1  0.17830256  0.80105528  -0.05903556  1
  In  In37  1  0.17150935  0.52220271  -0.02803390  1
  In  In38  1  0.33108875  0.35028071  -0.01594494  1
  In  In39  1  0.84421959  0.51971100  0.68887145  1
  In  In40  1  0.29836066  0.17563904  0.78898293  1
  In  In41  1  0.33396314  0.65746041  0.35284236  1
  In  In42  1  0.16949106  0.69753109  0.52332687  1
  In  In43  1  0.67922674  0.34240978  0.34160807  1
  In  In44  1  0.14303519  0.49715365  0.34362522  1
  In  In45  1  0.84147437  -0.01184795  0.18366839  1
  In  In46  1  0.84746606  -0.00222597  0.84093993  1
  In  In47  1  0.49977139  0.65713304  0.83665853  1
  In  In48  1  0.02368795  0.00390778  0.66598330  1
  In  In49  1  0.16518277  -0.01418777  0.82838777  1
  In  In50  1  -0.00452616  0.32403520  -0.02401798  1
  In  In51  1  0.48589426  0.51723912  0.66581394  1
  In  In52  1  0.34295742  -0.02119779  -0.01762029  1
  In  In53  1  0.34021643  0.83350803  0.17710494  1
  In  In54  1  0.84247241  0.34551370  0.82293018  1
  In  In55  1  0.48661161  -0.00835176  0.51690816  1
  In  In56  1  0.83416204  0.16640710  0.67103228  1
  In  In57  1  0.00189937  0.68283113  -0.03114639  1
  In  In58  1  0.81412651  0.53490594  -0.06022090  1
  In  In59  1  0.49109070  0.81894507  0.33792759  1
  In  In60  1  0.13867700  0.16408655  -0.00544271  1
  In  In61  1  0.69687676  0.68621437  0.34881061  1
  In  In62  1  0.48854686  0.33687470  0.49740525  1
  In  In63  1  0.34691797  0.17700542  0.16530139  1
  In  In64  1  0.64878971  0.34191143  -0.00094442  1
  In  In65  1  0.18304244  0.84401195  0.36675754  1
  In  In66  1  0.30785123  0.50079321  0.14823544  1
  In  In67  1  0.16824459  0.17558903  0.35926519  1
  In  In68  1  0.00889941  0.32158596  0.35222207  1
  In  In69  1  0.49999264  0.32803922  0.83376926  1
  In  In70  1  0.49267994  0.83626618  -0.04062237  1
  In  In71  1  0.00338244  0.84174566  0.15091074  1
  Te  Te72  1  0.05734295  0.07872277  0.08336030  1
  Te  Te73  1  0.08767081  0.06907055  0.43102299  1
  Te  Te74  1  0.10599853  0.09697451  0.74812747  1
  Te  Te75  1  0.09049343  0.42023530  0.07032486  1
  Te  Te76  1  0.10476428  0.39171082  0.44795941  1
  Te  Te77  1  0.06524023  0.44076462  0.76146087  1
  Te  Te78  1  0.09261472  0.74937293  0.07136825  1
  Te  Te79  1  0.06537713  0.77687192  0.43805017  1
  Te  Te80  1  0.05690194  0.71035935  0.76120286  1
  Te  Te81  1  0.42066847  0.07624494  0.07725654  1
  Te  Te82  1  0.41921704  0.09138990  0.41791110  1
  Te  Te83  1  0.38697443  0.06968481  0.73942019  1
  Te  Te84  1  0.41988655  0.41219672  0.09268239  1
  Te  Te85  1  0.39368888  0.44283639  0.45325078  1
  Te  Te86  1  0.40963591  0.40379063  0.73869320  1
  Te  Te87  1  0.40205809  0.75563117  0.06043156  1
  Te  Te88  1  0.39497251  0.76531716  0.44184980  1
  Te  Te89  1  0.40178745  0.73591845  0.75320752  1
  Te  Te90  1  0.74953758  0.08289452  0.07625069  1
  Te  Te91  1  0.77072323  0.06819980  0.42924871  1
  Te  Te92  1  0.75031991  0.05538773  0.73676541  1
  Te  Te93  1  0.75596203  0.43264289  0.06950493  1
  Te  Te94  1  0.76103055  0.40307016  0.45485712  1
  Te  Te95  1  0.74613993  0.41846134  0.74026855  1
  Te  Te96  1  0.73439377  0.72708736  0.04957374  1
  Te  Te97  1  0.75509451  0.77061610  0.46557051  1
  Te  Te98  1  0.76911372  0.73590481  0.76836193  1
  Te  Te99  1  0.07982663  0.23384510  0.24736512  1
  Te  Te100  1  0.11080216  0.24145916  0.59747859  1
  Te  Te101  1  0.09720456  0.25986982  0.89077304  1
  Te  Te102  1  0.10291002  0.58971880  0.22685639  1
  Te  Te103  1  0.07057917  0.60139927  0.59211423  1
  Te  Te104  1  0.09605293  0.60967294  0.87199629  1
  Te  Te105  1  0.09138877  0.91215743  0.25514298  1
  Te  Te106  1  0.12895918  0.90753121  0.61010259  1
  Te  Te107  1  0.07519970  0.90152720  0.91320207  1
  Te  Te108  1  0.40276276  0.26874112  0.26637193  1
  Te  Te109  1  0.41782168  0.23482230  0.58857283  1
  Te  Te110  1  0.40930516  0.23600296  0.91547605  1
  Te  Te111  1  0.41830679  0.58365088  0.24471966  1
  Te  Te112  1  0.39190252  0.59209258  0.57950617  1
  Te  Te113  1  0.39934038  0.58197421  0.92950733  1
  Te  Te114  1  0.43581940  0.92948164  0.24710802  1
  Te  Te115  1  0.39936500  0.91291730  0.60552223  1
  Te  Te116  1  0.40270641  0.90933768  0.86524106  1
  Te  Te117  1  0.76740022  0.23055482  0.28564297  1
  Te  Te118  1  0.73889779  0.25927073  0.60725540  1
  Te  Te119  1  0.75297392  0.25343010  0.92670564  1
  Te  Te120  1  0.75648823  0.59243328  0.23331458  1
  Te  Te121  1  0.75088769  0.60093240  0.59326526  1
  Te  Te122  1  0.72306789  0.60771818  0.84826230  1
  Te  Te123  1  0.74235295  0.90238824  0.26248016  1
  Te  Te124  1  0.72640324  0.87912248  0.57546672  1
  Te  Te125  1  0.73398354  0.90365693  0.88956260  1
  Te  Te126  1  0.24513216  0.25691250  0.08013373  1
  Te  Te127  1  0.27151807  0.25115419  0.43075755  1
  Te  Te128  1  0.23285352  0.27876559  0.70318148  1
  Te  Te129  1  0.24954064  0.60664384  0.06491531  1
  Te  Te130  1  0.23087420  0.58348906  0.43685848  1
  Te  Te131  1  0.25213397  0.60764893  0.73586070  1
  Te  Te132  1  0.24445189  0.90223736  0.07579879  1
  Te  Te133  1  0.25016839  0.93732814  0.46368529  1
  Te  Te134  1  0.22239285  0.87950473  0.73757825  1
  Te  Te135  1  0.56420661  0.25786707  0.09429086  1
  Te  Te136  1  0.58667218  0.24125220  0.41989623  1
  Te  Te137  1  0.59695482  0.24306591  0.75189904  1
  Te  Te138  1  0.58694094  0.58996615  0.04993628  1
  Te  Te139  1  0.57874934  0.60049574  0.40999897  1
  Te  Te140  1  0.59418198  0.58677935  0.74161533  1
  Te  Te141  1  0.56688919  0.91588290  0.07463940  1
  Te  Te142  1  0.57969933  0.90251917  0.43023359  1
  Te  Te143  1  0.57158351  0.93059250  0.77949722  1
  Te  Te144  1  0.91834684  0.25514147  0.08966214  1
  Te  Te145  1  0.91570544  0.24989871  0.43968352  1
  Te  Te146  1  0.93179239  0.23866664  0.76145081  1
  Te  Te147  1  0.92056925  0.58680017  0.06627170  1
  Te  Te148  1  0.91385826  0.57781611  0.40782396  1
  Te  Te149  1  0.93538783  0.62205422  0.75829629  1
  Te  Te150  1  0.91302218  0.92711357  0.06216891  1
  Te  Te151  1  0.93258999  0.91163787  0.45579228  1
  Te  Te152  1  0.94105946  0.91160294  0.75696882  1
  Te  Te153  1  0.25435317  0.08146873  0.25605973  1
  Te  Te154  1  0.21571866  0.03991739  0.59311888  1
  Te  Te155  1  0.25181077  0.08659247  0.92255479  1
  Te  Te156  1  0.25799939  0.42200809  0.27025449  1
  Te  Te157  1  0.24663988  0.39446880  0.60599546  1
  Te  Te158  1  0.23108129  0.40804835  0.88683136  1
  Te  Te159  1  0.24743475  0.74857707  0.26362289  1
  Te  Te160  1  0.24852220  0.78259338  0.61540082  1
  Te  Te161  1  0.27547969  0.73312014  0.85035769  1
  Te  Te162  1  0.59061287  0.07227229  0.23304289  1
  Te  Te163  1  0.59685647  0.06057744  0.59720171  1
  Te  Te164  1  0.55809826  0.05318459  0.87804322  1
  Te  Te165  1  0.57635961  0.40666117  0.24952338  1
  Te  Te166  1  0.57914427  0.41870628  0.58968699  1
  Te  Te167  1  0.60311386  0.43004435  0.88364509  1
  Te  Te168  1  0.58719169  0.74404130  0.24087961  1
  Te  Te169  1  0.59984767  0.76418929  0.60421197  1
  Te  Te170  1  0.59685172  0.75500060  0.89419009  1
  Te  Te171  1  0.91988824  0.09136736  0.25187726  1
  Te  Te172  1  0.90840854  0.06474209  0.58412289  1
  Te  Te173  1  0.95067176  0.08846018  0.89747042  1
  Te  Te174  1  0.91287330  0.40740549  0.25455319  1
  Te  Te175  1  0.91239481  0.41518878  0.59416041  1
  Te  Te176  1  0.93282203  0.44179650  0.90068515  1
  Te  Te177  1  0.93469488  0.74513334  0.26281033  1
  Te  Te178  1  0.94832549  0.76499636  0.61678042  1
  Te  Te179  1  0.89462535  0.73774115  0.87518437  1
