# generated using pymatgen
data_In2Te3
_symmetry_space_group_name_H-M   'P 1'
_cell_length_a   18.93414687
_cell_length_b   18.93810948
_cell_length_c   18.93128906
_cell_angle_alpha   89.86205716
_cell_angle_beta   90.05946969
_cell_angle_gamma   89.92840943
_symmetry_Int_Tables_number   1
_chemical_formula_structural   In2Te3
_chemical_formula_sum   'In72 Te108'
_cell_volume   6788.29516971
_cell_formula_units_Z   36
loop_
 _symmetry_equiv_pos_site_id
 _symmetry_equiv_pos_as_xyz
  1  'x, y, z'
loop_
 _atom_site_type_symbol
 _atom_site_label
 _atom_site_symmetry_multiplicity
 _atom_site_fract_x
 _atom_site_fract_y
 _atom_site_fract_z
 _atom_site_occupancy
  In  In0  1  0.04195247  0.15841591  0.16881985  1
  In  In1  1  0.00053893  0.82949367  0.49125399  1
  In  In2  1  0.01002333  -0.01178691  0.31134079  1
  In  In3  1  0.18170471  0.32214070  0.51030844  1
  In  In4  1  0.34026356  0.50048996  0.82759846  1
  In  In5  1  0.01676046  0.51218670  0.16147868  1
  In  In6  1  0.18900180  0.02533275  0.16446050  1
  In  In7  1  0.50446774  0.84942282  0.35154494  1
  In  In8  1  -0.04706251  0.86377241  0.81114714  1
  In  In9  1  0.82969724  0.81826541  0.32685215  1
  In  In10  1  0.47807420  0.87612988  0.66301069  1
  In  In11  1  0.49666393  0.01536412  0.15671141  1
  In  In12  1  0.84736867  0.72350109  0.14111278  1
  In  In13  1  0.83176999  0.17274029  -0.00049819  1
  In  In14  1  0.66858715  0.00871803  -0.03117222  1
  In  In15  1  0.14244606  0.65552865  0.48256567  1
  In  In16  1  0.64994151  0.63402805  0.32453933  1
  In  In17  1  0.33564823  0.70641176  0.67363373  1
  In  In18  1  0.50402966  0.66159884  0.50049765  1
  In  In19  1  0.16881317  -0.01258747  0.83538771  1
  In  In20  1  0.14630242  0.82825469  0.66195508  1
  In  In21  1  0.82467764  0.49385359  0.36628451  1
  In  In22  1  0.79746423  0.52240135  -0.00367110  1
  In  In23  1  0.66983700  -0.01645722  0.36320834  1
  In  In24  1  0.50076491  0.66521377  0.13493948  1
  In  In25  1  0.82922501  0.13678247  0.34498862  1
  In  In26  1  0.82398730  0.67739332  0.50227092  1
  In  In27  1  0.37703642  0.16095345  0.82225115  1
  In  In28  1  0.00887396  0.35811831  -0.02304207  1
  In  In29  1  0.79790977  0.33696518  0.82380957  1
  In  In30  1  -0.01555453  0.70014248  -0.01606241  1
  In  In31  1  0.00221655  0.15425657  0.85591636  1
  In  In32  1  0.17894862  0.46699333  0.31548180  1
  In  In33  1  0.17372519  -0.01386263  0.49636876  1
  In  In34  1  -0.02027275  -0.02795004  0.03718483  1
  In  In35  1  0.66438265  0.84284199  0.17006108  1
  In  In36  1  0.53273293  0.47665256  0.65557934  1
  In  In37  1  0.49361682  0.18529760  0.33547480  1
  In  In38  1  0.33712526  0.65829816  0.33180608  1
  In  In39  1  0.32986686  0.66780676  0.00027867  1
  In  In40  1  0.49973095  0.47283105  0.31914746  1
  In  In41  1  0.15970649  0.84006854  0.02045608  1
  In  In42  1  0.16384511  0.50944694  0.64256266  1
  In  In43  1  0.35160439  0.87109202  0.83871564  1
  In  In44  1  0.66530203  0.49032677  0.18007474  1
  In  In45  1  0.79135753  0.09330885  0.70691871  1
  In  In46  1  0.82542897  0.01730514  0.51300863  1
  In  In47  1  0.67577104  0.51336583  0.82537811  1
  In  In48  1  0.18214232  0.14410829  0.35350741  1
  In  In49  1  0.68756467  0.65381097  0.66474227  1
  In  In50  1  0.18173578  0.34855866  0.82792699  1
  In  In51  1  0.47377302  0.47218702  0.01421346  1
  In  In52  1  0.65900503  0.16556930  0.15471626  1
  In  In53  1  0.16468119  0.17377149  0.68964656  1
  In  In54  1  0.35563926  0.81198462  0.16500138  1
  In  In55  1  0.34941242  0.16167919  0.50799057  1
  In  In56  1  0.85398048  0.30386491  0.19097596  1
  In  In57  1  0.17414837  0.51904106  0.00549877  1
  In  In58  1  0.51911752  0.30504650  0.82158097  1
  In  In59  1  -0.07633921  0.57071252  0.83355273  1
  In  In60  1  0.66310298  0.83441404  0.82568086  1
  In  In61  1  -0.00399087  0.32589074  0.36138224  1
  In  In62  1  0.52109253  0.14721142  0.65111544  1
  In  In63  1  0.24865396  0.26185619  0.18721559  1
  In  In64  1  0.66752169  0.85269768  0.51597990  1
  In  In65  1  -0.03007342  0.51464596  0.50402721  1
  In  In66  1  -0.00542063  0.32892448  0.66501492  1
  In  In67  1  0.35955141  0.01506527  -0.01705917  1
  In  In68  1  0.14776236  0.67956884  0.84089799  1
  In  In69  1  0.36189935  0.48062304  0.50588620  1
  In  In70  1  0.79788133  0.31292018  0.52347711  1
  In  In71  1  0.66215378  0.33260434  0.01401398  1
  Te  Te72  1  0.09402285  0.07333762  0.05555167  1
  Te  Te73  1  0.06802615  0.07628160  0.42129847  1
  Te  Te74  1  0.07214148  0.07004178  0.75139726  1
  Te  Te75  1  0.09956057  0.40924590  0.08702676  1
  Te  Te76  1  0.08004382  0.42248299  0.44493121  1
  Te  Te77  1  0.08250932  0.42638146  0.74187987  1
  Te  Te78  1  0.09274043  0.72471966  0.07922441  1
  Te  Te79  1  0.10226799  0.77193645  0.40353937  1
  Te  Te80  1  0.05008184  0.75524853  0.75445406  1
  Te  Te81  1  0.40888633  0.11498937  0.08405636  1
  Te  Te82  1  0.41064335  0.07832073  0.40063329  1
  Te  Te83  1  0.42321904  0.06273397  0.72372695  1
  Te  Te84  1  0.41975075  0.39410121  0.12671280  1
  Te  Te85  1  0.41547478  0.38652806  0.40612664  1
  Te  Te86  1  0.43138078  0.41053025  0.74771488  1
  Te  Te87  1  0.43681737  0.76894111  0.04400505  1
  Te  Te88  1  0.41012424  0.75421220  0.42553401  1
  Te  Te89  1  0.43562901  0.76541740  0.76892359  1
  Te  Te90  1  0.75472599  0.07336445  0.08382369  1
  Te  Te91  1  0.71200160  0.10790240  0.44879969  1
  Te  Te92  1  0.66912277  0.05763697  0.79635088  1
  Te  Te93  1  0.77344769  0.39800463  0.09494991  1
  Te  Te94  1  0.73705073  0.38648239  0.40976346  1
  Te  Te95  1  0.73927658  0.42739408  0.72511125  1
  Te  Te96  1  0.71264101  0.73494966  0.07927352  1
  Te  Te97  1  0.71601443  0.75221321  0.40551363  1
  Te  Te98  1  0.76352931  0.75591151  0.74197469  1
  Te  Te99  1  0.09629772  0.25802307  0.26832465  1
  Te  Te100  1  0.07784403  0.23623057  0.57930478  1
  Te  Te101  1  0.10156029  0.25378368  0.91677223  1
  Te  Te102  1  0.09380896  0.57564730  0.26829669  1
  Te  Te103  1  0.05354211  0.60291468  0.59527773  1
  Te  Te104  1  0.06611779  0.57174253  0.90904097  1
  Te  Te105  1  0.11938438  0.92146341  0.24104973  1
  Te  Te106  1  0.06365882  0.93095971  0.58700172  1
  Te  Te107  1  0.06844710  0.90524520  0.91626709  1
  Te  Te108  1  0.46844948  0.27606318  0.21807678  1
  Te  Te109  1  0.43764494  0.25687182  0.58360515  1
  Te  Te110  1  0.41741482  0.26357881  0.92149632  1
  Te  Te111  1  0.42708842  0.57992328  0.23843239  1
  Te  Te112  1  0.40965961  0.59236141  0.60175639  1
  Te  Te113  1  0.42691615  0.58557823  0.91730832  1
  Te  Te114  1  0.41783548  0.92229757  0.24873633  1
  Te  Te115  1  0.37759731  0.90190279  0.56039444  1
  Te  Te116  1  0.46367543  0.95096529  0.89695084  1
  Te  Te117  1  0.74287687  0.23385290  0.26401247  1
  Te  Te118  1  0.74779978  0.22333488  0.63388394  1
  Te  Te119  1  0.72673044  0.23624277  0.91152404  1
  Te  Te120  1  0.76638069  0.58242667  0.24463188  1
  Te  Te121  1  0.73352923  0.57291144  0.55111307  1
  Te  Te122  1  0.73666574  0.62621948  0.90633477  1
  Te  Te123  1  0.75761427  0.93044688  0.25046277  1
  Te  Te124  1  0.77903351  0.90385927  0.59964158  1
  Te  Te125  1  0.75887308  0.89859420  0.92451118  1
  Te  Te126  1  0.29590329  0.21913546  0.05640793  1
  Te  Te127  1  0.26986047  0.25512881  0.40998701  1
  Te  Te128  1  0.27325387  0.25720227  0.75025324  1
  Te  Te129  1  0.26060873  0.58832468  0.10086709  1
  Te  Te130  1  0.25639646  0.56092522  0.42569651  1
  Te  Te131  1  0.24097208  0.59594147  0.75160731  1
  Te  Te132  1  0.27391912  0.92329690  0.07530247  1
  Te  Te133  1  0.30296852  0.95239051  0.43323952  1
  Te  Te134  1  0.25096700  0.91476221  0.73186024  1
  Te  Te135  1  0.56279410  0.23767459  0.06871846  1
  Te  Te136  1  0.54189198  0.26830755  0.45017619  1
  Te  Te137  1  0.61270323  0.24708790  0.72000263  1
  Te  Te138  1  0.58728935  0.55918033  0.07035358  1
  Te  Te139  1  0.57829437  0.55051481  0.42847209  1
  Te  Te140  1  0.57221278  0.59139587  0.74477485  1
  Te  Te141  1  0.58368487  0.92615286  0.07280654  1
  Te  Te142  1  0.55415687  0.94586545  0.46210656  1
  Te  Te143  1  0.60144987  0.93262732  0.72531516  1
  Te  Te144  1  0.94053729  0.25111361  0.07449027  1
  Te  Te145  1  0.90201160  0.23599268  0.43530538  1
  Te  Te146  1  0.92150883  0.25598207  0.77665824  1
  Te  Te147  1  0.91551487  0.58806143  0.07520631  1
  Te  Te148  1  0.91681129  0.60996387  0.39928138  1
  Te  Te149  1  0.84242643  0.62059324  0.72165588  1
  Te  Te150  1  0.91115184  0.86189136  0.10744544  1
  Te  Te151  1  0.90050671  0.92624054  0.40954836  1
  Te  Te152  1  0.87073413  0.96237062  0.73680388  1
  Te  Te153  1  0.27938271  0.11835951  0.24021060  1
  Te  Te154  1  0.24168974  0.09030928  0.58843493  1
  Te  Te155  1  0.25827350  0.08959418  0.89776478  1
  Te  Te156  1  0.27822475  0.40396671  0.22551664  1
  Te  Te157  1  0.26730828  0.40680057  0.60200116  1
  Te  Te158  1  0.26514533  0.42055918  0.93274457  1
  Te  Te159  1  0.25548856  0.74984271  0.25067517  1
  Te  Te160  1  0.23458566  0.74720799  0.56916745  1
  Te  Te161  1  0.25165889  0.76853022  0.90580728  1
  Te  Te162  1  0.58919975  0.07439063  0.26434978  1
  Te  Te163  1  0.60360557  0.06899582  0.55554205  1
  Te  Te164  1  0.56100854  0.08508391  0.89906988  1
  Te  Te165  1  0.59541340  0.38038035  0.24950753  1
  Te  Te166  1  0.57113174  0.36398719  0.56990152  1
  Te  Te167  1  0.58700311  0.41899552  0.91221611  1
  Te  Te168  1  0.56653694  0.74721289  0.25265784  1
  Te  Te169  1  0.57445494  0.75873472  0.59248567  1
  Te  Te170  1  0.62799632  0.73510859  0.93154367  1
  Te  Te171  1  0.92401256  0.08781020  0.23348827  1
  Te  Te172  1  0.89987653  0.10451196  0.60583541  1
  Te  Te173  1  0.90938078  0.06106075  0.93159414  1
  Te  Te174  1  0.92731181  0.41906835  0.26009183  1
  Te  Te175  1  0.89510707  0.41557242  0.59002731  1
  Te  Te176  1  0.89407152  0.43069347  0.90698720  1
  Te  Te177  1  0.94332247  0.76794106  0.24532937  1
  Te  Te178  1  0.90407502  0.76910739  0.58390974  1
  Te  Te179  1  0.88199615  0.78434264  0.91670036  1
