# generated using pymatgen
data_In2Te3
_symmetry_space_group_name_H-M   'P 1'
_cell_length_a   18.82578888
_cell_length_b   18.81505233
_cell_length_c   18.83487397
_cell_angle_alpha   89.95376645
_cell_angle_beta   90.12466851
_cell_angle_gamma   89.97063096
_symmetry_Int_Tables_number   1
_chemical_formula_structural   In2Te3
_chemical_formula_sum   'In72 Te108'
_cell_volume   6671.44801488
_cell_formula_units_Z   36
loop_
 _symmetry_equiv_pos_site_id
 _symmetry_equiv_pos_as_xyz
  1  'x, y, z'
loop_
 _atom_site_type_symbol
 _atom_site_label
 _atom_site_symmetry_multiplicity
 _atom_site_fract_x
 _atom_site_fract_y
 _atom_site_fract_z
 _atom_site_occupancy
  In  In0  1  0.18150588  0.34147281  0.18710268  1
  In  In1  1  0.66536868  0.34306850  0.64407505  1
  In  In2  1  0.82556398  0.82385066  0.00351872  1
  In  In3  1  0.15265128  0.00817425  0.16255304  1
  In  In4  1  0.85206697  0.20939873  0.03993287  1
  In  In5  1  0.17373023  0.85229706  0.32960448  1
  In  In6  1  0.68688338  0.66382907  -0.02486773  1
  In  In7  1  0.48361328  -0.01254005  0.81780752  1
  In  In8  1  0.18308776  0.00673322  0.49337231  1
  In  In9  1  0.17534519  0.31094562  0.84142046  1
  In  In10  1  -0.01305343  0.49376898  0.83544148  1
  In  In11  1  0.85934421  0.35787872  0.48094706  1
  In  In12  1  -0.00246710  0.01670670  0.32129863  1
  In  In13  1  0.67441108  0.34618596  0.01988661  1
  In  In14  1  0.35678195  0.01549901  0.35676229  1
  In  In15  1  0.51900709  0.34066041  0.80570522  1
  In  In16  1  0.67056850  0.19270726  0.79805345  1
  In  In17  1  0.69729824  0.19274319  0.20463800  1
  In  In18  1  0.02753211  0.32947576  0.33523372  1
  In  In19  1  0.49335878  0.53426495  0.67016886  1
  In  In20  1  0.67409711  0.49983007  0.50849594  1
  In  In21  1  0.83824865  0.00972264  0.81313570  1
  In  In22  1  0.66266956  0.00209636  0.33181436  1
  In  In23  1  0.01754795  0.83773350  0.49635894  1
  In  In24  1  0.32706539  0.66023961  -0.00024650  1
  In  In25  1  0.81252257  0.65738456  0.50559080  1
  In  In26  1  0.47121331  0.50599689  0.00311027  1
  In  In27  1  0.49611552  0.31449991  0.16999127  1
  In  In28  1  0.51938697  -0.01417147  0.18312630  1
  In  In29  1  0.45622763  0.20582572  0.37406068  1
  In  In30  1  0.19941592  0.81372661  0.66185006  1
  In  In31  1  0.00468379  0.18619539  0.51244617  1
  In  In32  1  0.48703766  0.47511864  0.35430746  1
  In  In33  1  0.03109170  0.31851814  0.67487505  1
  In  In34  1  -0.00716745  0.65447905  0.31517365  1
  In  In35  1  -0.00417510  0.65971467  0.67798220  1
  In  In36  1  0.31582026  0.14662605  0.81899186  1
  In  In37  1  0.63119719  0.82267854  0.50565660  1
  In  In38  1  0.83605616  0.49571543  0.32750223  1
  In  In39  1  0.82932108  0.51275888  0.66428727  1
  In  In40  1  0.63346175  0.15359016  0.48975754  1
  In  In41  1  0.64841980  -0.00422124  0.00886034  1
  In  In42  1  0.33690902  0.66740125  0.33546209  1
  In  In43  1  0.49203324  0.83080996  0.34183833  1
  In  In44  1  0.82166027  0.02042645  0.50296673  1
  In  In45  1  0.19754710  0.48418031  0.63976264  1
  In  In46  1  0.32791333  -0.01075929  0.65022455  1
  In  In47  1  0.83737226  0.16411951  0.65536243  1
  In  In48  1  0.32901862  0.16252111  0.17686179  1
  In  In49  1  -0.03842493  0.66562657  0.01169300  1
  In  In50  1  0.65551121  0.63644188  0.33333997  1
  In  In51  1  0.15777238  0.83128138  -0.00338867  1
  In  In52  1  0.84847972  0.35765406  0.85361751  1
  In  In53  1  0.01700830  0.15144002  0.84463966  1
  In  In54  1  0.00663529  0.01204800  0.00593612  1
  In  In55  1  0.47157418  0.81404194  0.67823087  1
  In  In56  1  0.34963540  0.50269241  0.82795372  1
  In  In57  1  0.83430963  0.00818850  0.17007983  1
  In  In58  1  0.65169956  0.82364869  0.83168404  1
  In  In59  1  0.03463962  0.46427663  0.46964915  1
  In  In60  1  0.49179955  0.67819645  0.16474744  1
  In  In61  1  0.16690738  -0.00026413  0.81692458  1
  In  In62  1  0.83792640  0.82843184  0.31050599  1
  In  In63  1  0.33690704  0.33112783  0.00901674  1
  In  In64  1  0.19408639  0.65199873  0.50309297  1
  In  In65  1  0.32946330  -0.01554849  -0.02723295  1
  In  In66  1  0.67548823  0.50531163  0.18119673  1
  In  In67  1  0.17476146  0.64979831  0.81482443  1
  In  In68  1  0.82121821  0.84441565  0.68413653  1
  In  In69  1  0.48422078  0.14821487  -0.02120470  1
  In  In70  1  0.15742825  0.64944686  0.18303945  1
  In  In71  1  0.14656638  0.49788742  0.02385167  1
  Te  Te72  1  0.06669844  0.10931250  0.09807676  1
  Te  Te73  1  0.08640704  0.09597564  0.41560230  1
  Te  Te74  1  0.09562093  0.09895078  0.73248402  1
  Te  Te75  1  0.07338492  0.38806610  0.09174023  1
  Te  Te76  1  0.14566398  0.37477347  0.42267906  1
  Te  Te77  1  0.10440665  0.43576892  0.75402123  1
  Te  Te78  1  0.07770591  0.73835123  0.08633777  1
  Te  Te79  1  0.09497552  0.73873659  0.40909340  1
  Te  Te80  1  0.08578045  0.75733244  0.75110941  1
  Te  Te81  1  0.41577407  0.06836767  0.08774628  1
  Te  Te82  1  0.41530334  0.09172138  0.47453806  1
  Te  Te83  1  0.42128106  0.09137735  0.72679707  1
  Te  Te84  1  0.40133836  0.42315936  0.11062742  1
  Te  Te85  1  0.39462776  0.40480284  0.44735609  1
  Te  Te86  1  0.40842290  0.40916474  0.72648529  1
  Te  Te87  1  0.39706677  0.75769511  0.08527558  1
  Te  Te88  1  0.43032374  0.73126665  0.43131229  1
  Te  Te89  1  0.40563091  0.70582083  0.75547622  1
  Te  Te90  1  0.73658714  0.09549431  0.08566811  1
  Te  Te91  1  0.75342378  0.10439968  0.39792643  1
  Te  Te92  1  0.73284296  0.07127368  0.71786712  1
  Te  Te93  1  0.76981710  0.44342663  0.08111246  1
  Te  Te94  1  0.73523897  0.40927138  0.40363334  1
  Te  Te95  1  0.74770687  0.41496638  0.75081648  1
  Te  Te96  1  0.74845145  0.73298028  0.08982389  1
  Te  Te97  1  0.74210034  0.75447334  0.41071386  1
  Te  Te98  1  0.74925953  0.74060201  0.75764702  1
  Te  Te99  1  0.12012236  0.23504199  0.26905095  1
  Te  Te100  1  0.11631043  0.27087047  0.56362458  1
  Te  Te101  1  0.05847073  0.27090178  0.91962888  1
  Te  Te102  1  0.07131198  0.54587610  0.24975358  1
  Te  Te103  1  0.08477843  0.57892778  0.58335333  1
  Te  Te104  1  0.08114902  0.59152275  0.91945309  1
  Te  Te105  1  0.06443768  0.90686505  0.23939971  1
  Te  Te106  1  0.10467133  0.91379587  0.59183598  1
  Te  Te107  1  0.07131415  0.91814608  0.90537341  1
  Te  Te108  1  0.37507008  0.28357611  0.25647090  1
  Te  Te109  1  0.41003666  0.25348073  0.51883096  1
  Te  Te110  1  0.41327455  0.25704952  0.89844152  1
  Te  Te111  1  0.42422094  0.57251776  0.25333224  1
  Te  Te112  1  0.38301697  0.60125141  0.59335598  1
  Te  Te113  1  0.43664483  0.60898054  0.89353589  1
  Te  Te114  1  0.40350132  0.91438316  0.25025759  1
  Te  Te115  1  0.42768303  0.91145286  0.57517920  1
  Te  Te116  1  0.43263461  0.89443164  0.91987659  1
  Te  Te117  1  0.76718758  0.31269368  0.24845023  1
  Te  Te118  1  0.76444439  0.26005237  0.56275118  1
  Te  Te119  1  0.74799738  0.25352115  0.91740360  1
  Te  Te120  1  0.77506426  0.60576222  0.24336466  1
  Te  Te121  1  0.71730743  0.60475679  0.61179289  1
  Te  Te122  1  0.71031508  0.55549340  0.87753268  1
  Te  Te123  1  0.73466231  0.91118312  0.23344316  1
  Te  Te124  1  0.74259788  0.91020462  0.57006423  1
  Te  Te125  1  0.74885746  0.92929093  0.91142298  1
  Te  Te126  1  0.24181316  0.23725033  0.07584158  1
  Te  Te127  1  0.30888985  0.20316034  0.41695582  1
  Te  Te128  1  0.25880930  0.25460423  0.73574807  1
  Te  Te129  1  0.25783114  0.56853971  0.10032497  1
  Te  Te130  1  0.24441997  0.56229358  0.39524084  1
  Te  Te131  1  0.28345201  0.60629508  0.71414965  1
  Te  Te132  1  0.24787207  0.91740626  0.08405476  1
  Te  Te133  1  0.27576855  0.90468874  0.42810286  1
  Te  Te134  1  0.27126994  0.90330925  0.76325693  1
  Te  Te135  1  0.57580804  0.23490055  0.06740006  1
  Te  Te136  1  0.58058920  0.27314275  0.42357816  1
  Te  Te137  1  0.56243064  0.24001284  0.69696897  1
  Te  Te138  1  0.58082778  0.57889726  0.08368858  1
  Te  Te139  1  0.56313641  0.58179909  0.43732100  1
  Te  Te140  1  0.59497229  0.55323021  0.78056577  1
  Te  Te141  1  0.57392981  0.89352577  0.08257148  1
  Te  Te142  1  0.56476771  0.93709389  0.42679492  1
  Te  Te143  1  0.58293541  0.91344725  0.73114506  1
  Te  Te144  1  0.93770167  0.29014509  0.12672442  1
  Te  Te145  1  0.91550961  0.24122844  0.40371524  1
  Te  Te146  1  0.91303507  0.25411566  0.75240781  1
  Te  Te147  1  0.90393536  0.54844788  0.07690963  1
  Te  Te148  1  0.92009551  0.57353704  0.43580860  1
  Te  Te149  1  0.89464421  0.59949124  0.77376822  1
  Te  Te150  1  0.91917855  0.91568883  0.08490029  1
  Te  Te151  1  0.91225314  0.91715023  0.41467666  1
  Te  Te152  1  0.93165382  0.92454611  0.73926830  1
  Te  Te153  1  0.24461063  0.07282472  0.26690722  1
  Te  Te154  1  0.23799760  0.09544874  0.59811329  1
  Te  Te155  1  0.22799458  0.08889306  0.92793004  1
  Te  Te156  1  0.21063651  0.45211902  0.28491731  1
  Te  Te157  1  0.29138060  0.40197760  0.56486603  1
  Te  Te158  1  0.25175355  0.43219145  0.92058887  1
  Te  Te159  1  0.25174264  0.75500394  0.24191013  1
  Te  Te160  1  0.28988757  0.75077880  0.55993570  1
  Te  Te161  1  0.24886600  0.75075066  0.90463686  1
  Te  Te162  1  0.57771566  0.10563039  0.25561169  1
  Te  Te163  1  0.60036425  0.08881725  0.61442566  1
  Te  Te164  1  0.59079737  0.08725277  0.88867764  1
  Te  Te165  1  0.58186328  0.40832231  0.25427887  1
  Te  Te166  1  0.55826763  0.42847232  0.57710156  1
  Te  Te167  1  0.56913530  0.41281433  0.92942397  1
  Te  Te168  1  0.59045368  0.75120702  0.25609047  1
  Te  Te169  1  0.57628193  0.73290515  0.60699485  1
  Te  Te170  1  0.57327205  0.74954003  0.93153785  1
  Te  Te171  1  0.91709013  0.10903219  0.23875201  1
  Te  Te172  1  0.93757135  0.07023200  0.58834691  1
  Te  Te173  1  0.89762764  0.09664922  0.92532964  1
  Te  Te174  1  0.90854751  0.38913021  0.24724562  1
  Te  Te175  1  0.93395035  0.41999158  0.60033601  1
  Te  Te176  1  0.91541469  0.44241064  0.95848984  1
  Te  Te177  1  0.92378748  0.74656683  0.22361475  1
  Te  Te178  1  0.91696308  0.75031315  0.57550449  1
  Te  Te179  1  0.91131661  0.75364720  0.90566794  1
