# generated using pymatgen
data_In2Te3
_symmetry_space_group_name_H-M   'P 1'
_cell_length_a   18.97900861
_cell_length_b   19.01198225
_cell_length_c   18.99592435
_cell_angle_alpha   90.00808587
_cell_angle_beta   89.88692561
_cell_angle_gamma   89.95197998
_symmetry_Int_Tables_number   1
_chemical_formula_structural   In2Te3
_chemical_formula_sum   'In72 Te108'
_cell_volume   6854.25648606
_cell_formula_units_Z   36
loop_
 _symmetry_equiv_pos_site_id
 _symmetry_equiv_pos_as_xyz
  1  'x, y, z'
loop_
 _atom_site_type_symbol
 _atom_site_label
 _atom_site_symmetry_multiplicity
 _atom_site_fract_x
 _atom_site_fract_y
 _atom_site_fract_z
 _atom_site_occupancy
  In  In0  1  0.69518681  0.37127898  0.61053721  1
  In  In1  1  -0.01518555  0.83829789  0.15258001  1
  In  In2  1  0.26800133  -0.01588429  0.33422100  1
  In  In3  1  0.50283572  0.81326119  0.35672559  1
  In  In4  1  0.49667917  0.48600390  -0.00317765  1
  In  In5  1  0.81951247  0.84178108  -0.00456168  1
  In  In6  1  0.69142737  0.37307601  0.01421418  1
  In  In7  1  0.15316137  0.64895968  0.50758246  1
  In  In8  1  0.84877601  0.00480643  0.52472280  1
  In  In9  1  0.17760604  0.48107220  0.30402413  1
  In  In10  1  0.84963035  0.86976361  0.35076379  1
  In  In11  1  0.32431488  0.79701749  0.46266327  1
  In  In12  1  0.85337559  0.19224366  0.30736165  1
  In  In13  1  0.48134784  0.33185713  0.81348912  1
  In  In14  1  0.51273705  0.36063753  0.19264336  1
  In  In15  1  0.33910772  0.49361095  0.50574430  1
  In  In16  1  0.35212208  0.33716651  0.02036413  1
  In  In17  1  -0.00338369  0.33846600  0.70094913  1
  In  In18  1  0.50055150  0.33271372  0.47791214  1
  In  In19  1  0.69591250  0.02304823  0.31829187  1
  In  In20  1  0.69463039  0.50781114  0.82788737  1
  In  In21  1  0.15270417  0.18552293  0.69115544  1
  In  In22  1  0.51657912  0.15511285  0.34200806  1
  In  In23  1  0.83293802  0.34154697  0.47200347  1
  In  In24  1  0.28106351  0.14619763  0.49028913  1
  In  In25  1  0.32726433  0.00416294  -0.00315555  1
  In  In26  1  0.82154081  0.67760543  0.50077970  1
  In  In27  1  0.53624984  0.16411977  0.01034205  1
  In  In28  1  0.50948982  -0.01551923  0.83109898  1
  In  In29  1  0.64570830  0.64942526  0.36116294  1
  In  In30  1  0.33325951  0.64913354  0.65910001  1
  In  In31  1  0.14795453  0.01748751  0.16169323  1
  In  In32  1  0.66002473  0.64661696  -0.04156660  1
  In  In33  1  0.32743766  0.66438109  0.02580745  1
  In  In34  1  0.69684032  0.02622479  0.01889372  1
  In  In35  1  0.45700646  0.18420566  0.65976022  1
  In  In36  1  0.86283811  0.33462386  0.87283171  1
  In  In37  1  0.66374070  0.19609988  0.51076416  1
  In  In38  1  0.84767750  0.84177971  0.65257072  1
  In  In39  1  0.84326643  0.51510453  0.67596107  1
  In  In40  1  0.18614908  -0.00529549  0.84120026  1
  In  In41  1  0.32023396  0.33339950  0.33747073  1
  In  In42  1  0.16783397  0.35509841  0.50638789  1
  In  In43  1  0.00047820  0.51409520  0.50495877  1
  In  In44  1  0.70119395  0.17803202  0.80435380  1
  In  In45  1  0.15288752  0.49852687  0.00714128  1
  In  In46  1  0.16383381  0.83734862  0.01769613  1
  In  In47  1  -0.00622817  0.64374531  0.01495731  1
  In  In48  1  0.00017499  0.63392412  0.32558648  1
  In  In49  1  0.64193330  0.78189734  0.52167592  1
  In  In50  1  -0.01872107  0.31866458  0.24214214  1
  In  In51  1  0.14063617  0.33392191  0.86138580  1
  In  In52  1  0.87168989  0.05609348  0.17276017  1
  In  In53  1  0.83326740  0.66460590  0.16066738  1
  In  In54  1  0.00490417  0.05214116  -0.00785978  1
  In  In55  1  0.48585209  -0.01483597  0.48883659  1
  In  In56  1  0.50198834  -0.02595539  0.18812240  1
  In  In57  1  0.02877931  0.81513060  0.81126687  1
  In  In58  1  0.65758779  0.00813795  0.65328783  1
  In  In59  1  0.68829619  0.50209497  0.15467191  1
  In  In60  1  0.65610805  0.83145683  0.18541981  1
  In  In61  1  0.32208804  0.51160311  0.81503269  1
  In  In62  1  0.35680963  0.77821501  0.20407023  1
  In  In63  1  0.83428195  0.66925597  0.83601000  1
  In  In64  1  0.14295656  0.82996873  0.34764435  1
  In  In65  1  0.51259518  0.66445293  0.81342230  1
  In  In66  1  0.01348819  -0.01176817  0.66177060  1
  In  In67  1  0.33526450  0.18936842  0.13825513  1
  In  In68  1  0.31469634  0.82032192  0.83571367  1
  In  In69  1  0.67730249  0.84683621  0.81658081  1
  In  In70  1  0.30427865  0.17046815  0.84550986  1
  In  In71  1  0.34361856  -0.02416658  0.65683714  1
  Te  Te72  1  0.04983966  0.12507490  0.11693265  1
  Te  Te73  1  0.16252973  0.05041003  0.41602688  1
  Te  Te74  1  0.08309983  0.07533361  0.76654271  1
  Te  Te75  1  0.05659750  0.39628890  0.05981803  1
  Te  Te76  1  0.07834492  0.42835592  0.40833697  1
  Te  Te77  1  0.09541188  0.42790068  0.75901679  1
  Te  Te78  1  0.08376835  0.73899350  0.09901214  1
  Te  Te79  1  0.05601157  0.73287019  0.42503416  1
  Te  Te80  1  0.10874630  0.71736412  0.74086401  1
  Te  Te81  1  0.43393746  0.07432915  0.08220229  1
  Te  Te82  1  0.40073483  0.08407561  0.41179665  1
  Te  Te83  1  0.40382041  0.07505768  0.76484069  1
  Te  Te84  1  0.41068316  0.44217699  0.11406014  1
  Te  Te85  1  0.42255554  0.43097513  0.39129533  1
  Te  Te86  1  0.41576998  0.43312918  0.73154401  1
  Te  Te87  1  0.42235916  0.76253530  0.07533656  1
  Te  Te88  1  0.42198774  0.69684204  0.41020062  1
  Te  Te89  1  0.41159853  0.75140311  0.74216396  1
  Te  Te90  1  0.77082980  0.13104134  0.09515603  1
  Te  Te91  1  0.75173344  0.08950341  0.44129191  1
  Te  Te92  1  0.76539337  0.07367442  0.72529172  1
  Te  Te93  1  0.79085862  0.38731128  0.12747626  1
  Te  Te94  1  0.71787013  0.41324099  0.42026452  1
  Te  Te95  1  0.76281368  0.39696724  0.74727703  1
  Te  Te96  1  0.73479927  0.74645650  0.07621412  1
  Te  Te97  1  0.74097136  0.76994442  0.39929194  1
  Te  Te98  1  0.75394059  0.74664470  0.73508197  1
  Te  Te99  1  0.07695512  0.20996573  0.24185369  1
  Te  Te100  1  0.07601170  0.26478271  0.58923589  1
  Te  Te101  1  0.05039186  0.22104373  0.90268807  1
  Te  Te102  1  0.09031605  0.57251085  0.22800314  1
  Te  Te103  1  0.05547588  0.60291258  0.61070562  1
  Te  Te104  1  0.07465193  0.57908352  0.91145139  1
  Te  Te105  1  0.06810218  0.92058164  0.24814326  1
  Te  Te106  1  0.05311038  0.88412906  0.56847843  1
  Te  Te107  1  0.07980538  0.92136530  0.92491055  1
  Te  Te108  1  0.42528187  0.24556893  0.25215265  1
  Te  Te109  1  0.38897855  0.25316121  0.54715404  1
  Te  Te110  1  0.42501072  0.23547819  0.92310771  1
  Te  Te111  1  0.36130247  0.64786023  0.27234162  1
  Te  Te112  1  0.43928489  0.58550121  0.57329647  1
  Te  Te113  1  0.42266394  0.58688591  0.91091596  1
  Te  Te114  1  0.39861213  0.90885932  0.28234806  1
  Te  Te115  1  0.41407251  0.87761794  0.56282192  1
  Te  Te116  1  0.41163835  0.90710201  0.91681383  1
  Te  Te117  1  0.76511372  0.25597477  0.21121312  1
  Te  Te118  1  0.77966832  0.24844846  0.59019612  1
  Te  Te119  1  0.74235490  0.25962321  0.92685733  1
  Te  Te120  1  0.74906666  0.59222069  0.26312171  1
  Te  Te121  1  0.74525531  0.57142195  0.57784570  1
  Te  Te122  1  0.78215205  0.56267875  0.93788876  1
  Te  Te123  1  0.76894987  0.92481173  0.22732799  1
  Te  Te124  1  0.72937677  0.90176494  0.56440465  1
  Te  Te125  1  0.75634412  0.94264951  0.90333762  1
  Te  Te126  1  0.23069191  0.26963571  0.07317442  1
  Te  Te127  1  0.21273623  0.25009905  0.40447795  1
  Te  Te128  1  0.25229465  0.27677035  0.75651349  1
  Te  Te129  1  0.24542081  0.56721112  0.09787041  1
  Te  Te130  1  0.23907423  0.56510850  0.41678335  1
  Te  Te131  1  0.22654194  0.61429246  0.76013454  1
  Te  Te132  1  0.25471553  0.92210798  0.10208432  1
  Te  Te133  1  0.21663094  0.91387912  0.46384955  1
  Te  Te134  1  0.23552973  0.89969314  0.73351395  1
  Te  Te135  1  0.58785176  0.28313346  0.08562818  1
  Te  Te136  1  0.61052126  0.26433846  0.38695918  1
  Te  Te137  1  0.57642888  0.23959315  0.73619894  1
  Te  Te138  1  0.58504767  0.58304283  0.07199297  1
  Te  Te139  1  0.64208563  0.54304459  0.46384928  1
  Te  Te140  1  0.60983022  0.58627030  0.73502741  1
  Te  Te141  1  0.59804350  0.92566360  0.07701561  1
  Te  Te142  1  0.58816013  0.93553873  0.38945405  1
  Te  Te143  1  0.57143073  0.90315375  0.72009167  1
  Te  Te144  1  0.95405865  0.28820316  0.00717661  1
  Te  Te145  1  0.94171758  0.27590230  0.39325579  1
  Te  Te146  1  0.92699241  0.23105461  0.78081710  1
  Te  Te147  1  0.92979514  0.55756262  0.12059008  1
  Te  Te148  1  0.89296753  0.57331380  0.41515959  1
  Te  Te149  1  0.92725857  0.56960925  0.78198383  1
  Te  Te150  1  0.91329655  0.94196749  0.06685792  1
  Te  Te151  1  0.94741539  0.90701484  0.45895938  1
  Te  Te152  1  0.92221582  0.91026871  0.76395681  1
  Te  Te153  1  0.25770268  0.09913867  0.23107791  1
  Te  Te154  1  0.23836368  0.07852255  0.61777091  1
  Te  Te155  1  0.22156389  0.09997275  0.94984156  1
  Te  Te156  1  0.23352071  0.36983686  0.22365060  1
  Te  Te157  1  0.23616965  0.44485496  0.59814941  1
  Te  Te158  1  0.26611699  0.41531438  0.91890549  1
  Te  Te159  1  0.22610484  0.73210876  0.27280432  1
  Te  Te160  1  0.24529200  0.74454450  0.57927825  1
  Te  Te161  1  0.23245454  0.73617154  0.92996275  1
  Te  Te162  1  0.59356049  0.09031081  0.22758496  1
  Te  Te163  1  0.55628471  0.09774694  0.57153585  1
  Te  Te164  1  0.60104812  0.08613987  0.89642022  1
  Te  Te165  1  0.59395203  0.46052685  0.26019935  1
  Te  Te166  1  0.55294317  0.40276601  0.59773440  1
  Te  Te167  1  0.58633739  0.41409640  0.89797653  1
  Te  Te168  1  0.57028594  0.72730966  0.24992704  1
  Te  Te169  1  0.55976036  0.68516459  0.58981558  1
  Te  Te170  1  0.58477663  0.76586906  0.90544040  1
  Te  Te171  1  0.92886177  0.06564883  0.30570915  1
  Te  Te172  1  0.95630664  0.09064144  0.57249679  1
  Te  Te173  1  0.91262944  0.12633519  0.90789830  1
  Te  Te174  1  0.90636541  0.44288665  0.23022903  1
  Te  Te175  1  0.91968607  0.41273935  0.58593587  1
  Te  Te176  1  0.95025602  0.42952297  0.94646055  1
  Te  Te177  1  0.91277462  0.75530204  0.25849346  1
  Te  Te178  1  0.91782239  0.72244350  0.60274876  1
  Te  Te179  1  0.92516216  0.75710260  0.92817624  1
