# generated using pymatgen
data_In2Te3
_symmetry_space_group_name_H-M   'P 1'
_cell_length_a   18.80691815
_cell_length_b   18.79917602
_cell_length_c   18.80542957
_cell_angle_alpha   90.04139818
_cell_angle_beta   90.10977675
_cell_angle_gamma   89.99379016
_symmetry_Int_Tables_number   1
_chemical_formula_structural   In2Te3
_chemical_formula_sum   'In72 Te108'
_cell_volume   6648.73148803
_cell_formula_units_Z   36
loop_
 _symmetry_equiv_pos_site_id
 _symmetry_equiv_pos_as_xyz
  1  'x, y, z'
loop_
 _atom_site_type_symbol
 _atom_site_label
 _atom_site_symmetry_multiplicity
 _atom_site_fract_x
 _atom_site_fract_y
 _atom_site_fract_z
 _atom_site_occupancy
  In  In0  1  -0.03285907  0.49715683  0.49865033  1
  In  In1  1  0.83209007  0.65389849  0.16729761  1
  In  In2  1  0.48363315  0.50324352  -0.00261712  1
  In  In3  1  0.50707698  0.34868787  0.50734582  1
  In  In4  1  0.66708620  0.15876841  0.80700278  1
  In  In5  1  0.52925947  0.14449129  0.64290903  1
  In  In6  1  0.31701991  0.15841368  0.85775709  1
  In  In7  1  0.31080602  0.14564697  0.17225363  1
  In  In8  1  0.16929584  0.66171157  0.14891383  1
  In  In9  1  0.33145617  0.15275958  0.48200660  1
  In  In10  1  0.17150955  0.85048968  0.68515425  1
  In  In11  1  0.14861498  0.30616788  0.83333392  1
  In  In12  1  0.66430097  0.32017947  -0.00798332  1
  In  In13  1  0.83154759  0.30424027  0.51125953  1
  In  In14  1  0.49246371  0.68605084  0.18295919  1
  In  In15  1  0.81772886  0.48158023  0.66014039  1
  In  In16  1  0.04115965  0.83057273  0.17913306  1
  In  In17  1  0.66700573  0.32688509  0.34232149  1
  In  In18  1  0.01364057  0.15703801  0.15445666  1
  In  In19  1  0.68191791  0.83732738  0.83915587  1
  In  In20  1  0.85131849  0.15828953  -0.01049981  1
  In  In21  1  0.50930296  0.17219891  0.34660431  1
  In  In22  1  0.36341827  0.50659337  0.49711116  1
  In  In23  1  -0.00007590  0.67587523  0.66519950  1
  In  In24  1  0.65133839  0.50467468  0.80433090  1
  In  In25  1  0.82014707  0.16789269  0.33620048  1
  In  In26  1  0.65440149  0.82791099  0.18453318  1
  In  In27  1  0.30027529  0.82909158  0.83730848  1
  In  In28  1  0.18396997  0.84235706  0.32865118  1
  In  In29  1  0.33807333  0.32755218  0.68500688  1
  In  In30  1  0.48643802  0.01820914  0.20173059  1
  In  In31  1  -0.01179925  0.84217604  0.83005319  1
  In  In32  1  0.83652693  0.82561735  0.35643432  1
  In  In33  1  0.17430718  0.49506392  -0.01212774  1
  In  In34  1  0.48065330  0.18759363  -0.00425952  1
  In  In35  1  0.33783257  0.84627906  0.49371195  1
  In  In36  1  0.34077797  0.50144089  0.16654949  1
  In  In37  1  0.84749125  0.16520021  0.67434026  1
  In  In38  1  0.67856064  0.49417201  0.18733772  1
  In  In39  1  0.32625241  -0.01264592  0.67554829  1
  In  In40  1  0.00136215  0.30958112  -0.02664631  1
  In  In41  1  0.00329805  0.85121805  0.49682581  1
  In  In42  1  0.19692929  0.48847419  0.68396655  1
  In  In43  1  0.50023050  0.82863757  -0.01010187  1
  In  In44  1  0.17368656  0.50935883  0.33112055  1
  In  In45  1  0.82692602  0.51542214  0.32490637  1
  In  In46  1  0.81162778  0.65225501  0.49622731  1
  In  In47  1  0.17001572  0.31751172  0.15305542  1
  In  In48  1  0.50979596  0.83591209  0.65119133  1
  In  In49  1  0.00899764  0.32872715  0.33372758  1
  In  In50  1  0.01819488  0.01739939  -0.00900786  1
  In  In51  1  0.49403277  0.34170271  0.17453110  1
  In  In52  1  0.65930599  0.66304475  -0.00716590  1
  In  In53  1  0.80122914  0.85505687  0.65015017  1
  In  In54  1  0.15197505  -0.00139135  0.51665593  1
  In  In55  1  0.01469157  -0.01333736  0.35423975  1
  In  In56  1  0.67516063  -0.00541171  -0.00387408  1
  In  In57  1  0.49992643  0.67814398  0.50260605  1
  In  In58  1  0.00500876  0.48807754  0.19399046  1
  In  In59  1  0.15679504  0.66070397  0.49434876  1
  In  In60  1  0.65036452  0.50054682  0.51627622  1
  In  In61  1  0.00541852  0.69247376  0.01832152  1
  In  In62  1  0.34490544  0.65688425  0.65402181  1
  In  In63  1  0.00105478  0.50123838  0.84094510  1
  In  In64  1  0.83811244  0.00232414  0.14590732  1
  In  In65  1  0.81663317  0.49220223  -0.01863596  1
  In  In66  1  0.15862665  0.28939193  0.51935703  1
  In  In67  1  0.49227863  -0.01542570  0.82755373  1
  In  In68  1  0.66573508  0.00357207  0.35914977  1
  In  In69  1  0.34578876  0.50676454  0.83456452  1
  In  In70  1  0.84107398  0.84007970  -0.02041333  1
  In  In71  1  0.31867567  0.87188992  0.15948926  1
  Te  Te72  1  0.12255941  0.08735582  0.07593440  1
  Te  Te73  1  0.08491153  0.09468562  0.42579446  1
  Te  Te74  1  0.03785032  0.11450015  0.71290211  1
  Te  Te75  1  0.07119429  0.41677961  0.07414237  1
  Te  Te76  1  0.08423466  0.42541494  0.42604660  1
  Te  Te77  1  0.08101489  0.41136369  0.74542925  1
  Te  Te78  1  0.12624738  0.78413364  0.05458717  1
  Te  Te79  1  0.08060765  0.75830868  0.40420348  1
  Te  Te80  1  0.09191916  0.74611903  0.76197121  1
  Te  Te81  1  0.41818705  0.07714482  0.07999637  1
  Te  Te82  1  0.42304903  0.06685467  0.40411569  1
  Te  Te83  1  0.41839289  0.09016631  0.74572783  1
  Te  Te84  1  0.39973292  0.39835409  0.06880277  1
  Te  Te85  1  0.40971747  0.39937531  0.40851696  1
  Te  Te86  1  0.43226812  0.43084380  0.73835460  1
  Te  Te87  1  0.40401337  0.76133400  0.08477383  1
  Te  Te88  1  0.41240280  0.75246000  0.40903702  1
  Te  Te89  1  0.40527051  0.76767849  0.73923382  1
  Te  Te90  1  0.74226077  0.10116667  0.08273363  1
  Te  Te91  1  0.75511351  0.08933202  0.44354346  1
  Te  Te92  1  0.75345333  0.06503402  0.73408501  1
  Te  Te93  1  0.75182849  0.40516228  0.08762776  1
  Te  Te94  1  0.76279453  0.42292535  0.42902055  1
  Te  Te95  1  0.74427588  0.39820706  0.75642376  1
  Te  Te96  1  0.74919753  0.76046710  0.07527841  1
  Te  Te97  1  0.72913706  0.75416444  0.42725663  1
  Te  Te98  1  0.75631041  0.75165170  0.74506263  1
  Te  Te99  1  0.09926780  0.23164366  0.25726359  1
  Te  Te100  1  0.05518584  0.22887121  0.60463827  1
  Te  Te101  1  0.08200691  0.19999095  0.91448759  1
  Te  Te102  1  0.07725352  0.60445108  0.25745123  1
  Te  Te103  1  0.08391246  0.56779340  0.59015173  1
  Te  Te104  1  0.08493406  0.59888270  0.92182651  1
  Te  Te105  1  0.11374261  0.95512582  0.23540822  1
  Te  Te106  1  0.05752442  0.92779252  0.61739745  1
  Te  Te107  1  0.09131949  0.92625769  0.89799476  1
  Te  Te108  1  0.41135021  0.23897582  0.24974822  1
  Te  Te109  1  0.41483331  0.24119561  0.58206984  1
  Te  Te110  1  0.41713315  0.26313401  0.88715959  1
  Te  Te111  1  0.42323099  0.58036079  0.25897933  1
  Te  Te112  1  0.45680867  0.55843292  0.61510879  1
  Te  Te113  1  0.42069594  0.60651966  0.91379614  1
  Te  Te114  1  0.42134751  0.90188603  0.26296548  1
  Te  Te115  1  0.42768551  0.94054240  0.57264848  1
  Te  Te116  1  0.39598631  0.91733093  0.92168228  1
  Te  Te117  1  0.74729076  0.25467673  0.24255644  1
  Te  Te118  1  0.73780586  0.24429700  0.60791417  1
  Te  Te119  1  0.75708446  0.24192034  0.90140548  1
  Te  Te120  1  0.72531093  0.61569197  0.26888698  1
  Te  Te121  1  0.72829618  0.59482612  0.60987588  1
  Te  Te122  1  0.74996958  0.59469630  0.89234892  1
  Te  Te123  1  0.75867713  0.92164748  0.25015698  1
  Te  Te124  1  0.71398584  0.93276186  0.55492968  1
  Te  Te125  1  0.77679877  0.94778360  0.89442148  1
  Te  Te126  1  0.26306959  0.24146555  0.06849071  1
  Te  Te127  1  0.24207763  0.24605743  0.40783683  1
  Te  Te128  1  0.23912363  0.22551228  0.74086913  1
  Te  Te129  1  0.27013727  0.58763247  0.06151642  1
  Te  Te130  1  0.26830046  0.59724905  0.41364777  1
  Te  Te131  1  0.24822145  0.60636899  0.76134307  1
  Te  Te132  1  0.24462327  0.96580051  0.07025657  1
  Te  Te133  1  0.25596698  0.94691834  0.41239563  1
  Te  Te134  1  0.21943847  0.95925851  0.78068076  1
  Te  Te135  1  0.58166524  0.24475392  0.09552505  1
  Te  Te136  1  0.60112426  0.24004348  0.44687204  1
  Te  Te137  1  0.57002053  0.24855910  0.73981782  1
  Te  Te138  1  0.58501627  0.57752455  0.09470009  1
  Te  Te139  1  0.56701712  0.57384355  0.42030474  1
  Te  Te140  1  0.54011480  0.58119404  0.74588514  1
  Te  Te141  1  0.57679894  0.92111594  0.08823794  1
  Te  Te142  1  0.59215092  0.91714311  0.45554037  1
  Te  Te143  1  0.59890064  0.92398222  0.74184079  1
  Te  Te144  1  0.91797912  0.25477955  0.08941460  1
  Te  Te145  1  0.93192609  0.23189814  0.42148791  1
  Te  Te146  1  0.94951411  0.22700653  0.76601351  1
  Te  Te147  1  0.91847482  0.57039444  0.07342121  1
  Te  Te148  1  0.92436698  0.60514915  0.40116754  1
  Te  Te149  1  0.91372836  0.57581057  0.74018547  1
  Te  Te150  1  0.93780392  0.90806852  0.07863236  1
  Te  Te151  1  0.89526595  0.94148021  0.43806621  1
  Te  Te152  1  0.90735080  0.91868026  0.73239752  1
  Te  Te153  1  0.24345733  0.04397679  0.25438737  1
  Te  Te154  1  0.24613106  0.08946882  0.59560549  1
  Te  Te155  1  0.24749515  0.07381085  0.95732210  1
  Te  Te156  1  0.25058925  0.40782411  0.24839889  1
  Te  Te157  1  0.25700128  0.40806748  0.57037064  1
  Te  Te158  1  0.25130389  0.40041193  0.89966307  1
  Te  Te159  1  0.25952188  0.74745589  0.23841800  1
  Te  Te160  1  0.24019348  0.76158570  0.58077427  1
  Te  Te161  1  0.22981575  0.75262183  0.94006545  1
  Te  Te162  1  0.60564638  0.09556443  0.25273958  1
  Te  Te163  1  0.60300129  0.04485009  0.55928580  1
  Te  Te164  1  0.57506607  0.08122017  0.91816509  1
  Te  Te165  1  0.57278541  0.42673828  0.27415581  1
  Te  Te166  1  0.61262771  0.38788915  0.60537978  1
  Te  Te167  1  0.57996272  0.41897098  0.91384353  1
  Te  Te168  1  0.56319037  0.77048621  0.28402736  1
  Te  Te169  1  0.60575860  0.74812641  0.57977135  1
  Te  Te170  1  0.57429458  0.73943957  0.89145819  1
  Te  Te171  1  0.92366403  0.07479100  0.25033413  1
  Te  Te172  1  0.95443155  0.10365948  0.58376064  1
  Te  Te173  1  0.93293033  0.08645451  0.88889792  1
  Te  Te174  1  0.89847864  0.39892830  0.25334525  1
  Te  Te175  1  0.92508458  0.39182055  0.59805733  1
  Te  Te176  1  0.90246762  0.39889194  0.89644695  1
  Te  Te177  1  0.91530737  0.76161515  0.23889044  1
  Te  Te178  1  0.90992981  0.75258121  0.56936771  1
  Te  Te179  1  0.91048084  0.72937245  0.90414582  1
