# generated using pymatgen
data_In2Te3
_symmetry_space_group_name_H-M   'P 1'
_cell_length_a   18.76436691
_cell_length_b   18.77084162
_cell_length_c   18.77355459
_cell_angle_alpha   89.99005901
_cell_angle_beta   90.01400484
_cell_angle_gamma   90.02698757
_symmetry_Int_Tables_number   1
_chemical_formula_structural   In2Te3
_chemical_formula_sum   'In72 Te108'
_cell_volume   6612.47592457
_cell_formula_units_Z   36
loop_
 _symmetry_equiv_pos_site_id
 _symmetry_equiv_pos_as_xyz
  1  'x, y, z'
loop_
 _atom_site_type_symbol
 _atom_site_label
 _atom_site_symmetry_multiplicity
 _atom_site_fract_x
 _atom_site_fract_y
 _atom_site_fract_z
 _atom_site_occupancy
  In  In0  1  0.64803223  0.14631141  0.85863339  1
  In  In1  1  0.82083316  -0.03373518  0.83610585  1
  In  In2  1  0.14880097  0.32162973  0.49206897  1
  In  In3  1  0.65837445  0.85927157  0.83546534  1
  In  In4  1  0.18556543  0.14505300  0.31004228  1
  In  In5  1  0.81683927  0.16552667  0.00521922  1
  In  In6  1  0.34418605  0.33073393  0.01917026  1
  In  In7  1  0.66366920  0.49998777  0.49520081  1
  In  In8  1  0.34985135  0.13852226  0.17252392  1
  In  In9  1  0.82200316  0.66683485  0.48143476  1
  In  In10  1  0.36187427  -0.01408274  0.66572088  1
  In  In11  1  0.36080092  0.53581151  0.53358143  1
  In  In12  1  0.37263552  0.51473634  0.18909595  1
  In  In13  1  -0.02429629  0.66741470  0.65555186  1
  In  In14  1  -0.00908141  0.15285802  0.14842734  1
  In  In15  1  0.66839543  -0.00646503  0.32478432  1
  In  In16  1  -0.01314891  0.34078357  0.32191602  1
  In  In17  1  0.19100175  0.67717313  0.17286856  1
  In  In18  1  0.49855650  0.65522206  0.82507077  1
  In  In19  1  0.50130431  -0.01367372  0.16261092  1
  In  In20  1  0.53583823  0.30727605  0.13598896  1
  In  In21  1  0.14773222  0.18137543  0.64245252  1
  In  In22  1  0.14707533  0.53079952  -0.01948152  1
  In  In23  1  -0.00995231  0.19911049  0.84567601  1
  In  In24  1  0.50937231  0.52283697  0.33496677  1
  In  In25  1  -0.00875804  0.67847691  0.33866329  1
  In  In26  1  0.33774477  0.16159809  0.84618831  1
  In  In27  1  -0.01865282  0.52034869  0.14244751  1
  In  In28  1  0.33149975  0.51369047  0.82685433  1
  In  In29  1  0.64329627  -0.01745698  0.66401024  1
  In  In30  1  0.66582581  0.81198274  0.50488219  1
  In  In31  1  0.16556408  0.50557982  0.35360132  1
  In  In32  1  0.67326710  0.66133998  0.01909036  1
  In  In33  1  -0.02697208  0.80585475  0.82878452  1
  In  In34  1  -0.00850107  -0.05207381  0.34997479  1
  In  In35  1  0.63995750  0.67418139  0.67230837  1
  In  In36  1  0.00405525  0.82609529  0.17255887  1
  In  In37  1  0.01447586  0.01092903  0.00248942  1
  In  In38  1  0.81779485  0.64440733  0.85284286  1
  In  In39  1  0.00383286  0.18396296  0.50377879  1
  In  In40  1  0.67443150  0.34211490  0.65474536  1
  In  In41  1  0.82304001  0.16335511  0.33293361  1
  In  In42  1  0.01579623  0.01617177  0.64815903  1
  In  In43  1  0.17766521  0.82920766  0.01638279  1
  In  In44  1  0.33359230  0.67346256  -0.00867409  1
  In  In45  1  0.82748875  0.16972585  0.65151645  1
  In  In46  1  0.82279812  0.81848090  0.63866320  1
  In  In47  1  0.17514082  0.81770923  0.64311533  1
  In  In48  1  0.18664270  -0.01408794  0.47314647  1
  In  In49  1  0.80690714  0.82507794  -0.00457537  1
  In  In50  1  0.16631463  0.34788763  0.14916725  1
  In  In51  1  0.49382583  0.16741258  0.66966199  1
  In  In52  1  0.33963089  0.83367247  0.18013924  1
  In  In53  1  0.84885989  0.48522597  0.65859880  1
  In  In54  1  0.81941396  0.01121787  0.16087735  1
  In  In55  1  0.35362440  0.14604123  0.51026591  1
  In  In56  1  0.50618304  0.17538158  0.35068460  1
  In  In57  1  0.52436127  0.37129417  0.85119488  1
  In  In58  1  0.50584105  0.85674000  0.00642481  1
  In  In59  1  0.65890770  0.67305776  0.31212503  1
  In  In60  1  0.67103421  0.51141771  0.16591160  1
  In  In61  1  0.35376600  0.34564483  0.35112839  1
  In  In62  1  0.17862165  0.00185137  0.85119128  1
  In  In63  1  0.17272612  0.66652533  0.48106389  1
  In  In64  1  0.82253837  0.33794868  0.15309837  1
  In  In65  1  0.68031804  0.33633254  0.34510084  1
  In  In66  1  0.34385340  0.81522016  0.84647623  1
  In  In67  1  0.14487461  0.33501145  0.85184870  1
  In  In68  1  0.84752474  0.36954523  0.86377055  1
  In  In69  1  0.16184645  0.50428485  0.67967237  1
  In  In70  1  0.50163003  -0.00903217  0.48864353  1
  In  In71  1  0.33433662  0.34047514  0.66924699  1
  Te  Te72  1  0.10309429  0.06760615  0.10539926  1
  Te  Te73  1  0.08629150  0.08944018  0.41512699  1
  Te  Te74  1  0.08031579  0.09527031  0.76200104  1
  Te  Te75  1  0.06995583  0.42168464  0.06007449  1
  Te  Te76  1  0.05772126  0.42804593  0.42756936  1
  Te  Te77  1  0.06704549  0.42155305  0.76141556  1
  Te  Te78  1  0.08139900  0.72909419  0.07885264  1
  Te  Te79  1  0.09969234  0.76243345  0.39446619  1
  Te  Te80  1  0.08109931  0.74335030  0.73867823  1
  Te  Te81  1  0.44160298  0.08836809  0.06403802  1
  Te  Te82  1  0.40620144  0.06586800  0.39327519  1
  Te  Te83  1  0.43489734  0.06910732  0.77057510  1
  Te  Te84  1  0.44370767  0.42244437  0.08882524  1
  Te  Te85  1  0.43748522  0.43429965  0.43929958  1
  Te  Te86  1  0.43021383  0.43227865  0.74207616  1
  Te  Te87  1  0.42618500  0.74814286  0.08246372  1
  Te  Te88  1  0.36063744  0.76499225  0.42248730  1
  Te  Te89  1  0.40123410  0.73021242  0.73743640  1
  Te  Te90  1  0.71678477  0.09749916  0.09343204  1
  Te  Te91  1  0.73976770  0.08038596  0.42149089  1
  Te  Te92  1  0.74155236  0.07385861  0.75009195  1
  Te  Te93  1  0.72438399  0.40886003  0.06475421  1
  Te  Te94  1  0.76718050  0.43488630  0.41385420  1
  Te  Te95  1  0.75018921  0.42713594  0.75862981  1
  Te  Te96  1  0.75197788  0.74966380  0.11071839  1
  Te  Te97  1  0.75993950  0.77119231  0.39032307  1
  Te  Te98  1  0.75495157  0.75790133  0.76188281  1
  Te  Te99  1  0.08880742  0.25451397  0.24808685  1
  Te  Te100  1  0.04564321  0.29375024  0.61114804  1
  Te  Te101  1  0.09567962  0.23054734  0.94341825  1
  Te  Te102  1  0.09169881  0.57655532  0.24029622  1
  Te  Te103  1  0.08146445  0.58747164  0.57798754  1
  Te  Te104  1  0.05148542  0.56741833  0.87476429  1
  Te  Te105  1  0.09283593  0.91602829  0.24908196  1
  Te  Te106  1  0.08563656  0.91157111  0.56185444  1
  Te  Te107  1  0.06988670  0.90124631  0.90713403  1
  Te  Te108  1  0.42141112  0.26021695  0.24293488  1
  Te  Te109  1  0.42677510  0.26466307  0.57239445  1
  Te  Te110  1  0.43122634  0.26510642  0.91267857  1
  Te  Te111  1  0.43323268  0.63255686  0.26054204  1
  Te  Te112  1  0.45073236  0.62623985  0.60803808  1
  Te  Te113  1  0.42821540  0.56962797  0.93157943  1
  Te  Te114  1  0.45687717  0.88090021  0.26416082  1
  Te  Te115  1  0.40696235  0.89692489  0.55774870  1
  Te  Te116  1  0.40013132  0.92463983  0.92668697  1
  Te  Te117  1  0.73626279  0.24327936  0.23588115  1
  Te  Te118  1  0.74123404  0.24878715  0.56100830  1
  Te  Te119  1  0.74686489  0.25433485  0.90292330  1
  Te  Te120  1  0.76304762  0.58471306  0.25596326  1
  Te  Te121  1  0.75645742  0.59789636  0.60114969  1
  Te  Te122  1  0.71545677  0.55481131  0.91923575  1
  Te  Te123  1  0.75249251  0.90498828  0.23845897  1
  Te  Te124  1  0.74628771  0.92828134  0.56568262  1
  Te  Te125  1  0.71935485  0.94397385  0.94641308  1
  Te  Te126  1  0.25392830  0.23506527  0.09533727  1
  Te  Te127  1  0.25729917  0.23794314  0.41882744  1
  Te  Te128  1  0.24666498  0.24528220  0.75044038  1
  Te  Te129  1  0.26098569  0.56813403  0.08759852  1
  Te  Te130  1  0.28497119  0.58162978  0.40738116  1
  Te  Te131  1  0.25459139  0.60352645  0.73847159  1
  Te  Te132  1  0.27579377  0.92005252  0.07590680  1
  Te  Te133  1  0.28154183  0.89299931  0.40647777  1
  Te  Te134  1  0.24612330  0.91318483  0.74580240  1
  Te  Te135  1  0.60065938  0.21078256  0.04300284  1
  Te  Te136  1  0.58972973  0.26077277  0.43671197  1
  Te  Te137  1  0.58343988  0.25313638  0.75918329  1
  Te  Te138  1  0.56833960  0.59581035  0.10084202  1
  Te  Te139  1  0.58315986  0.61431641  0.43292994  1
  Te  Te140  1  0.59683269  0.56428942  0.76114741  1
  Te  Te141  1  0.60811944  0.89811375  0.10572656  1
  Te  Te142  1  0.58082717  0.89241547  0.40411537  1
  Te  Te143  1  0.55029679  0.90154442  0.74410226  1
  Te  Te144  1  0.92227698  0.26047037  0.06544316  1
  Te  Te145  1  0.90113127  0.26202592  0.42029804  1
  Te  Te146  1  0.89280701  0.26636014  0.75217581  1
  Te  Te147  1  0.87903135  0.56667873  0.04642314  1
  Te  Te148  1  0.92049549  0.57643188  0.42015774  1
  Te  Te149  1  0.92717471  0.57541205  0.76810100  1
  Te  Te150  1  0.91341212  0.91879126  0.07313381  1
  Te  Te151  1  0.89788819  0.87825172  0.43578885  1
  Te  Te152  1  0.92224749  0.91688311  0.72710704  1
  Te  Te153  1  0.27151384  0.03984297  0.25141355  1
  Te  Te154  1  0.24684533  0.07255700  0.59578962  1
  Te  Te155  1  0.25492368  0.08696460  0.94318016  1
  Te  Te156  1  0.25595877  0.41799970  0.25387106  1
  Te  Te157  1  0.24735584  0.41765366  0.56898889  1
  Te  Te158  1  0.25576588  0.41619847  0.92311721  1
  Te  Te159  1  0.25161680  0.76200709  0.28200278  1
  Te  Te160  1  0.27789452  0.74849626  0.55641371  1
  Te  Te161  1  0.22574815  0.73576716  0.90410142  1
  Te  Te162  1  0.57860734  0.09178980  0.24720491  1
  Te  Te163  1  0.58315724  0.09008043  0.57293046  1
  Te  Te164  1  0.55888599  0.07970042  0.95595213  1
  Te  Te165  1  0.57767324  0.41029406  0.25377222  1
  Te  Te166  1  0.57626204  0.43442457  0.59388098  1
  Te  Te167  1  0.61185646  0.42923228  0.95464793  1
  Te  Te168  1  0.54561770  0.74639194  0.24969254  1
  Te  Te169  1  0.54963623  0.75613988  0.58483524  1
  Te  Te170  1  0.58446192  0.74932451  0.91469496  1
  Te  Te171  1  0.92731407  0.07239827  0.26266813  1
  Te  Te172  1  0.90834180  0.07609492  0.55873522  1
  Te  Te173  1  0.90474182  0.07556204  0.90643195  1
  Te  Te174  1  0.89841428  0.43569876  0.24229747  1
  Te  Te175  1  0.93118923  0.39809648  0.57630328  1
  Te  Te176  1  0.93244930  0.46917450  0.94235956  1
  Te  Te177  1  0.90634580  0.73015134  0.22822471  1
  Te  Te178  1  0.93624245  0.76831169  0.54550539  1
  Te  Te179  1  0.91218142  0.72478692  0.94325192  1
