# generated using pymatgen
data_In2Te3
_symmetry_space_group_name_H-M   'P 1'
_cell_length_a   19.00838643
_cell_length_b   18.97168549
_cell_length_c   18.99884198
_cell_angle_alpha   90.10628337
_cell_angle_beta   90.13337439
_cell_angle_gamma   89.89064735
_symmetry_Int_Tables_number   1
_chemical_formula_structural   In2Te3
_chemical_formula_sum   'In72 Te108'
_cell_volume   6851.34107127
_cell_formula_units_Z   36
loop_
 _symmetry_equiv_pos_site_id
 _symmetry_equiv_pos_as_xyz
  1  'x, y, z'
loop_
 _atom_site_type_symbol
 _atom_site_label
 _atom_site_symmetry_multiplicity
 _atom_site_fract_x
 _atom_site_fract_y
 _atom_site_fract_z
 _atom_site_occupancy
  In  In0  1  0.83950407  0.85632059  0.01834241  1
  In  In1  1  0.01798971  0.49508895  0.77307205  1
  In  In2  1  0.63729169  0.31010351  0.34228836  1
  In  In3  1  0.15483844  0.13678195  0.35216656  1
  In  In4  1  0.17564731  0.67448675  0.46699020  1
  In  In5  1  0.32057316  0.32929336  0.65307666  1
  In  In6  1  0.32296083  0.82417420  0.48933991  1
  In  In7  1  0.33656421  0.01640339  0.34002747  1
  In  In8  1  0.18668011  0.50367699  0.00937067  1
  In  In9  1  0.83479860  0.34124458  0.82133404  1
  In  In10  1  0.83815835  0.00961200  0.16160819  1
  In  In11  1  0.34880172  0.16637445  0.50673685  1
  In  In12  1  0.84079426  0.16328449  0.01828764  1
  In  In13  1  0.81105585  0.15012799  0.36670906  1
  In  In14  1  0.00657377  -0.01665940  0.65545536  1
  In  In15  1  0.31810842  -0.01560272  -0.01063962  1
  In  In16  1  0.83534612  0.66952661  0.16192538  1
  In  In17  1  0.00101341  0.15913622  0.15174328  1
  In  In18  1  -0.01331371  0.31878970  -0.01561175  1
  In  In19  1  0.65945341  0.32896036  -0.00953606  1
  In  In20  1  0.50815125  0.47081617  0.66873933  1
  In  In21  1  0.16467896  0.48157785  0.33571842  1
  In  In22  1  0.67449589  -0.00002442  0.02227285  1
  In  In23  1  0.14817999  0.42653637  0.65904664  1
  In  In24  1  0.14513652  0.86586575  0.30137739  1
  In  In25  1  0.18791806  0.66534652  0.84283279  1
  In  In26  1  0.35919078  0.35300673  0.01371715  1
  In  In27  1  0.51470363  0.83742995  0.35865729  1
  In  In28  1  0.82294166  0.13573149  0.64267849  1
  In  In29  1  0.31945782  0.01560402  0.66472540  1
  In  In30  1  0.02130279  0.67529356  -0.00661587  1
  In  In31  1  -0.01831981  0.15198765  0.83809920  1
  In  In32  1  0.61003075  0.46419406  0.47905762  1
  In  In33  1  0.15978587  0.82802760  0.01027137  1
  In  In34  1  0.15705830  0.83532374  0.68073475  1
  In  In35  1  0.68250581  0.68760970  0.33159882  1
  In  In36  1  0.52066441  0.01725685  0.49420430  1
  In  In37  1  0.63114872  0.19111576  0.79431264  1
  In  In38  1  0.66312989  0.69090336  0.66003163  1
  In  In39  1  0.66741763  0.50139532  0.80748066  1
  In  In40  1  -0.02457946  0.31920308  0.33126194  1
  In  In41  1  0.82987085  0.50408582  0.63527238  1
  In  In42  1  0.32892764  0.50933749  0.85410846  1
  In  In43  1  0.35473977  0.34797548  0.37844348  1
  In  In44  1  0.49897856  0.16455828  0.02631985  1
  In  In45  1  0.19734352  0.31193454  0.16896188  1
  In  In46  1  0.51127059  -0.00257016  0.83670480  1
  In  In47  1  -0.03486633  0.83223688  0.83241264  1
  In  In48  1  -0.01806924  0.66875172  0.64982046  1
  In  In49  1  0.16417973  0.01062428  0.81845936  1
  In  In50  1  0.33286921  0.83846797  0.16622106  1
  In  In51  1  0.82616585  0.31919290  0.49346388  1
  In  In52  1  0.52230298  0.50686309  0.00855676  1
  In  In53  1  0.33992528  0.65463939  0.02896061  1
  In  In54  1  0.67870490  0.69135080  -0.00459214  1
  In  In55  1  0.36823922  0.17381711  0.81343492  1
  In  In56  1  0.85428369  0.87590436  0.34215445  1
  In  In57  1  0.65565142  0.49406442  0.18691193  1
  In  In58  1  0.35094881  0.63322603  0.65618363  1
  In  In59  1  0.83755723  0.68931045  0.50716425  1
  In  In60  1  0.01343166  0.47313600  0.17979036  1
  In  In61  1  0.52489037  0.84511659  0.01780111  1
  In  In62  1  0.34907145  0.64152341  0.28669059  1
  In  In63  1  0.47982926  0.83460168  0.66301342  1
  In  In64  1  0.00431307  -0.00118286  0.01364519  1
  In  In65  1  0.36721205  0.16087599  0.18357603  1
  In  In66  1  0.81778689  0.85116205  0.64890249  1
  In  In67  1  0.00379888  0.48527669  0.49944902  1
  In  In68  1  -0.00598336  0.66617652  0.35564936  1
  In  In69  1  0.81265242  0.50148585  0.02360902  1
  In  In70  1  0.50262815  0.65980504  0.51990689  1
  In  In71  1  0.64744250  0.01198203  0.64760900  1
  Te  Te72  1  0.10069854  0.09902479  0.06157192  1
  Te  Te73  1  0.07496574  0.03333660  0.41842227  1
  Te  Te74  1  0.07626715  0.09594655  0.73193368  1
  Te  Te75  1  0.09559574  0.39347303  0.07870386  1
  Te  Te76  1  0.08336219  0.38607753  0.41833743  1
  Te  Te77  1  0.07175319  0.35398580  0.77304616  1
  Te  Te78  1  0.08964849  0.74095441  0.10340080  1
  Te  Te79  1  0.08057817  0.77732421  0.41105871  1
  Te  Te80  1  0.07095697  0.73562667  0.76347332  1
  Te  Te81  1  0.41461390  0.05121399  0.08347426  1
  Te  Te82  1  0.44404604  0.10837199  0.39540942  1
  Te  Te83  1  0.44419832  0.07657426  0.72507036  1
  Te  Te84  1  0.41372265  0.46132934  0.10248943  1
  Te  Te85  1  0.46579781  0.42439189  0.43859731  1
  Te  Te86  1  0.39888916  0.41781725  0.75770782  1
  Te  Te87  1  0.43376888  0.74827345  0.09972302  1
  Te  Te88  1  0.41095663  0.72681013  0.41500722  1
  Te  Te89  1  0.40828677  0.73583521  0.74277944  1
  Te  Te90  1  0.73234978  0.11178367  0.10785989  1
  Te  Te91  1  0.74083931  0.03867905  0.43150575  1
  Te  Te92  1  0.72980202  0.08506824  0.75364961  1
  Te  Te93  1  0.73921642  0.39755650  0.10160395  1
  Te  Te94  1  0.73598812  0.41021187  0.41446108  1
  Te  Te95  1  0.74609638  0.40804677  0.71851966  1
  Te  Te96  1  0.74437963  0.77465627  0.10383807  1
  Te  Te97  1  0.75715958  0.78291125  0.42185850  1
  Te  Te98  1  0.76534352  0.75277174  0.74343416  1
  Te  Te99  1  0.08866763  0.24602420  0.25138487  1
  Te  Te100  1  0.08120523  0.30009699  0.63088908  1
  Te  Te101  1  0.07702713  0.21331144  0.93457664  1
  Te  Te102  1  0.08019800  0.58316658  0.26196938  1
  Te  Te103  1  0.08344704  0.59768940  0.56310825  1
  Te  Te104  1  0.08608018  0.56314605  0.90494162  1
  Te  Te105  1  0.04156245  0.96148807  0.25359245  1
  Te  Te106  1  0.11878111  0.92884488  0.57656620  1
  Te  Te107  1  0.07834187  0.90907004  0.90182766  1
  Te  Te108  1  0.42265075  0.27913585  0.26238038  1
  Te  Te109  1  0.43273028  0.25102356  0.59472144  1
  Te  Te110  1  0.43471951  0.25719599  0.92105567  1
  Te  Te111  1  0.44390874  0.54354342  0.23376239  1
  Te  Te112  1  0.41725853  0.53781193  0.56001373  1
  Te  Te113  1  0.43157518  0.59538407  0.92216398  1
  Te  Te114  1  0.41905815  0.91486091  0.26511203  1
  Te  Te115  1  0.40747984  0.93012931  0.55808418  1
  Te  Te116  1  0.42288326  0.90513718  0.91533312  1
  Te  Te117  1  0.74640022  0.23973558  0.27153725  1
  Te  Te118  1  0.73534157  0.22946146  0.56868048  1
  Te  Te119  1  0.76030914  0.24598482  0.91404671  1
  Te  Te120  1  0.76071013  0.57974531  0.25736327  1
  Te  Te121  1  0.73196632  0.59381960  0.56452879  1
  Te  Te122  1  0.74382617  0.57884670  0.91332325  1
  Te  Te123  1  0.75624412  0.92022844  0.24225220  1
  Te  Te124  1  0.74407443  0.94319970  0.55545977  1
  Te  Te125  1  0.74744218  0.91961367  0.92470972  1
  Te  Te126  1  0.28314185  0.23647528  0.07325245  1
  Te  Te127  1  0.25256681  0.23741329  0.41061987  1
  Te  Te128  1  0.25425860  0.23609901  0.74609011  1
  Te  Te129  1  0.24083680  0.58855235  0.11412565  1
  Te  Te130  1  0.26575685  0.57462999  0.40056317  1
  Te  Te131  1  0.24008312  0.56862607  0.73915663  1
  Te  Te132  1  0.22931591  0.92823839  0.09901913  1
  Te  Te133  1  0.24118593  0.92178564  0.40853876  1
  Te  Te134  1  0.26286850  0.91054240  0.75872919  1
  Te  Te135  1  0.55833434  0.28751923  0.09260949  1
  Te  Te136  1  0.57661901  0.20641564  0.42788705  1
  Te  Te137  1  0.54953818  0.28660922  0.72095638  1
  Te  Te138  1  0.60326595  0.60118716  0.09350791  1
  Te  Te139  1  0.58507428  0.59801854  0.41000266  1
  Te  Te140  1  0.57191468  0.59312225  0.73447675  1
  Te  Te141  1  0.58472391  0.93594091  0.11633915  1
  Te  Te142  1  0.60483060  0.95341219  0.38919075  1
  Te  Te143  1  0.58827002  0.90726254  0.74133775  1
  Te  Te144  1  0.90802614  0.26869008  0.10354699  1
  Te  Te145  1  0.92787587  0.22111664  0.43509755  1
  Te  Te146  1  0.89750344  0.23081009  0.73977574  1
  Te  Te147  1  0.93250509  0.57502274  0.08555056  1
  Te  Te148  1  0.90149861  0.57355656  0.42940858  1
  Te  Te149  1  0.89748480  0.58587889  0.74364676  1
  Te  Te150  1  0.94854577  0.90329561  0.11390517  1
  Te  Te151  1  0.93693690  0.96317360  0.43129491  1
  Te  Te152  1  0.89666158  0.93619045  0.74970212  1
  Te  Te153  1  0.24425038  0.08496270  0.24288907  1
  Te  Te154  1  0.23885869  0.10570019  0.58339725  1
  Te  Te155  1  0.26534587  0.09062539  0.89685005  1
  Te  Te156  1  0.27072931  0.40725106  0.25822911  1
  Te  Te157  1  0.24881646  0.41276931  0.55443329  1
  Te  Te158  1  0.24731644  0.39925252  0.91854269  1
  Te  Te159  1  0.25119414  0.75622903  0.26254034  1
  Te  Te160  1  0.24951115  0.73987009  0.59165583  1
  Te  Te161  1  0.26697097  0.75337483  0.93396049  1
  Te  Te162  1  0.52153480  0.17501859  0.19556590  1
  Te  Te163  1  0.59766911  0.12953469  0.56272746  1
  Te  Te164  1  0.58892117  0.10115160  0.91611687  1
  Te  Te165  1  0.55909295  0.41973732  0.27056994  1
  Te  Te166  1  0.59076987  0.36954244  0.59436465  1
  Te  Te167  1  0.57934070  0.41835366  0.89834347  1
  Te  Te168  1  0.57471784  0.75206265  0.25717743  1
  Te  Te169  1  0.58312904  0.77951905  0.56564564  1
  Te  Te170  1  0.58762588  0.76649452  0.91085796  1
  Te  Te171  1  0.93479484  0.07769879  0.25882722  1
  Te  Te172  1  0.91686051  0.05592970  0.55832801  1
  Te  Te173  1  0.89793687  0.05928530  0.92496187  1
  Te  Te174  1  0.90447810  0.42649213  0.26325165  1
  Te  Te175  1  0.92259382  0.39387480  0.58836778  1
  Te  Te176  1  0.90573037  0.43036361  0.92074605  1
  Te  Te177  1  0.91037314  0.75212163  0.26448755  1
  Te  Te178  1  0.93484736  0.78714955  0.57090271  1
  Te  Te179  1  0.89986024  0.74124751  0.93277896  1
