# generated using pymatgen
data_In2Te3
_symmetry_space_group_name_H-M   'P 1'
_cell_length_a   18.83817809
_cell_length_b   18.82419898
_cell_length_c   18.83572666
_cell_angle_alpha   90.08923525
_cell_angle_beta   89.92781674
_cell_angle_gamma   89.98232326
_symmetry_Int_Tables_number   1
_chemical_formula_structural   In2Te3
_chemical_formula_sum   'In72 Te108'
_cell_volume   6679.39135618
_cell_formula_units_Z   36
loop_
 _symmetry_equiv_pos_site_id
 _symmetry_equiv_pos_as_xyz
  1  'x, y, z'
loop_
 _atom_site_type_symbol
 _atom_site_label
 _atom_site_symmetry_multiplicity
 _atom_site_fract_x
 _atom_site_fract_y
 _atom_site_fract_z
 _atom_site_occupancy
  In  In0  1  0.84117593  0.48912975  0.37523504  1
  In  In1  1  0.50940549  0.35066961  0.16741743  1
  In  In2  1  0.01440844  0.66623152  -0.02031414  1
  In  In3  1  0.31550151  0.65719251  0.69308854  1
  In  In4  1  0.65748260  0.50084094  0.82919916  1
  In  In5  1  0.66671057  0.82923757  0.52356903  1
  In  In6  1  0.49706222  0.48487156  0.67835764  1
  In  In7  1  0.80682643  0.82209657  0.35012920  1
  In  In8  1  0.47530315  0.02421965  0.13064923  1
  In  In9  1  0.80431901  0.01570661  0.82934637  1
  In  In10  1  0.14805913  0.03279341  0.11489604  1
  In  In11  1  0.33777287  0.33141215  0.64860029  1
  In  In12  1  0.50216791  0.16864016  0.36723696  1
  In  In13  1  0.51076958  0.65540843  0.81917785  1
  In  In14  1  0.32698552  0.48230604  0.50401630  1
  In  In15  1  0.48813865  0.86021773  -0.02030736  1
  In  In16  1  0.86166406  0.18440090  0.00815964  1
  In  In17  1  0.68418231  0.67222132  0.00918321  1
  In  In18  1  0.35080455  0.16595197  0.54567117  1
  In  In19  1  0.65494299  0.81134621  0.15486385  1
  In  In20  1  -0.00347637  0.19453989  0.52255966  1
  In  In21  1  0.35626866  0.33435067  0.34131955  1
  In  In22  1  0.48442586  0.81792396  0.35368589  1
  In  In23  1  0.83150992  0.17193666  0.33111722  1
  In  In24  1  0.85677051  0.66356428  0.16729840  1
  In  In25  1  0.30659736  0.66200312  0.01187123  1
  In  In26  1  0.30922557  0.49649401  0.83312667  1
  In  In27  1  0.65836652  0.02493125  -0.03666184  1
  In  In28  1  0.30101528  0.84058653  0.16972086  1
  In  In29  1  0.01189510  0.81716802  0.83517312  1
  In  In30  1  0.17069468  0.00792541  0.83905007  1
  In  In31  1  0.15825849  0.34876186  0.50082698  1
  In  In32  1  0.00368653  0.01659578  0.66802816  1
  In  In33  1  0.01582905  0.35737064  0.32683518  1
  In  In34  1  0.16660999  0.17829489  0.34099023  1
  In  In35  1  -0.01106359  0.18983839  0.83606523  1
  In  In36  1  0.17491086  0.83062231  0.01084494  1
  In  In37  1  0.34894054  0.15666154  0.81900429  1
  In  In38  1  -0.01548421  0.61067734  0.63743770  1
  In  In39  1  0.33383998  0.50028155  0.15758062  1
  In  In40  1  0.33436998  0.85100690  0.85865532  1
  In  In41  1  0.67403729  0.34080989  -0.00737576  1
  In  In42  1  0.51745980  0.00917124  0.51243014  1
  In  In43  1  0.66323929  0.84412638  0.80460102  1
  In  In44  1  0.51041657  0.85234092  0.65971984  1
  In  In45  1  -0.00612635  0.82427822  0.47754683  1
  In  In46  1  0.50239868  0.31458776  0.51005529  1
  In  In47  1  0.34768034  0.80720646  0.51342348  1
  In  In48  1  0.68498912  0.21277569  0.53291791  1
  In  In49  1  0.67635832  0.03040025  0.33510160  1
  In  In50  1  0.82938649  0.84073738  0.66840775  1
  In  In51  1  0.19016642  0.01612442  0.50410896  1
  In  In52  1  0.32619748  -0.02722367  0.32266669  1
  In  In53  1  0.83644414  0.34867596  0.80427587  1
  In  In54  1  -0.00058721  0.63804998  0.32325844  1
  In  In55  1  0.65718523  0.62259150  0.38072929  1
  In  In56  1  0.49010553  0.47699418  -0.00291539  1
  In  In57  1  0.84747379  -0.00593390  0.15293894  1
  In  In58  1  0.16356683  0.48950516  0.34994987  1
  In  In59  1  0.66231138  0.19272149  0.79258977  1
  In  In60  1  0.15107801  0.33836151  0.84175458  1
  In  In61  1  0.15187546  0.80086265  0.31899904  1
  In  In62  1  0.00389730  0.49797311  0.81578788  1
  In  In63  1  0.30683837  0.18215658  0.14615291  1
  In  In64  1  0.49268510  0.66732918  0.17040990  1
  In  In65  1  0.00636290  0.84603141  0.15088279  1
  In  In66  1  -0.01442715  -0.02077294  0.33646298  1
  In  In67  1  0.68363182  0.18685159  0.18478841  1
  In  In68  1  0.14602097  0.35257548  0.13993590  1
  In  In69  1  0.84699806  0.49809307  -0.01138511  1
  In  In70  1  0.68619442  0.49126557  0.17222074  1
  In  In71  1  0.15053511  0.82315888  0.67459398  1
  Te  Te72  1  0.05221395  0.12860875  0.05537341  1
  Te  Te73  1  0.07808881  0.07893682  0.41856720  1
  Te  Te74  1  0.09001643  0.10641352  0.75353305  1
  Te  Te75  1  0.03140598  0.38063967  0.05051623  1
  Te  Te76  1  0.04979193  0.44973785  0.45783025  1
  Te  Te77  1  0.05956936  0.38528217  0.73332718  1
  Te  Te78  1  0.09484430  0.73616510  0.09753526  1
  Te  Te79  1  0.08854693  0.71588125  0.42671452  1
  Te  Te80  1  0.06096618  0.71712755  0.73281779  1
  Te  Te81  1  0.40552505  0.12412661  0.04431150  1
  Te  Te82  1  0.39778826  0.06858881  0.41961319  1
  Te  Te83  1  0.43877200  0.05014923  0.76175784  1
  Te  Te84  1  0.39579193  0.38645525  0.07239980  1
  Te  Te85  1  0.44419131  0.42594807  0.42107552  1
  Te  Te86  1  0.40769098  0.40163681  0.76847258  1
  Te  Te87  1  0.41571203  0.75909675  0.07513340  1
  Te  Te88  1  0.40825700  0.71075355  0.41861772  1
  Te  Te89  1  0.41907351  0.76163261  0.75792019  1
  Te  Te90  1  0.74795050  0.09156199  0.07953228  1
  Te  Te91  1  0.75375327  0.10196151  0.44153568  1
  Te  Te92  1  0.73894371  0.08708692  0.71887932  1
  Te  Te93  1  0.77617046  0.40337016  0.08653054  1
  Te  Te94  1  0.74371992  0.41844956  0.46297982  1
  Te  Te95  1  0.72848007  0.41601632  0.72914401  1
  Te  Te96  1  0.78210458  0.76463622  0.08064460  1
  Te  Te97  1  0.74972463  0.72401071  0.45183726  1
  Te  Te98  1  0.73920493  0.74174532  0.73227809  1
  Te  Te99  1  0.08264436  0.24891601  0.23916003  1
  Te  Te100  1  0.09050120  0.27030097  0.60808980  1
  Te  Te101  1  0.09673941  0.22378390  0.93876874  1
  Te  Te102  1  0.08935690  0.55666729  0.24047786  1
  Te  Te103  1  0.09815342  0.54218066  0.57230689  1
  Te  Te104  1  0.09905155  0.56805615  0.90704723  1
  Te  Te105  1  0.09787383  0.92976317  0.24090765  1
  Te  Te106  1  0.08181124  0.91614510  0.57102863  1
  Te  Te107  1  0.08334009  0.91778529  0.92627303  1
  Te  Te108  1  0.41948453  0.23324850  0.24681140  1
  Te  Te109  1  0.46035820  0.22831551  0.63529494  1
  Te  Te110  1  0.44207222  0.22115694  0.91781333  1
  Te  Te111  1  0.43320390  0.55906365  0.24925437  1
  Te  Te112  1  0.40495347  0.57677171  0.60043706  1
  Te  Te113  1  0.41713696  0.58944720  0.92173556  1
  Te  Te114  1  0.43511170  0.90834584  0.23585044  1
  Te  Te115  1  0.40465534  0.93126647  0.58150851  1
  Te  Te116  1  0.42417095  0.96786219  0.89562881  1
  Te  Te117  1  0.76690714  0.28255916  0.25751086  1
  Te  Te118  1  0.79991476  0.27954174  0.60470457  1
  Te  Te119  1  0.76145944  0.24747778  0.90768996  1
  Te  Te120  1  0.75471185  0.59813860  0.25827423  1
  Te  Te121  1  0.80359264  0.53036827  0.54548673  1
  Te  Te122  1  0.75818684  0.58919996  0.90508733  1
  Te  Te123  1  0.74656360  0.92102500  0.24576857  1
  Te  Te124  1  0.73543714  0.93301795  0.60071370  1
  Te  Te125  1  0.74491521  0.90615521  0.91786659  1
  Te  Te126  1  0.22407006  0.25936882  0.04909669  1
  Te  Te127  1  0.26703700  0.24918781  0.43551896  1
  Te  Te128  1  0.25467437  0.26138206  0.75516745  1
  Te  Te129  1  0.22405739  0.56340404  0.08251391  1
  Te  Te130  1  0.26141216  0.57859926  0.41402129  1
  Te  Te131  1  0.20948893  0.58146698  0.76447991  1
  Te  Te132  1  0.26443609  0.94248969  0.06474339  1
  Te  Te133  1  0.23987983  0.89239053  0.41910704  1
  Te  Te134  1  0.24923741  0.91399802  0.74580170  1
  Te  Te135  1  0.58940704  0.25199305  0.08334310  1
  Te  Te136  1  0.60963461  0.26413851  0.40771998  1
  Te  Te137  1  0.58147019  0.28826671  0.71442319  1
  Te  Te138  1  0.58854168  0.57153006  0.07399967  1
  Te  Te139  1  0.59160237  0.54097868  0.48285308  1
  Te  Te140  1  0.60238506  0.59395811  0.71736490  1
  Te  Te141  1  0.59267122  0.92899512  0.07706269  1
  Te  Te142  1  0.58891840  0.92266401  0.40526009  1
  Te  Te143  1  0.56741593  0.95001296  0.75953740  1
  Te  Te144  1  0.94522590  0.26150310  0.10190639  1
  Te  Te145  1  0.92511940  0.26571673  0.40977402  1
  Te  Te146  1  0.89450739  0.23202693  0.72709235  1
  Te  Te147  1  0.94183939  0.57297454  0.08155025  1
  Te  Te148  1  0.90948914  0.60759810  0.43854921  1
  Te  Te149  1  0.89358189  0.56364038  0.74320769  1
  Te  Te150  1  0.92861442  0.92283185  0.05333724  1
  Te  Te151  1  0.88397817  0.92371818  0.43546462  1
  Te  Te152  1  0.92479494  0.92518711  0.76345551  1
  Te  Te153  1  0.24702109  0.08066987  0.24692392  1
  Te  Te154  1  0.24423984  0.09388809  0.61599087  1
  Te  Te155  1  0.25797400  0.09411935  0.92041743  1
  Te  Te156  1  0.24872747  0.39455562  0.25454367  1
  Te  Te157  1  0.22914084  0.43510530  0.61097416  1
  Te  Te158  1  0.24085290  0.41338690  0.93398641  1
  Te  Te159  1  0.26202173  0.72820789  0.25349501  1
  Te  Te160  1  0.23622262  0.73224628  0.58587161  1
  Te  Te161  1  0.23645987  0.74175216  0.90267579  1
  Te  Te162  1  0.56865477  0.08841341  0.24361900  1
  Te  Te163  1  0.60595703  0.09830270  0.58897841  1
  Te  Te164  1  0.57547387  0.13501778  0.90479493  1
  Te  Te165  1  0.59246195  0.42384895  0.26382794  1
  Te  Te166  1  0.59348971  0.41637729  0.58145946  1
  Te  Te167  1  0.56900477  0.39488739  0.89662067  1
  Te  Te168  1  0.59376512  0.73506727  0.27271668  1
  Te  Te169  1  0.55343281  0.74625531  0.56658289  1
  Te  Te170  1  0.58271025  0.74848908  0.92126216  1
  Te  Te171  1  0.92643389  0.08605934  0.24539559  1
  Te  Te172  1  0.91254329  0.08660384  0.57709159  1
  Te  Te173  1  0.91569004  0.07766382  0.91215320  1
  Te  Te174  1  0.91881859  0.44418706  0.25771908  1
  Te  Te175  1  0.88294423  0.40488653  0.56131052  1
  Te  Te176  1  0.93172383  0.39316728  0.91661838  1
  Te  Te177  1  0.92368573  0.77058831  0.26370157  1
  Te  Te178  1  0.92519364  0.75111369  0.59118779  1
  Te  Te179  1  0.90999264  0.74095046  0.90894841  1
