# generated using pymatgen
data_In2Te3
_symmetry_space_group_name_H-M   'P 1'
_cell_length_a   18.76623225
_cell_length_b   18.76481393
_cell_length_c   18.75361909
_cell_angle_alpha   90.02284576
_cell_angle_beta   89.99577844
_cell_angle_gamma   89.90434236
_symmetry_Int_Tables_number   1
_chemical_formula_structural   In2Te3
_chemical_formula_sum   'In72 Te108'
_cell_volume   6603.98074990
_cell_formula_units_Z   36
loop_
 _symmetry_equiv_pos_site_id
 _symmetry_equiv_pos_as_xyz
  1  'x, y, z'
loop_
 _atom_site_type_symbol
 _atom_site_label
 _atom_site_symmetry_multiplicity
 _atom_site_fract_x
 _atom_site_fract_y
 _atom_site_fract_z
 _atom_site_occupancy
  In  In0  1  0.16854734  0.13606958  0.35638014  1
  In  In1  1  0.51936999  0.69672160  0.17795971  1
  In  In2  1  0.68094544  0.33474618  0.67556661  1
  In  In3  1  0.68537296  0.16250808  0.83754387  1
  In  In4  1  0.14716479  0.68645352  0.50247990  1
  In  In5  1  0.32541930  0.68466617  0.31307939  1
  In  In6  1  -0.01539092  0.50334627  0.51250700  1
  In  In7  1  0.32170017  0.35649595  -0.00093411  1
  In  In8  1  0.50069153  0.52542520  -0.02038997  1
  In  In9  1  0.82585291  0.66930904  0.16083541  1
  In  In10  1  0.66549439  -0.00756030  -0.00153175  1
  In  In11  1  -0.00355665  0.50639178  0.81587205  1
  In  In12  1  -0.01315924  0.81682315  0.85295172  1
  In  In13  1  0.17009679  0.81593311  -0.00983332  1
  In  In14  1  0.02081616  0.49144562  0.15992841  1
  In  In15  1  0.68278065  0.50868441  0.50956055  1
  In  In16  1  0.35066638  0.33284258  0.66647923  1
  In  In17  1  0.32781020  0.82815991  0.50166947  1
  In  In18  1  0.66409546  0.15128690  0.17240043  1
  In  In19  1  0.50515670  0.32522828  0.15368099  1
  In  In20  1  0.83000715  0.81884647  0.65008615  1
  In  In21  1  0.52918983  0.68155447  0.51003742  1
  In  In22  1  0.32285516  0.18479338  0.19953774  1
  In  In23  1  0.32536173  -0.01959354  0.35344425  1
  In  In24  1  0.00159491  0.65382315  0.34470710  1
  In  In25  1  0.49667547  0.48711663  0.65537232  1
  In  In26  1  0.51030270  0.17307198  0.01793240  1
  In  In27  1  0.50133874  0.83576833  -0.00533556  1
  In  In28  1  0.86209125  0.17151040  0.68670251  1
  In  In29  1  0.49551193  -0.02319915  0.49940019  1
  In  In30  1  0.32458508  0.14583840  0.53298572  1
  In  In31  1  -0.00064834  -0.02049046  0.35401292  1
  In  In32  1  0.51057157  0.36415661  0.81078767  1
  In  In33  1  0.15120662  0.50640142  0.32725521  1
  In  In34  1  0.83881821  0.33221511  0.50530726  1
  In  In35  1  0.33772839  0.34656266  0.31923747  1
  In  In36  1  0.83204423  0.81947234  0.00021669  1
  In  In37  1  0.16094381  0.30519754  0.52103310  1
  In  In38  1  -0.01019558  0.68043895  0.66716357  1
  In  In39  1  0.16769110  0.67389936  0.82717422  1
  In  In40  1  0.84843979  0.50094846  -0.02449875  1
  In  In41  1  0.50031309  0.14066019  0.64754907  1
  In  In42  1  0.65070698  0.30947409  0.36604685  1
  In  In43  1  0.33219990  0.66812105  0.67985738  1
  In  In44  1  0.00860071  -0.01201857  -0.00859105  1
  In  In45  1  0.67422175  0.82834643  0.49879387  1
  In  In46  1  0.67882479  0.67343948  0.65096790  1
  In  In47  1  0.14650209  0.34392572  0.83047087  1
  In  In48  1  0.32308986  0.47892195  0.49464178  1
  In  In49  1  0.01608920  -0.00777164  0.64709954  1
  In  In50  1  0.34489583  0.16003752  0.84857906  1
  In  In51  1  0.16218200  0.15105707  0.66669671  1
  In  In52  1  0.14476658  0.17211136  -0.01963327  1
  In  In53  1  0.51053743  -0.00051182  0.18167985  1
  In  In54  1  0.84759820  0.34807484  0.16857329  1
  In  In55  1  0.66742435  0.51710315  0.16713807  1
  In  In56  1  0.49054682  0.67772790  0.83687767  1
  In  In57  1  -0.00946629  0.15320344  0.17738250  1
  In  In58  1  0.52124577  -0.03750046  0.80098633  1
  In  In59  1  0.16677607  0.52537509  0.01201485  1
  In  In60  1  0.32473140  0.82401776  0.15814421  1
  In  In61  1  -0.01975247  0.33428346  0.32471070  1
  In  In62  1  0.68444734  0.50507186  0.83406977  1
  In  In63  1  0.15175470  0.35263630  0.16272786  1
  In  In64  1  0.33035090  0.00073672  -0.01378729  1
  In  In65  1  0.82783480  0.15794193  0.35375355  1
  In  In66  1  0.50174055  0.51830076  0.33699982  1
  In  In67  1  0.82188867  -0.00368247  0.83545207  1
  In  In68  1  0.01657125  0.83901837  0.15796135  1
  In  In69  1  0.68842127  -0.00675062  0.33576553  1
  In  In70  1  0.82589977  0.84000956  0.34856383  1
  In  In71  1  0.83101957  0.18044291  -0.00370105  1
  Te  Te72  1  0.08894436  0.07731820  0.08760282  1
  Te  Te73  1  0.06238227  0.08440365  0.44318454  1
  Te  Te74  1  0.07487081  0.07340329  0.75778994  1
  Te  Te75  1  0.07339277  0.40344623  0.04520692  1
  Te  Te76  1  0.08551528  0.40571304  0.42002632  1
  Te  Te77  1  0.06794155  0.41175391  0.72323622  1
  Te  Te78  1  0.07200313  0.73656528  0.06655803  1
  Te  Te79  1  0.06546315  0.77002628  0.41272813  1
  Te  Te80  1  0.08503675  0.77267605  0.74315204  1
  Te  Te81  1  0.41105363  0.08204554  0.09122106  1
  Te  Te82  1  0.41168895  0.08375409  0.42245904  1
  Te  Te83  1  0.40150321  0.06641594  0.74021901  1
  Te  Te84  1  0.42553092  0.43220834  0.08060225  1
  Te  Te85  1  0.43595105  0.40918363  0.42082930  1
  Te  Te86  1  0.39339461  0.44642016  0.76130072  1
  Te  Te87  1  0.41321391  0.73715553  0.07152710  1
  Te  Te88  1  0.42294978  0.74422028  0.41536071  1
  Te  Te89  1  0.41887032  0.76911519  0.74322817  1
  Te  Te90  1  0.76221787  0.07444151  0.08396388  1
  Te  Te91  1  0.74491732  0.07625310  0.44490565  1
  Te  Te92  1  0.74216903  0.07393474  0.73157650  1
  Te  Te93  1  0.75616150  0.42826082  0.07777131  1
  Te  Te94  1  0.75256803  0.41372553  0.40858372  1
  Te  Te95  1  0.77237145  0.43031083  0.74022332  1
  Te  Te96  1  0.73086981  0.76080657  0.09203975  1
  Te  Te97  1  0.75944143  0.73147459  0.42645714  1
  Te  Te98  1  0.74936252  0.75199357  0.75508045  1
  Te  Te99  1  0.09438342  0.24494169  0.25731655  1
  Te  Te100  1  0.06187695  0.24837529  0.61430612  1
  Te  Te101  1  0.05588316  0.23569512  0.87929046  1
  Te  Te102  1  0.09625959  0.60841821  0.23017660  1
  Te  Te103  1  0.08598948  0.58224484  0.59473392  1
  Te  Te104  1  0.07095350  0.59644760  0.91690152  1
  Te  Te105  1  0.09398519  0.92279137  0.25323634  1
  Te  Te106  1  0.11787789  0.92350950  0.56053107  1
  Te  Te107  1  0.09942281  0.91345718  0.89466283  1
  Te  Te108  1  0.44339207  0.24366846  0.26756838  1
  Te  Te109  1  0.43610178  0.25586200  0.56524512  1
  Te  Te110  1  0.42713290  0.26726126  0.92133909  1
  Te  Te111  1  0.41899582  0.59189045  0.23444809  1
  Te  Te112  1  0.41924707  0.58409654  0.56521196  1
  Te  Te113  1  0.38910498  0.59796742  0.91276450  1
  Te  Te114  1  0.41449036  0.90492189  0.25335018  1
  Te  Te115  1  0.40090496  0.91724976  0.60240820  1
  Te  Te116  1  0.40915053  0.90847845  0.89537592  1
  Te  Te117  1  0.75841091  0.25220206  0.25082270  1
  Te  Te118  1  0.75364663  0.23590029  0.58666954  1
  Te  Te119  1  0.75295956  0.27362058  0.90755503  1
  Te  Te120  1  0.74223862  0.60037787  0.26321531  1
  Te  Te121  1  0.77944519  0.57428558  0.60170403  1
  Te  Te122  1  0.75430663  0.60371269  0.92080612  1
  Te  Te123  1  0.75447647  0.90742486  0.23636533  1
  Te  Te124  1  0.73978027  0.92541773  0.59280672  1
  Te  Te125  1  0.73113527  0.89494216  0.90326636  1
  Te  Te126  1  0.25183218  0.24211055  0.07627812  1
  Te  Te127  1  0.26118361  0.24995882  0.41758358  1
  Te  Te128  1  0.25826285  0.24680717  0.75333857  1
  Te  Te129  1  0.24986681  0.56812653  0.12382869  1
  Te  Te130  1  0.24815834  0.59017889  0.41945919  1
  Te  Te131  1  0.23318696  0.57529969  0.73610159  1
  Te  Te132  1  0.23875189  0.92241014  0.07829049  1
  Te  Te133  1  0.21885133  0.90585779  0.42876813  1
  Te  Te134  1  0.28508876  0.96277184  0.70125305  1
  Te  Te135  1  0.62037785  0.26126938  0.07461017  1
  Te  Te136  1  0.55761548  0.23794936  0.45028022  1
  Te  Te137  1  0.57233626  0.23877366  0.74811879  1
  Te  Te138  1  0.59026290  0.60803679  0.07175726  1
  Te  Te139  1  0.60965494  0.59965633  0.40758965  1
  Te  Te140  1  0.58275506  0.58069229  0.73904886  1
  Te  Te141  1  0.59437397  0.90284455  0.09965256  1
  Te  Te142  1  0.57532012  0.89249630  0.39565859  1
  Te  Te143  1  0.62243885  0.89929554  0.71242060  1
  Te  Te144  1  0.93444352  0.25783956  0.08019519  1
  Te  Te145  1  0.93488240  0.23635450  0.43012338  1
  Te  Te146  1  0.89232696  0.26681018  0.79726570  1
  Te  Te147  1  0.92477423  0.58274497  0.08130907  1
  Te  Te148  1  0.89819956  0.58373652  0.42421037  1
  Te  Te149  1  0.89725401  0.59313048  0.74323576  1
  Te  Te150  1  0.90885263  0.92190663  0.08411378  1
  Te  Te151  1  0.91557590  0.90179363  0.45262601  1
  Te  Te152  1  0.91607257  0.91082874  0.75004493  1
  Te  Te153  1  0.24619790  0.06340817  0.24613802  1
  Te  Te154  1  0.22702816  0.03390752  0.57599404  1
  Te  Te155  1  0.22923532  0.07278401  0.89680175  1
  Te  Te156  1  0.25978431  0.44416232  0.22591776  1
  Te  Te157  1  0.23703519  0.41356002  0.59996572  1
  Te  Te158  1  0.24065744  0.44052715  0.90364218  1
  Te  Te159  1  0.22352755  0.77425679  0.25540316  1
  Te  Te160  1  0.23442425  0.76083383  0.60306551  1
  Te  Te161  1  0.27170134  0.73877911  0.91300281  1
  Te  Te162  1  0.57936115  0.09114233  0.28207181  1
  Te  Te163  1  0.59665350  0.06725224  0.56204428  1
  Te  Te164  1  0.56888338  0.07743860  0.91026955  1
  Te  Te165  1  0.58607660  0.41357399  0.25295550  1
  Te  Te166  1  0.59052617  0.40345591  0.57074360  1
  Te  Te167  1  0.59484243  0.41674856  0.92446549  1
  Te  Te168  1  0.57313469  0.77738427  0.28782477  1
  Te  Te169  1  0.56832386  0.78658879  0.61683320  1
  Te  Te170  1  0.59262677  0.75347688  0.91182746  1
  Te  Te171  1  0.90331894  0.06301411  0.25998684  1
  Te  Te172  1  0.91934790  0.08495213  0.58129912  1
  Te  Te173  1  0.91818801  0.08460373  0.91302703  1
  Te  Te174  1  0.90979278  0.45238987  0.26152046  1
  Te  Te175  1  0.92250982  0.40480242  0.60440704  1
  Te  Te176  1  0.91667815  0.39637830  0.88890320  1
  Te  Te177  1  0.92198933  0.75554254  0.25037204  1
  Te  Te178  1  0.93724670  0.76923917  0.55651807  1
  Te  Te179  1  0.89558664  0.71615024  0.91236828  1
