# generated using pymatgen
data_In2Te3
_symmetry_space_group_name_H-M   'P 1'
_cell_length_a   18.80178578
_cell_length_b   18.80194813
_cell_length_c   18.78810014
_cell_angle_alpha   89.99695926
_cell_angle_beta   89.97056748
_cell_angle_gamma   90.10545173
_symmetry_Int_Tables_number   1
_chemical_formula_structural   In2Te3
_chemical_formula_sum   'In72 Te108'
_cell_volume   6641.77292485
_cell_formula_units_Z   36
loop_
 _symmetry_equiv_pos_site_id
 _symmetry_equiv_pos_as_xyz
  1  'x, y, z'
loop_
 _atom_site_type_symbol
 _atom_site_label
 _atom_site_symmetry_multiplicity
 _atom_site_fract_x
 _atom_site_fract_y
 _atom_site_fract_z
 _atom_site_occupancy
  In  In0  1  0.17349369  0.02991021  0.83587977  1
  In  In1  1  0.32424939  0.36297547  0.67275193  1
  In  In2  1  0.83711525  0.34204319  0.17970724  1
  In  In3  1  0.83925906  0.17362119  0.67702572  1
  In  In4  1  0.18182450  0.82485859  0.31303126  1
  In  In5  1  0.17490593  -0.00526551  0.16605836  1
  In  In6  1  0.67389162  0.00177404  0.68012013  1
  In  In7  1  0.49268124  0.35315730  0.49886996  1
  In  In8  1  -0.02501023  0.83295710  0.80630867  1
  In  In9  1  0.49730284  0.16180407  0.31641733  1
  In  In10  1  0.66704752  0.31868647  -0.01230234  1
  In  In11  1  0.17363339  0.65739429  0.16901820  1
  In  In12  1  0.15635035  0.35692785  0.84319238  1
  In  In13  1  0.18571938  0.82313899  0.65105843  1
  In  In14  1  0.67496285  0.82275884  0.50877443  1
  In  In15  1  0.50068075  0.01362743  0.86336198  1
  In  In16  1  0.01626033  0.67158357  -0.01468572  1
  In  In17  1  0.51102850  0.33094886  0.82497256  1
  In  In18  1  0.34722194  -0.03730767  0.32939909  1
  In  In19  1  0.17001697  0.65133501  0.84566841  1
  In  In20  1  0.52427977  0.16789039  0.00984188  1
  In  In21  1  -0.00076610  0.82440336  0.49257962  1
  In  In22  1  0.49994120  0.50659025  0.65917403  1
  In  In23  1  -0.00463215  0.17790891  0.17849533  1
  In  In24  1  0.65851312  0.49836259  0.51222334  1
  In  In25  1  0.67402646  0.48929836  0.83475351  1
  In  In26  1  0.83736551  0.83598463  0.69511312  1
  In  In27  1  0.85068420  0.32886053  0.49643468  1
  In  In28  1  0.00147174  0.51407698  0.18455810  1
  In  In29  1  -0.01923949  0.00341827  0.00311151  1
  In  In30  1  0.00214228  0.18001991  0.49593510  1
  In  In31  1  0.34104220  0.50369171  0.18311244  1
  In  In32  1  0.33781821  0.34730247  0.33831308  1
  In  In33  1  0.64998917  0.51671488  0.17416111  1
  In  In34  1  0.16897505  0.50722398  0.00780023  1
  In  In35  1  -0.00466201  0.34074622  -0.01150238  1
  In  In36  1  0.17028622  0.50333799  0.64461457  1
  In  In37  1  0.14839084  0.17291420  0.31795273  1
  In  In38  1  0.66257482  0.67486135  0.66937882  1
  In  In39  1  0.84294703  0.67683962  0.82731862  1
  In  In40  1  0.33359413  0.81433852  0.48345344  1
  In  In41  1  0.67355681  0.15649892  0.50741053  1
  In  In42  1  -0.00550846  0.00709153  0.32919577  1
  In  In43  1  0.32484121  0.66554926  0.63930513  1
  In  In44  1  0.64758198  0.82648076  0.16049307  1
  In  In45  1  0.50807030  0.82374040  0.66696972  1
  In  In46  1  -0.01980875  -0.02210240  0.66672124  1
  In  In47  1  0.16736835  0.83990016  -0.00781012  1
  In  In48  1  0.00312158  0.64484637  0.64798595  1
  In  In49  1  0.84284598  0.82662836  0.32825703  1
  In  In50  1  0.16759521  0.18070486  0.64600558  1
  In  In51  1  0.52264024  -0.00760535  0.16765157  1
  In  In52  1  0.34866366  0.16029284  0.49447713  1
  In  In53  1  0.14134002  0.36269005  0.47186501  1
  In  In54  1  0.36142595  0.82850742  0.84976844  1
  In  In55  1  -0.02002493  0.63670746  0.33903897  1
  In  In56  1  0.66328698  0.33998395  0.31317687  1
  In  In57  1  0.33175711  0.15470286  0.84838634  1
  In  In58  1  0.50141305  0.80949507  0.33784919  1
  In  In59  1  0.66479792  0.65983149  0.33561544  1
  In  In60  1  0.80416033  0.67653893  0.16346141  1
  In  In61  1  0.33543989  0.18388905  0.16169229  1
  In  In62  1  0.62849950  0.66641395  0.01301300  1
  In  In63  1  0.66699696  0.01965218  0.34003275  1
  In  In64  1  0.80848494  0.01374190  0.13398771  1
  In  In65  1  0.31835779  0.34585733  0.02611821  1
  In  In66  1  0.34211153  -0.01160539  0.66517059  1
  In  In67  1  0.32276839  -0.01395700  -0.00966312  1
  In  In68  1  0.81891358  0.48084670  0.66802634  1
  In  In69  1  0.84508556  0.48583160  -0.01200617  1
  In  In70  1  -0.02228212  0.17198981  0.83990597  1
  In  In71  1  0.53966394  0.18409104  0.66735832  1
  Te  Te72  1  0.07896557  0.08456068  0.08885512  1
  Te  Te73  1  0.09153524  0.07815176  0.42314267  1
  Te  Te74  1  0.07463760  0.08837614  0.73487492  1
  Te  Te75  1  0.07831574  0.41903384  0.09105380  1
  Te  Te76  1  0.02709847  0.42922251  0.40116661  1
  Te  Te77  1  0.08370455  0.42086241  0.73296303  1
  Te  Te78  1  0.08530039  0.75649907  0.09121431  1
  Te  Te79  1  0.07865560  0.74210257  0.39354629  1
  Te  Te80  1  0.08828938  0.74000186  0.74523011  1
  Te  Te81  1  0.41399994  0.07645875  0.08552271  1
  Te  Te82  1  0.43208374  0.06214696  0.41202474  1
  Te  Te83  1  0.42500909  0.09011264  0.74542477  1
  Te  Te84  1  0.42620856  0.42458038  0.08804676  1
  Te  Te85  1  0.42900697  0.44751799  0.40286229  1
  Te  Te86  1  0.41605134  0.43657622  0.76836003  1
  Te  Te87  1  0.47609402  0.72636765  0.05413697  1
  Te  Te88  1  0.41245215  0.71095537  0.40900034  1
  Te  Te89  1  0.41628197  0.73133414  0.74623639  1
  Te  Te90  1  0.74442138  0.11647528  0.04697505  1
  Te  Te91  1  0.76954650  0.09094124  0.41753901  1
  Te  Te92  1  0.73121920  0.11254283  0.76231848  1
  Te  Te93  1  0.74145630  0.42812752  0.08525832  1
  Te  Te94  1  0.74481430  0.41250869  0.42020861  1
  Te  Te95  1  0.75640726  0.38777738  0.76613627  1
  Te  Te96  1  0.74310333  0.76470772  0.05732605  1
  Te  Te97  1  0.76615811  0.73434784  0.42301145  1
  Te  Te98  1  0.72210487  0.76694364  0.77876342  1
  Te  Te99  1  0.07700557  0.28011043  0.24879895  1
  Te  Te100  1  0.07323712  0.28214266  0.58643665  1
  Te  Te101  1  0.08959551  0.24206608  0.91913833  1
  Te  Te102  1  0.11047350  0.57062214  0.27602501  1
  Te  Te103  1  0.08764786  0.57744093  0.53899236  1
  Te  Te104  1  0.06616793  0.55494164  0.90259864  1
  Te  Te105  1  0.07386841  0.90966367  0.24253912  1
  Te  Te106  1  0.08845288  0.91601818  0.57833386  1
  Te  Te107  1  0.07772142  0.92391881  0.90131001  1
  Te  Te108  1  0.43051909  0.27392516  0.23925172  1
  Te  Te109  1  0.41238884  0.25279348  0.60073612  1
  Te  Te110  1  0.41804247  0.25278108  0.92593935  1
  Te  Te111  1  0.38766872  0.61490840  0.26982934  1
  Te  Te112  1  0.41693602  0.57941560  0.56214653  1
  Te  Te113  1  0.45753429  0.63301142  0.93925992  1
  Te  Te114  1  0.42811767  0.88662230  0.22596731  1
  Te  Te115  1  0.42424606  0.90618569  0.56808165  1
  Te  Te116  1  0.44444035  0.90263783  0.95491830  1
  Te  Te117  1  0.75225961  0.24226811  0.24912972  1
  Te  Te118  1  0.74797203  0.26061411  0.58885850  1
  Te  Te119  1  0.78192772  0.23290018  0.94826360  1
  Te  Te120  1  0.76522987  0.56887208  0.26290731  1
  Te  Te121  1  0.75685341  0.59313116  0.58356067  1
  Te  Te122  1  0.75093660  0.59096384  0.92284802  1
  Te  Te123  1  0.74228053  0.91204794  0.25197941  1
  Te  Te124  1  0.76261599  0.91937202  0.58717288  1
  Te  Te125  1  0.75969259  0.89967613  0.85302781  1
  Te  Te126  1  0.22542095  0.26047208  0.10181948  1
  Te  Te127  1  0.24449411  0.24663727  0.42335063  1
  Te  Te128  1  0.25115158  0.24989391  0.75652638  1
  Te  Te129  1  0.27274699  0.59549850  0.07165072  1
  Te  Te130  1  0.22567371  0.55608574  0.47230488  1
  Te  Te131  1  0.25832221  0.57730775  0.74733873  1
  Te  Te132  1  0.26580120  0.89256673  0.09779204  1
  Te  Te133  1  0.23585708  0.91642227  0.42244040  1
  Te  Te134  1  0.25016166  0.90930921  0.76678967  1
  Te  Te135  1  0.58699365  0.26583436  0.10038865  1
  Te  Te136  1  0.57279320  0.24581853  0.42310156  1
  Te  Te137  1  0.61510878  0.23090805  0.78666509  1
  Te  Te138  1  0.53724342  0.56932612  0.08625295  1
  Te  Te139  1  0.57516717  0.56971721  0.41253892  1
  Te  Te140  1  0.58077541  0.58648199  0.76217652  1
  Te  Te141  1  0.60890883  0.93173416  0.06235962  1
  Te  Te142  1  0.58978539  0.90780054  0.41413450  1
  Te  Te143  1  0.57442714  0.92031305  0.76397502  1
  Te  Te144  1  0.90738426  0.25171727  0.07675565  1
  Te  Te145  1  0.91623393  0.24353211  0.39484651  1
  Te  Te146  1  0.92790839  0.27283330  0.74437102  1
  Te  Te147  1  0.91453747  0.59053711  0.07931299  1
  Te  Te148  1  0.93048099  0.54330836  0.44605237  1
  Te  Te149  1  0.91833475  0.57085195  0.75164462  1
  Te  Te150  1  0.90443809  0.91142903  0.08909877  1
  Te  Te151  1  0.90678089  0.92569824  0.42535693  1
  Te  Te152  1  0.88114942  0.96301923  0.78744856  1
  Te  Te153  1  0.26637621  0.07923668  0.26248933  1
  Te  Te154  1  0.25039073  0.07263554  0.57639642  1
  Te  Te155  1  0.23426747  0.10445390  0.95455436  1
  Te  Te156  1  0.24087020  0.41936297  0.25371876  1
  Te  Te157  1  0.27181766  0.42646060  0.54326043  1
  Te  Te158  1  0.26669905  0.43532809  0.91313219  1
  Te  Te159  1  0.28122272  0.73049489  0.25028336  1
  Te  Te160  1  0.22194388  0.72403403  0.54119855  1
  Te  Te161  1  0.26319868  0.73874616  0.92913597  1
  Te  Te162  1  0.60769928  0.10477010  0.22756087  1
  Te  Te163  1  0.57359063  0.06540045  0.57977561  1
  Te  Te164  1  0.61677013  0.07408508  0.93718235  1
  Te  Te165  1  0.56409615  0.44083371  0.26994229  1
  Te  Te166  1  0.59195556  0.39701809  0.60758137  1
  Te  Te167  1  0.57189958  0.42538942  0.92863222  1
  Te  Te168  1  0.56853462  0.71907947  0.23340892  1
  Te  Te169  1  0.56753771  0.72861263  0.56310945  1
  Te  Te170  1  0.55674572  0.74371500  0.90744730  1
  Te  Te171  1  0.89484077  0.08326040  0.24321584  1
  Te  Te172  1  0.91375218  0.08334654  0.57901099  1
  Te  Te173  1  0.88457811  0.09521010  0.93045933  1
  Te  Te174  1  0.92044314  0.42377638  0.27481497  1
  Te  Te175  1  0.92651090  0.43592982  0.57228505  1
  Te  Te176  1  0.90438020  0.39765361  0.88484245  1
  Te  Te177  1  0.92475926  0.73843231  0.23600517  1
  Te  Te178  1  0.90808966  0.74634015  0.58666994  1
  Te  Te179  1  0.91165352  0.76744057  0.93056623  1
