# generated using pymatgen
data_In2Te3
_symmetry_space_group_name_H-M   'P 1'
_cell_length_a   18.94965861
_cell_length_b   18.92691630
_cell_length_c   18.94657310
_cell_angle_alpha   90.09183618
_cell_angle_beta   90.11965233
_cell_angle_gamma   90.09383347
_symmetry_Int_Tables_number   1
_chemical_formula_structural   In2Te3
_chemical_formula_sum   'In72 Te108'
_cell_volume   6795.31873399
_cell_formula_units_Z   36
loop_
 _symmetry_equiv_pos_site_id
 _symmetry_equiv_pos_as_xyz
  1  'x, y, z'
loop_
 _atom_site_type_symbol
 _atom_site_label
 _atom_site_symmetry_multiplicity
 _atom_site_fract_x
 _atom_site_fract_y
 _atom_site_fract_z
 _atom_site_occupancy
  In  In0  1  0.67080987  -0.01782092  0.01372769  1
  In  In1  1  -0.01204305  0.51456373  0.50811429  1
  In  In2  1  0.48778712  0.48878885  0.33154569  1
  In  In3  1  0.48596155  0.16009018  0.33149792  1
  In  In4  1  0.65131001  0.15863517  0.20063808  1
  In  In5  1  0.15142669  0.69467479  0.48508892  1
  In  In6  1  0.64243663  0.83813110  0.48610251  1
  In  In7  1  0.32837103  0.49811296  0.49815601  1
  In  In8  1  0.68067853  0.49715304  0.50956770  1
  In  In9  1  0.33966697  -0.02354935  0.32499365  1
  In  In10  1  0.65908874  0.34756465  0.34621162  1
  In  In11  1  0.81763325  0.65467818  0.17159834  1
  In  In12  1  0.84513343  -0.01899264  0.17246501  1
  In  In13  1  0.66562667  0.16387876  0.82917580  1
  In  In14  1  0.83910190  0.19503604  0.65276163  1
  In  In15  1  0.49620397  0.15639037  0.00374823  1
  In  In16  1  0.17025522  0.86802258  0.00037819  1
  In  In17  1  0.30921212  0.13134272  0.86441351  1
  In  In18  1  0.51811658  0.49737852  0.66713800  1
  In  In19  1  0.66821880  0.81327236  0.17701718  1
  In  In20  1  0.31820614  0.33417576  0.32315052  1
  In  In21  1  0.18702862  0.50148990  0.00594903  1
  In  In22  1  0.64173604  0.47849085  0.84971754  1
  In  In23  1  0.49033122  0.67421210  0.84475648  1
  In  In24  1  0.65354988  -0.03228712  0.67235969  1
  In  In25  1  0.83153879  0.81337365  0.66631495  1
  In  In26  1  0.16930160  0.82217957  0.65825170  1
  In  In27  1  0.31593201  0.70856850  0.30099387  1
  In  In28  1  0.02058125  -0.01271255  0.30462872  1
  In  In29  1  0.66611847  0.30534079  0.65673663  1
  In  In30  1  0.34542690  0.32638721  0.68064844  1
  In  In31  1  -0.03345050  0.32013848  0.34946452  1
  In  In32  1  0.83644920  0.02059774  0.48255327  1
  In  In33  1  0.47517688  0.81858663  0.01933416  1
  In  In34  1  0.19148168  0.32774621  0.14162687  1
  In  In35  1  0.84482251  0.68396574  0.83982971  1
  In  In36  1  0.85086741  0.16484610  0.00734424  1
  In  In37  1  0.49845472  0.16580093  0.68132035  1
  In  In38  1  0.00720403  0.66221100  0.66388983  1
  In  In39  1  0.01029678  0.16347721  0.16049689  1
  In  In40  1  0.15458493  0.16170853  0.66844936  1
  In  In41  1  0.33193448  0.52206622  0.83109771  1
  In  In42  1  0.67060955  0.15478081  0.50867945  1
  In  In43  1  0.84037501  0.34049388  0.81074931  1
  In  In44  1  0.50313139  0.66620342  0.49931003  1
  In  In45  1  0.84000807  0.02378752  0.83772724  1
  In  In46  1  0.17389648  0.00460828  0.49644638  1
  In  In47  1  0.35106974  -0.00929374  0.65923746  1
  In  In48  1  0.15691938  0.17404643  0.33985939  1
  In  In49  1  0.83463787  0.66369756  0.49103337  1
  In  In50  1  0.00331023  0.84522990  0.15764544  1
  In  In51  1  0.66899321  0.67411829  -0.00333477  1
  In  In52  1  0.34809156  0.85034929  0.84465758  1
  In  In53  1  0.16775457  0.67146150  0.82949884  1
  In  In54  1  0.01944187  0.50479059  0.16289058  1
  In  In55  1  0.00290278  0.50789119  0.83391199  1
  In  In56  1  0.14585197  0.31480611  0.86445217  1
  In  In57  1  0.49327474  0.82654462  0.66380554  1
  In  In58  1  0.84657441  0.48670698  0.00792939  1
  In  In59  1  0.01202672  0.34246484  0.65911917  1
  In  In60  1  0.86597506  0.86192674  -0.01530326  1
  In  In61  1  0.00829556  -0.00664878  0.67994675  1
  In  In62  1  0.36640242  0.49561131  0.14718859  1
  In  In63  1  0.17946758  0.32639865  0.50576715  1
  In  In64  1  0.82432114  0.83498790  0.33742726  1
  In  In65  1  0.50703627  0.82171755  0.31538622  1
  In  In66  1  0.64233960  0.52398488  0.18271752  1
  In  In67  1  0.81963960  0.33905460  0.18182720  1
  In  In68  1  0.33481442  0.16002640  0.15485833  1
  In  In69  1  0.64280642  0.34206051  -0.02009774  1
  In  In70  1  0.15071722  -0.00883805  0.15789135  1
  In  In71  1  0.14773639  0.51922452  0.33906172  1
  Te  Te72  1  0.12142040  0.11510678  0.06858748  1
  Te  Te73  1  0.06759246  0.08265732  0.41729073  1
  Te  Te74  1  0.10174734  0.06663400  0.76964124  1
  Te  Te75  1  0.08460291  0.40634147  0.06739107  1
  Te  Te76  1  0.08334207  0.40547612  0.41844952  1
  Te  Te77  1  0.09783319  0.41835200  0.75810158  1
  Te  Te78  1  0.09217152  0.76395015  0.07478213  1
  Te  Te79  1  0.06882281  0.77405899  0.39655492  1
  Te  Te80  1  0.06968196  0.76357550  0.75759243  1
  Te  Te81  1  0.40391577  0.05965424  0.07010759  1
  Te  Te82  1  0.39362872  0.08041603  0.41352981  1
  Te  Te83  1  0.41652419  0.07356545  0.76902453  1
  Te  Te84  1  0.41213810  0.39321310  0.05307189  1
  Te  Te85  1  0.41366258  0.39657325  0.42575789  1
  Te  Te86  1  0.42834501  0.42288927  0.76352399  1
  Te  Te87  1  0.39541901  0.70261959  0.06397886  1
  Te  Te88  1  0.41342078  0.75117793  0.41385768  1
  Te  Te89  1  0.39722744  0.74279903  0.74736359  1
  Te  Te90  1  0.75398785  0.08443156  0.09379237  1
  Te  Te91  1  0.72454925  0.06917591  0.40235634  1
  Te  Te92  1  0.74743407  0.08974773  0.72528605  1
  Te  Te93  1  0.73302050  0.41946184  0.08443291  1
  Te  Te94  1  0.76111027  0.44290963  0.39686552  1
  Te  Te95  1  0.73251041  0.41577878  0.74053645  1
  Te  Te96  1  0.77253805  0.76865387  0.07165498  1
  Te  Te97  1  0.73051503  0.74160209  0.40759060  1
  Te  Te98  1  0.74213397  0.75623347  0.76597317  1
  Te  Te99  1  0.08779003  0.27111752  0.24672797  1
  Te  Te100  1  0.07272468  0.23774432  0.56658002  1
  Te  Te101  1  0.08850887  0.21462364  0.95296484  1
  Te  Te102  1  0.08850232  0.60841980  0.24036018  1
  Te  Te103  1  0.10320021  0.58134241  0.57979570  1
  Te  Te104  1  0.08715031  0.58873083  0.92946225  1
  Te  Te105  1  0.13301441  0.87842614  0.30608300  1
  Te  Te106  1  0.07988797  0.91304029  0.57407342  1
  Te  Te107  1  0.10861000  0.95694268  0.89955092  1
  Te  Te108  1  0.41657602  0.25953175  0.23717036  1
  Te  Te109  1  0.42515884  0.24933502  0.58643298  1
  Te  Te110  1  0.40967364  0.23055603  0.90944573  1
  Te  Te111  1  0.41108389  0.59373867  0.25572767  1
  Te  Te112  1  0.41677430  0.58103184  0.59049600  1
  Te  Te113  1  0.39346772  0.60921671  0.93983868  1
  Te  Te114  1  0.40161168  0.88318090  0.22725688  1
  Te  Te115  1  0.42781437  0.91155467  0.56411416  1
  Te  Te116  1  0.40886642  0.93370253  0.95231255  1
  Te  Te117  1  0.75071650  0.24407125  0.27677958  1
  Te  Te118  1  0.77283476  0.27384218  0.54021546  1
  Te  Te119  1  0.75837352  0.25297061  0.91472698  1
  Te  Te120  1  0.75680010  0.56054310  0.26773620  1
  Te  Te121  1  0.74758469  0.59969009  0.58993954  1
  Te  Te122  1  0.75086871  0.56697881  0.91973728  1
  Te  Te123  1  0.73340961  0.92613451  0.25740135  1
  Te  Te124  1  0.75582874  0.91372983  0.57027935  1
  Te  Te125  1  0.75113501  0.91810805  0.90237589  1
  Te  Te126  1  0.30483575  0.27561104  0.05915190  1
  Te  Te127  1  0.26742794  0.23315078  0.42556180  1
  Te  Te128  1  0.24674357  0.24024003  0.76246849  1
  Te  Te129  1  0.26666198  0.59365366  0.09188428  1
  Te  Te130  1  0.26263034  0.59645232  0.40303281  1
  Te  Te131  1  0.24228916  0.58730686  0.73653517  1
  Te  Te132  1  0.26541696  0.89737601  0.12041792  1
  Te  Te133  1  0.25310336  0.90242896  0.42267172  1
  Te  Te134  1  0.25210117  0.91616733  0.74585715  1
  Te  Te135  1  0.59588698  0.24083827  0.08294367  1
  Te  Te136  1  0.57989674  0.24170729  0.42145845  1
  Te  Te137  1  0.57273305  0.26674185  0.77072217  1
  Te  Te138  1  0.57271431  0.59831819  0.07773801  1
  Te  Te139  1  0.58332478  0.57119438  0.41468410  1
  Te  Te140  1  0.58897269  0.59230747  0.76276342  1
  Te  Te141  1  0.57600947  0.90678058  0.10109605  1
  Te  Te142  1  0.56912216  0.92766280  0.39804611  1
  Te  Te143  1  0.55628694  0.91413242  0.76542185  1
  Te  Te144  1  0.92159712  0.26793891  0.09298440  1
  Te  Te145  1  0.88915928  0.24084642  0.44091147  1
  Te  Te146  1  0.94123130  0.24306336  0.75395243  1
  Te  Te147  1  0.92288716  0.59422947  0.08021339  1
  Te  Te148  1  0.93927274  0.60497207  0.40537767  1
  Te  Te149  1  0.90626448  0.58161989  0.74423084  1
  Te  Te150  1  0.95182232  0.95616515  0.06785418  1
  Te  Te151  1  0.92547746  0.92139097  0.40809852  1
  Te  Te152  1  0.90768937  0.91251149  0.75814974  1
  Te  Te153  1  0.23674908  0.08162732  0.24999129  1
  Te  Te154  1  0.26004882  0.09143933  0.58666213  1
  Te  Te155  1  0.22596124  0.03870818  0.95018689  1
  Te  Te156  1  0.24455253  0.43761815  0.24071284  1
  Te  Te157  1  0.25096627  0.41820580  0.60154881  1
  Te  Te158  1  0.25530236  0.41097755  0.90716374  1
  Te  Te159  1  0.21749409  0.78125393  0.21251976  1
  Te  Te160  1  0.25877031  0.75150293  0.56716406  1
  Te  Te161  1  0.24848912  0.76345318  0.91953675  1
  Te  Te162  1  0.54413055  0.06672987  0.23305534  1
  Te  Te163  1  0.57544620  0.06974697  0.59055124  1
  Te  Te164  1  0.59056299  0.06827797  0.91606256  1
  Te  Te165  1  0.56876936  0.40290884  0.23591648  1
  Te  Te166  1  0.58127204  0.39807434  0.57215230  1
  Te  Te167  1  0.53585826  0.43946762  0.94742327  1
  Te  Te168  1  0.58078437  0.71610071  0.24130067  1
  Te  Te169  1  0.59729494  0.74001697  0.59260119  1
  Te  Te170  1  0.58119811  0.77075234  0.91974436  1
  Te  Te171  1  0.91604857  0.08952048  0.25306619  1
  Te  Te172  1  0.92181871  0.08420403  0.59062027  1
  Te  Te173  1  0.94219235  0.10060139  0.91212059  1
  Te  Te174  1  0.92082514  0.42747995  0.25369449  1
  Te  Te175  1  0.91131213  0.42669362  0.59534872  1
  Te  Te176  1  0.93167185  0.40116644  0.91637674  1
  Te  Te177  1  0.91175578  0.75764194  0.24011228  1
  Te  Te178  1  0.93142406  0.75395418  0.57045593  1
  Te  Te179  1  0.94282219  0.75513391  0.92145891  1
