# generated using pymatgen
data_In2Te3
_symmetry_space_group_name_H-M   'P 1'
_cell_length_a   18.74230388
_cell_length_b   18.74904135
_cell_length_c   18.74452699
_cell_angle_alpha   90.01082322
_cell_angle_beta   90.05970836
_cell_angle_gamma   90.01838912
_symmetry_Int_Tables_number   1
_chemical_formula_structural   In2Te3
_chemical_formula_sum   'In72 Te108'
_cell_volume   6586.82706879
_cell_formula_units_Z   36
loop_
 _symmetry_equiv_pos_site_id
 _symmetry_equiv_pos_as_xyz
  1  'x, y, z'
loop_
 _atom_site_type_symbol
 _atom_site_label
 _atom_site_symmetry_multiplicity
 _atom_site_fract_x
 _atom_site_fract_y
 _atom_site_fract_z
 _atom_site_occupancy
  In  In0  1  -0.00035888  0.19579864  0.20587714  1
  In  In1  1  -0.01775204  0.84863096  0.16448753  1
  In  In2  1  0.00440488  0.44280774  0.18362781  1
  In  In3  1  0.15690063  0.50221740  0.67354218  1
  In  In4  1  -0.00088587  -0.00233615  0.67676877  1
  In  In5  1  0.15998903  0.16246735  0.00252426  1
  In  In6  1  0.33592223  0.64445855  0.65818853  1
  In  In7  1  0.31631350  0.00757664  0.65913530  1
  In  In8  1  -0.00511567  0.15567595  0.82522809  1
  In  In9  1  0.13692322  0.80309403  0.36697357  1
  In  In10  1  0.15508868  0.63990339  0.19338664  1
  In  In11  1  0.15477083  0.32876227  0.82985492  1
  In  In12  1  0.14839324  0.01439119  0.51946686  1
  In  In13  1  0.49985875  0.00514851  0.83212874  1
  In  In14  1  0.34092089  0.84289493  0.48470376  1
  In  In15  1  0.36490003  0.48460755  0.49771851  1
  In  In16  1  0.82004721  0.17039561  0.65089804  1
  In  In17  1  -0.01922719  0.00781913  0.33171914  1
  In  In18  1  0.51223551  0.64502754  0.82413245  1
  In  In19  1  0.34414432  0.32038389  0.65903007  1
  In  In20  1  0.81587351  0.83471557  0.33898042  1
  In  In21  1  0.52092709  0.33852363  0.18547697  1
  In  In22  1  0.67777732  0.00380490  0.65172936  1
  In  In23  1  0.31890350  0.31401974  -0.00285804  1
  In  In24  1  0.14341269  0.65802669  0.49107903  1
  In  In25  1  0.67804788  0.85444652  0.19039025  1
  In  In26  1  0.81063036  0.66705908  0.16502343  1
  In  In27  1  0.35950281  0.85528291  0.82371123  1
  In  In28  1  0.67950129  0.18225415  0.20483485  1
  In  In29  1  -0.00535468  0.66990183  0.00579106  1
  In  In30  1  0.69870680  0.31738396  0.65987322  1
  In  In31  1  0.66145023  0.32753046  0.02544788  1
  In  In32  1  0.31585448  0.68544552  0.02582111  1
  In  In33  1  0.68062067  -0.00336120  0.00515766  1
  In  In34  1  0.69785701  0.81147792  0.80523007  1
  In  In35  1  0.50756409  0.15745958  0.33333245  1
  In  In36  1  0.32627650  0.16972168  0.83496471  1
  In  In37  1  0.16064338  0.02060527  0.16998672  1
  In  In38  1  0.67483681  0.65687467  0.35120079  1
  In  In39  1  0.83487033  0.34497964  0.82551149  1
  In  In40  1  0.85379791  0.84743130  -0.00144314  1
  In  In41  1  0.32546935  0.49837612  0.19331665  1
  In  In42  1  0.52585359  0.00723163  0.49056271  1
  In  In43  1  -0.00824463  0.84512976  0.82472152  1
  In  In44  1  -0.02274774  0.20109063  0.48715728  1
  In  In45  1  0.50671696  0.50457660  0.00957172  1
  In  In46  1  0.33930413  0.84060294  0.16623922  1
  In  In47  1  0.66856318  0.64269806  -0.00785974  1
  In  In48  1  0.50392521  0.31693482  0.84199319  1
  In  In49  1  0.85883435  0.17413712  0.00682561  1
  In  In50  1  0.80304054  0.01224486  0.47337922  1
  In  In51  1  0.15803215  0.31160499  0.49083864  1
  In  In52  1  0.31605008  0.47195762  0.86002516  1
  In  In53  1  0.66668114  0.16055160  0.81272467  1
  In  In54  1  0.70913668  0.48875505  0.48304175  1
  In  In55  1  0.68097739  0.47643569  0.19043431  1
  In  In56  1  -0.02288742  0.51788062  0.81973844  1
  In  In57  1  0.50275398  0.32893483  0.47999176  1
  In  In58  1  0.35378610  0.66324400  0.33019512  1
  In  In59  1  0.81597925  0.49210372  -0.00129049  1
  In  In60  1  0.32707520  0.01751129  0.32043039  1
  In  In61  1  0.51996309  0.50859368  0.66612256  1
  In  In62  1  0.68352040  0.49563205  0.79509559  1
  In  In63  1  0.48914382  0.83511731  0.00352001  1
  In  In64  1  0.54342695  0.81317633  0.62699253  1
  In  In65  1  -0.06306018  0.49913636  0.50039045  1
  In  In66  1  0.15102542  0.85534573  -0.00839064  1
  In  In67  1  0.13334531  0.68951668  0.84080135  1
  In  In68  1  0.15129474  0.48564966  0.33871055  1
  In  In69  1  0.16861977  0.84676382  0.66858164  1
  In  In70  1  0.34473330  0.15745830  0.15067475  1
  In  In71  1  0.51490206  0.85177819  0.33968737  1
  Te  Te72  1  0.05608041  0.09585815  0.09306179  1
  Te  Te73  1  0.07023781  0.09670881  0.41759378  1
  Te  Te74  1  0.09658938  0.08743927  0.74067736  1
  Te  Te75  1  0.10989776  0.43183091  0.08573490  1
  Te  Te76  1  0.06315417  0.42079616  0.44310498  1
  Te  Te77  1  0.05768794  0.41008384  0.74298659  1
  Te  Te78  1  0.09517855  0.74997512  0.09053573  1
  Te  Te79  1  0.02205919  0.73183014  0.43539914  1
  Te  Te80  1  0.06511698  0.74625872  0.72099476  1
  Te  Te81  1  0.40583143  0.05130224  0.07298686  1
  Te  Te82  1  0.40841022  0.08668239  0.42948560  1
  Te  Te83  1  0.41872076  0.09324389  0.73815736  1
  Te  Te84  1  0.41461113  0.40698403  0.08114121  1
  Te  Te85  1  0.41403803  0.40285991  0.38609301  1
  Te  Te86  1  0.42138051  0.42428567  0.75136899  1
  Te  Te87  1  0.43462431  0.73433124  0.10720476  1
  Te  Te88  1  0.44241244  0.74578302  0.42505391  1
  Te  Te89  1  0.42612232  0.74503709  0.73761558  1
  Te  Te90  1  0.75126364  0.10277370  0.08863295  1
  Te  Te91  1  0.72777087  0.13084500  0.42674546  1
  Te  Te92  1  0.77205406  0.06875730  0.75614612  1
  Te  Te93  1  0.77494782  0.38940375  0.10573232  1
  Te  Te94  1  0.79678171  0.39723763  0.40040616  1
  Te  Te95  1  0.79426777  0.43671588  0.70113172  1
  Te  Te96  1  0.74014722  0.76370679  0.06899857  1
  Te  Te97  1  0.74212848  0.75518544  0.44639504  1
  Te  Te98  1  0.78885365  0.73726873  0.71491433  1
  Te  Te99  1  0.10430905  0.26587760  0.28953969  1
  Te  Te100  1  0.07251414  0.24682495  0.59206015  1
  Te  Te101  1  0.06296334  0.25212589  0.92442951  1
  Te  Te102  1  0.04463964  0.57687696  0.27299832  1
  Te  Te103  1  0.05906945  0.57415317  0.58543947  1
  Te  Te104  1  0.07979833  0.57354892  0.92190489  1
  Te  Te105  1  0.08975443  0.91114914  0.25518975  1
  Te  Te106  1  0.06516788  0.89817740  0.56987986  1
  Te  Te107  1  0.05826394  0.94135981  0.91705916  1
  Te  Te108  1  0.41475182  0.24810437  0.25161159  1
  Te  Te109  1  0.41369536  0.23911250  0.55859343  1
  Te  Te110  1  0.42917192  0.22561664  0.93668389  1
  Te  Te111  1  0.43868933  0.57135197  0.25234532  1
  Te  Te112  1  0.44592953  0.59620898  0.56400501  1
  Te  Te113  1  0.41003860  0.59233557  0.92604131  1
  Te  Te114  1  0.43067665  0.93653914  0.24310227  1
  Te  Te115  1  0.42255466  0.91494382  0.59230763  1
  Te  Te116  1  0.40415340  0.95025295  0.94213897  1
  Te  Te117  1  0.77335764  0.27516377  0.27653645  1
  Te  Te118  1  0.74905469  0.24228236  0.53720339  1
  Te  Te119  1  0.74161374  0.25655109  0.90900255  1
  Te  Te120  1  0.77367933  0.56711226  0.27274729  1
  Te  Te121  1  0.77208054  0.59858391  0.56278021  1
  Te  Te122  1  0.76578962  0.58743853  0.88990211  1
  Te  Te123  1  0.77355140  0.94924774  0.25118540  1
  Te  Te124  1  0.76493365  0.91171408  0.57637430  1
  Te  Te125  1  0.75717017  0.91553571  0.89951744  1
  Te  Te126  1  0.23162969  0.25059955  0.10492912  1
  Te  Te127  1  0.23316771  0.25584652  0.37684580  1
  Te  Te128  1  0.23594663  0.24241835  0.73393957  1
  Te  Te129  1  0.23829085  0.56899281  0.08496359  1
  Te  Te130  1  0.25649103  0.58135093  0.41843691  1
  Te  Te131  1  0.24378643  0.58752810  0.76802152  1
  Te  Te132  1  0.24890177  0.93220184  0.08203508  1
  Te  Te133  1  0.23735307  0.92519580  0.40874991  1
  Te  Te134  1  0.23779478  0.93518738  0.77079498  1
  Te  Te135  1  0.57288286  0.22791852  0.09425001  1
  Te  Te136  1  0.60586301  0.24001698  0.41553232  1
  Te  Te137  1  0.57514188  0.24852574  0.72678389  1
  Te  Te138  1  0.59517950  0.57944710  0.10898508  1
  Te  Te139  1  0.59117035  0.54981914  0.41308616  1
  Te  Te140  1  0.61834972  0.61365833  0.71958081  1
  Te  Te141  1  0.57971473  0.92259249  0.09252195  1
  Te  Te142  1  0.62024947  0.91893540  0.41969939  1
  Te  Te143  1  0.58493546  0.90714409  0.75042345  1
  Te  Te144  1  0.92725645  0.27099718  0.09645022  1
  Te  Te145  1  0.89897775  0.26250062  0.37275637  1
  Te  Te146  1  0.91775132  0.25410458  0.73463753  1
  Te  Te147  1  0.91079267  0.57524029  0.09121450  1
  Te  Te148  1  0.92721635  0.61015946  0.40314964  1
  Te  Te149  1  0.90409021  0.61276295  0.73127596  1
  Te  Te150  1  0.91371380  0.95100767  0.08444740  1
  Te  Te151  1  0.91614838  0.90937038  0.42737243  1
  Te  Te152  1  0.89559416  0.90372015  0.72715401  1
  Te  Te153  1  0.22372204  0.11564805  0.27013960  1
  Te  Te154  1  0.25317701  0.10567263  0.56812257  1
  Te  Te155  1  0.23988057  0.07765265  0.91192541  1
  Te  Te156  1  0.23537384  0.39502368  0.25322632  1
  Te  Te157  1  0.25082913  0.42214755  0.58064290  1
  Te  Te158  1  0.20522153  0.41058520  0.95062079  1
  Te  Te159  1  0.24859585  0.75260485  0.25835493  1
  Te  Te160  1  0.25188485  0.74825037  0.57729460  1
  Te  Te161  1  0.25714767  0.76308255  0.90711061  1
  Te  Te162  1  0.59618208  0.06973178  0.25387391  1
  Te  Te163  1  0.58532563  0.09995042  0.58925741  1
  Te  Te164  1  0.58841655  0.08988335  0.92358667  1
  Te  Te165  1  0.59593966  0.40916043  0.29246124  1
  Te  Te166  1  0.59984966  0.41221693  0.58033888  1
  Te  Te167  1  0.59768159  0.42743537  0.90905922  1
  Te  Te168  1  0.59183069  0.74754632  0.25617737  1
  Te  Te169  1  0.63308346  0.72131127  0.55687205  1
  Te  Te170  1  0.58485209  0.75246634  0.91307879  1
  Te  Te171  1  0.89453500  0.09535361  0.25016766  1
  Te  Te172  1  0.91483566  0.07964050  0.56902822  1
  Te  Te173  1  0.90595449  0.07217043  0.91078820  1
  Te  Te174  1  0.91064783  0.39954471  0.28974659  1
  Te  Te175  1  0.89230383  0.38968727  0.58891176  1
  Te  Te176  1  0.92652700  0.41488175  0.92596293  1
  Te  Te177  1  0.90959534  0.74759530  0.25009614  1
  Te  Te178  1  0.88809334  0.69791146  0.59918942  1
  Te  Te179  1  0.90799529  0.74074981  0.90419279  1
