# generated using pymatgen
data_In2Te3
_symmetry_space_group_name_H-M   'P 1'
_cell_length_a   18.79144848
_cell_length_b   18.79990005
_cell_length_c   18.79765764
_cell_angle_alpha   89.96393730
_cell_angle_beta   90.07158727
_cell_angle_gamma   90.15724571
_symmetry_Int_Tables_number   1
_chemical_formula_structural   In2Te3
_chemical_formula_sum   'In72 Te108'
_cell_volume   6640.75524276
_cell_formula_units_Z   36
loop_
 _symmetry_equiv_pos_site_id
 _symmetry_equiv_pos_as_xyz
  1  'x, y, z'
loop_
 _atom_site_type_symbol
 _atom_site_label
 _atom_site_symmetry_multiplicity
 _atom_site_fract_x
 _atom_site_fract_y
 _atom_site_fract_z
 _atom_site_occupancy
  In  In0  1  0.48527997  0.66728651  0.18827138  1
  In  In1  1  0.31950331  -0.00090984  0.01022917  1
  In  In2  1  0.17194024  0.46587223  0.31715430  1
  In  In3  1  0.18964276  0.14958058  0.66706943  1
  In  In4  1  0.52131596  0.82330977  -0.00684379  1
  In  In5  1  -0.01257022  0.68445817  0.64620211  1
  In  In6  1  0.82870271  0.33034467  0.83806717  1
  In  In7  1  0.65118578  0.16337294  0.15440307  1
  In  In8  1  0.82409677  0.35439563  0.16898494  1
  In  In9  1  0.51564983  0.65875432  0.50399358  1
  In  In10  1  0.65789688  0.82501815  0.83479760  1
  In  In11  1  0.68307506  0.01715736  0.00348550  1
  In  In12  1  0.67783048  0.35571038  0.37273832  1
  In  In13  1  -0.00856228  0.51017742  0.15762537  1
  In  In14  1  0.00546492  0.84413515  0.14786637  1
  In  In15  1  0.80807573  0.81622971  0.36032378  1
  In  In16  1  0.18219699  0.31951645  0.84428676  1
  In  In17  1  0.33194701  0.81444420  0.81618788  1
  In  In18  1  -0.00551040  0.49377449  0.83388494  1
  In  In19  1  0.34309541  0.16305177  0.83998094  1
  In  In20  1  -0.00104715  -0.00008639  0.66818994  1
  In  In21  1  0.65930885  0.49269346  0.17786485  1
  In  In22  1  0.16936179  0.01401010  0.16541984  1
  In  In23  1  0.33922791  0.64310892  -0.00759282  1
  In  In24  1  0.33719637  -0.00027195  0.66730271  1
  In  In25  1  0.83106255  0.51197852  0.65704145  1
  In  In26  1  0.01590135  0.34026201  -0.01705602  1
  In  In27  1  0.32716448  0.86853174  0.16327764  1
  In  In28  1  0.02016627  0.86152003  0.86338912  1
  In  In29  1  0.66877536  0.17542484  0.80127784  1
  In  In30  1  0.49666555  -0.00803022  0.81243606  1
  In  In31  1  0.63246637  0.34236529  0.64184292  1
  In  In32  1  0.00835333  0.18325820  0.48772675  1
  In  In33  1  0.49605513  0.49029152  -0.01309203  1
  In  In34  1  0.18394334  0.48801298  0.00051464  1
  In  In35  1  0.01348783  0.16959097  0.86085444  1
  In  In36  1  0.22023708  0.46634860  0.64214532  1
  In  In37  1  0.34443422  0.64063493  0.33130908  1
  In  In38  1  0.65513564  0.83734407  0.20083397  1
  In  In39  1  0.00756260  0.32560451  0.66448023  1
  In  In40  1  0.33850653  0.85064154  0.51947788  1
  In  In41  1  0.67573973  -0.01200729  0.34377083  1
  In  In42  1  0.16373486  0.01588693  0.51857960  1
  In  In43  1  0.48856125  0.34151358  0.16876689  1
  In  In44  1  0.82100419  0.83148332  0.65833413  1
  In  In45  1  0.82963443  -0.00891079  0.50342297  1
  In  In46  1  0.01552881  0.31976155  0.31781691  1
  In  In47  1  0.16011042  0.67723780  0.14403706  1
  In  In48  1  0.66470649  0.66875273  -0.01904599  1
  In  In49  1  0.16284798  0.65227197  0.81991161  1
  In  In50  1  -0.02306943  0.65866129  0.33103925  1
  In  In51  1  0.00312633  0.15227857  0.16629610  1
  In  In52  1  0.15680969  0.65126781  0.48971641  1
  In  In53  1  0.51043080  0.83847254  0.33282336  1
  In  In54  1  0.84584627  0.16346791  -0.01207136  1
  In  In55  1  0.84287293  0.16844145  0.31750496  1
  In  In56  1  0.49399765  0.18756791  -0.00112948  1
  In  In57  1  0.66723371  0.66381408  0.65772821  1
  In  In58  1  0.64149255  0.16050687  0.53052865  1
  In  In59  1  0.16729600  0.81815221  0.34598806  1
  In  In60  1  0.47722164  0.02515946  0.15568650  1
  In  In61  1  0.79109432  0.16468178  0.66416751  1
  In  In62  1  0.47240876  0.15631961  0.36895985  1
  In  In63  1  0.85151832  0.82762535  0.00274105  1
  In  In64  1  0.36062915  0.34101941  0.34956367  1
  In  In65  1  0.00176446  0.50766205  0.48995140  1
  In  In66  1  0.34131299  0.66456577  0.68667349  1
  In  In67  1  0.19111531  0.16340040  0.34218745  1
  In  In68  1  0.65488238  0.50519603  0.83776886  1
  In  In69  1  0.47439398  0.47876825  0.64795641  1
  In  In70  1  0.81362064  0.64683962  0.16860318  1
  In  In71  1  0.17653487  0.86156793  0.66301360  1
  Te  Te72  1  0.07233571  0.06647063  0.06422828  1
  Te  Te73  1  0.07931389  0.07835953  0.40494701  1
  Te  Te74  1  0.09085394  0.08040891  0.75920016  1
  Te  Te75  1  0.09195417  0.40980052  0.09938279  1
  Te  Te76  1  0.09049894  0.39973544  0.42748356  1
  Te  Te77  1  0.09648369  0.41358314  0.75338404  1
  Te  Te78  1  0.05893912  0.73842510  0.05723695  1
  Te  Te79  1  0.05837126  0.74874787  0.42708630  1
  Te  Te80  1  0.08749941  0.76135051  0.74326640  1
  Te  Te81  1  0.38370550  0.11931236  0.08323087  1
  Te  Te82  1  0.41172031  0.06115811  0.46279942  1
  Te  Te83  1  0.43437785  0.10692438  0.73033988  1
  Te  Te84  1  0.40201956  0.41064843  0.07123396  1
  Te  Te85  1  0.43794556  0.42346263  0.44999653  1
  Te  Te86  1  0.41153612  0.37565019  0.73653267  1
  Te  Te87  1  0.41304783  0.76032158  0.08590687  1
  Te  Te88  1  0.40736354  0.75283164  0.41669353  1
  Te  Te89  1  0.43572592  0.77498790  0.71811550  1
  Te  Te90  1  0.77292795  0.08821646  0.10432683  1
  Te  Te91  1  0.74624023  0.10284963  0.42176117  1
  Te  Te92  1  0.74738511  0.05920813  0.75676358  1
  Te  Te93  1  0.74350117  0.43130599  0.07289803  1
  Te  Te94  1  0.76358661  0.46713864  0.41722895  1
  Te  Te95  1  0.74633999  0.40837203  0.73681870  1
  Te  Te96  1  0.73056149  0.75930776  0.08744293  1
  Te  Te97  1  0.70308193  0.72981375  0.41711418  1
  Te  Te98  1  0.75604887  0.73580341  0.76001614  1
  Te  Te99  1  0.11382398  0.24252494  0.22713477  1
  Te  Te100  1  0.10910270  0.25059196  0.58045941  1
  Te  Te101  1  0.11934502  0.23248266  0.95391231  1
  Te  Te102  1  0.09348012  0.58964030  0.25942170  1
  Te  Te103  1  0.09273118  0.57046775  0.60274583  1
  Te  Te104  1  0.08295973  0.57729660  0.92674618  1
  Te  Te105  1  0.09173918  0.91394223  0.25350661  1
  Te  Te106  1  0.06590598  0.90652753  0.56801362  1
  Te  Te107  1  0.11269108  0.94003494  0.94687387  1
  Te  Te108  1  0.41424230  0.23435433  0.25273799  1
  Te  Te109  1  0.42162806  0.31221926  0.60041029  1
  Te  Te110  1  0.39378552  0.27279937  0.92847383  1
  Te  Te111  1  0.42539872  0.54757966  0.25183225  1
  Te  Te112  1  0.39710872  0.58742739  0.56868205  1
  Te  Te113  1  0.42246090  0.57856048  0.89075909  1
  Te  Te114  1  0.41381948  0.93899402  0.26723304  1
  Te  Te115  1  0.44650470  0.93983607  0.57877111  1
  Te  Te116  1  0.41688251  0.91251285  0.92333121  1
  Te  Te117  1  0.73174188  0.26137048  0.25316972  1
  Te  Te118  1  0.74783256  0.27187646  0.56852726  1
  Te  Te119  1  0.73464142  0.24524841  0.92245973  1
  Te  Te120  1  0.76182154  0.55183558  0.27312900  1
  Te  Te121  1  0.72819901  0.56434060  0.56308331  1
  Te  Te122  1  0.75890184  0.58173738  0.91016590  1
  Te  Te123  1  0.77126135  0.92260841  0.24653235  1
  Te  Te124  1  0.72822149  0.92118075  0.58336870  1
  Te  Te125  1  0.75201593  0.91305234  0.91903548  1
  Te  Te126  1  0.22358836  0.30077991  0.11877535  1
  Te  Te127  1  0.25838195  0.26351046  0.42949946  1
  Te  Te128  1  0.27032861  0.25884601  0.73497120  1
  Te  Te129  1  0.26288417  0.57235432  0.10398937  1
  Te  Te130  1  0.24973286  0.55604539  0.41640542  1
  Te  Te131  1  0.26472253  0.55531271  0.76094438  1
  Te  Te132  1  0.21451423  0.89325492  0.06023682  1
  Te  Te133  1  0.24570023  0.92390215  0.42309294  1
  Te  Te134  1  0.24827368  0.93584938  0.77405934  1
  Te  Te135  1  0.59245414  0.27739143  0.07497431  1
  Te  Te136  1  0.57310845  0.25171158  0.42882194  1
  Te  Te137  1  0.56267882  0.26288438  0.74727509  1
  Te  Te138  1  0.57746790  0.59468528  0.08549217  1
  Te  Te139  1  0.60590000  0.60692568  0.39819460  1
  Te  Te140  1  0.56938840  0.57048924  0.73125793  1
  Te  Te141  1  0.58083223  0.92964236  0.09523601  1
  Te  Te142  1  0.58969531  0.91016674  0.43467333  1
  Te  Te143  1  0.60400724  0.92409563  0.73814386  1
  Te  Te144  1  0.92096271  0.26285634  0.08654212  1
  Te  Te145  1  0.90588581  0.26884671  0.41425636  1
  Te  Te146  1  0.91704790  0.23916380  0.75311910  1
  Te  Te147  1  0.91209821  0.59707947  0.07041867  1
  Te  Te148  1  0.89127873  0.59047377  0.43296942  1
  Te  Te149  1  0.91677888  0.59583397  0.75187085  1
  Te  Te150  1  0.92344889  0.93903250  0.06903492  1
  Te  Te151  1  0.90990743  0.91138516  0.41016575  1
  Te  Te152  1  0.91706350  0.90623991  0.75310221  1
  Te  Te153  1  0.27080542  0.07899503  0.25133557  1
  Te  Te154  1  0.28843982  0.10412836  0.55628666  1
  Te  Te155  1  0.24273362  0.08454214  0.91614348  1
  Te  Te156  1  0.27168576  0.39056005  0.22954876  1
  Te  Te157  1  0.30292894  0.38695412  0.53925743  1
  Te  Te158  1  0.27725362  0.41032658  0.91550125  1
  Te  Te159  1  0.26102621  0.74907336  0.24642593  1
  Te  Te160  1  0.24079738  0.74213277  0.58251202  1
  Te  Te161  1  0.24596471  0.73868037  0.91686225  1
  Te  Te162  1  0.58016242  0.08210346  0.26288106  1
  Te  Te163  1  0.54073070  0.07591516  0.59516350  1
  Te  Te164  1  0.57053467  0.08084360  0.92139553  1
  Te  Te165  1  0.57276697  0.41384804  0.27590003  1
  Te  Te166  1  0.57028872  0.43435131  0.53767601  1
  Te  Te167  1  0.57634856  0.39901682  0.90268816  1
  Te  Te168  1  0.60638568  0.71242372  0.27624928  1
  Te  Te169  1  0.57007436  0.75991561  0.59718263  1
  Te  Te170  1  0.55487672  0.72222162  0.88630803  1
  Te  Te171  1  0.93277860  0.06623243  0.26382553  1
  Te  Te172  1  0.91902286  0.10139671  0.58380656  1
  Te  Te173  1  0.91818474  0.06616199  0.90570912  1
  Te  Te174  1  0.92039151  0.42734076  0.26427395  1
  Te  Te175  1  0.91794465  0.41154657  0.57856271  1
  Te  Te176  1  0.89966007  0.42657876  0.93317698  1
  Te  Te177  1  0.90392315  0.75450194  0.23799592  1
  Te  Te178  1  0.88781041  0.74503902  0.55697448  1
  Te  Te179  1  0.93144551  0.75083334  0.90523865  1
