# generated using pymatgen
data_In2Te3
_symmetry_space_group_name_H-M   'P 1'
_cell_length_a   18.96939231
_cell_length_b   18.98847716
_cell_length_c   18.97449414
_cell_angle_alpha   90.07465772
_cell_angle_beta   89.87205189
_cell_angle_gamma   89.92918108
_symmetry_Int_Tables_number   1
_chemical_formula_structural   In2Te3
_chemical_formula_sum   'In72 Te108'
_cell_volume   6834.58228520
_cell_formula_units_Z   36
loop_
 _symmetry_equiv_pos_site_id
 _symmetry_equiv_pos_as_xyz
  1  'x, y, z'
loop_
 _atom_site_type_symbol
 _atom_site_label
 _atom_site_symmetry_multiplicity
 _atom_site_fract_x
 _atom_site_fract_y
 _atom_site_fract_z
 _atom_site_occupancy
  In  In0  1  0.03117912  0.66131421  0.28977043  1
  In  In1  1  0.32176759  0.64693805  0.32105309  1
  In  In2  1  0.70993522  0.17398109  0.49572164  1
  In  In3  1  -0.00525028  0.67032308  -0.02035507  1
  In  In4  1  0.15622314  0.14458076  0.34420232  1
  In  In5  1  0.53772290  0.15743482  0.68616572  1
  In  In6  1  0.00225302  0.50154483  0.48769637  1
  In  In7  1  0.68966342  0.50397378  0.85268952  1
  In  In8  1  0.14073612  0.19969245  0.65947220  1
  In  In9  1  0.63774136  -0.00378613  0.35358983  1
  In  In10  1  -0.01585392  0.67414897  0.66737896  1
  In  In11  1  0.33076445  0.00041287  0.66222354  1
  In  In12  1  0.67631737  -0.01794718  0.02423767  1
  In  In13  1  0.84028667  -0.02086145  0.18291888  1
  In  In14  1  0.67032998  0.66382048  -0.00634579  1
  In  In15  1  0.82920752  0.14964569  -0.01027658  1
  In  In16  1  0.14734684  0.17485193  -0.03489838  1
  In  In17  1  0.81916543  0.65810610  0.17219110  1
  In  In18  1  0.33290328  0.50887712  0.13619954  1
  In  In19  1  0.89101034  0.33928286  0.57355220  1
  In  In20  1  0.53769449  0.51373923  0.68688977  1
  In  In21  1  0.51694259  -0.00178114  0.85116135  1
  In  In22  1  0.48289088  0.49721905  0.35114262  1
  In  In23  1  0.31423631  0.82423942  0.50740454  1
  In  In24  1  0.67163431  0.77353497  0.49635898  1
  In  In25  1  0.84408467  0.16226976  0.29657810  1
  In  In26  1  0.32331556  0.15748618  0.51345157  1
  In  In27  1  0.68182912  0.34062537  0.00306072  1
  In  In28  1  0.14393017  0.50731050  0.66038915  1
  In  In29  1  0.33835256  0.35472413  0.66193310  1
  In  In30  1  0.83499324  0.49632173  0.34291523  1
  In  In31  1  0.00483567  0.84244019  0.14876014  1
  In  In32  1  -0.00636981  0.81720470  0.50384648  1
  In  In33  1  -0.02713631  0.49627974  0.82906589  1
  In  In34  1  0.88859650  -0.02914844  0.56228752  1
  In  In35  1  0.65667181  0.38825340  0.37709636  1
  In  In36  1  0.83775191  0.80538795  0.00188227  1
  In  In37  1  0.16743971  0.84988930  -0.02307566  1
  In  In38  1  0.16100746  0.35521200  0.82848258  1
  In  In39  1  0.02468188  0.16383917  0.14956457  1
  In  In40  1  0.81187193  0.80675812  0.66942415  1
  In  In41  1  0.32306012  0.17541543  0.16690740  1
  In  In42  1  0.82497297  0.35345470  0.15893560  1
  In  In43  1  0.31020545  0.01093919  -0.01870433  1
  In  In44  1  -0.00199411  0.36303742  0.00725466  1
  In  In45  1  0.68719715  0.19796948  0.83205216  1
  In  In46  1  -0.00021940  0.34709833  0.33111713  1
  In  In47  1  0.65977438  0.81966742  0.83856980  1
  In  In48  1  0.34630143  0.49930318  0.85235953  1
  In  In49  1  0.50303845  0.65542808  0.49434642  1
  In  In50  1  0.65186381  0.17215123  0.20384293  1
  In  In51  1  0.51416816  0.50172797  0.00107463  1
  In  In52  1  0.31763556  0.50781139  0.48764433  1
  In  In53  1  0.68840697  -0.01051480  0.68088217  1
  In  In54  1  0.49902331  0.17478770  -0.00448953  1
  In  In55  1  0.50597925  -0.02674066  0.52105547  1
  In  In56  1  0.86018457  -0.00756207  0.82242106  1
  In  In57  1  0.00686996  0.15622531  0.50449189  1
  In  In58  1  0.33372583  0.81947908  0.82319183  1
  In  In59  1  0.59736394  0.83208194  0.17407473  1
  In  In60  1  0.17885863  0.01320820  0.16205760  1
  In  In61  1  0.51979645  0.34263382  0.53590115  1
  In  In62  1  0.40846976  0.74987610  0.17546805  1
  In  In63  1  0.34381137  0.67451945  0.66513761  1
  In  In64  1  0.18190643  0.36364668  0.16038598  1
  In  In65  1  0.19291469  0.83499333  0.32629244  1
  In  In66  1  0.13974400  0.00870092  0.80809986  1
  In  In67  1  0.15536393  0.67455602  0.81151432  1
  In  In68  1  0.34984622  0.33031471  -0.02592985  1
  In  In69  1  0.82127228  0.83028853  0.35209396  1
  In  In70  1  0.48095702  0.16681396  0.35975497  1
  In  In71  1  0.31953255  0.30820664  0.33660592  1
  Te  Te72  1  0.08686703  0.06629781  0.05251785  1
  Te  Te73  1  0.08548828  0.05378263  0.43327566  1
  Te  Te74  1  0.05392152  0.10729025  0.73632925  1
  Te  Te75  1  0.08171881  0.45015966  0.09398304  1
  Te  Te76  1  0.09697600  0.43170388  0.39870308  1
  Te  Te77  1  0.05553493  0.41014193  0.73447922  1
  Te  Te78  1  0.09048279  0.75175538  0.06687209  1
  Te  Te79  1  0.08594902  0.75410087  0.39651959  1
  Te  Te80  1  0.07766574  0.77051322  0.73041789  1
  Te  Te81  1  0.40470883  0.08658384  0.07506914  1
  Te  Te82  1  0.40988643  0.05760374  0.43765833  1
  Te  Te83  1  0.42891066  0.07491492  0.75239482  1
  Te  Te84  1  0.42691155  0.40147029  0.07972477  1
  Te  Te85  1  0.41177264  0.38579622  0.43746702  1
  Te  Te86  1  0.43350059  0.42020544  0.75759726  1
  Te  Te87  1  0.45334956  0.71581641  0.03801432  1
  Te  Te88  1  0.39973402  0.73481841  0.41779067  1
  Te  Te89  1  0.43070772  0.72158634  0.77151080  1
  Te  Te90  1  0.75078897  0.09064171  0.11217726  1
  Te  Te91  1  0.76188503  0.07618193  0.39298410  1
  Te  Te92  1  0.76768989  0.09385399  0.75283439  1
  Te  Te93  1  0.72582902  0.44505097  0.09873102  1
  Te  Te94  1  0.78491677  0.40188889  0.44691064  1
  Te  Te95  1  0.77820692  0.44895488  0.74469981  1
  Te  Te96  1  0.73130258  0.76686549  0.10123874  1
  Te  Te97  1  0.72816082  0.71780872  0.36919322  1
  Te  Te98  1  0.72980342  0.71913556  0.75571416  1
  Te  Te99  1  0.10227063  0.25443401  0.24240905  1
  Te  Te100  1  0.04308883  0.28237253  0.57863825  1
  Te  Te101  1  0.05284943  0.27217386  0.89846768  1
  Te  Te102  1  0.11654675  0.57559517  0.20507562  1
  Te  Te103  1  0.08026468  0.60704443  0.56964903  1
  Te  Te104  1  0.08320066  0.57470088  0.89911637  1
  Te  Te105  1  0.09350126  0.91918879  0.24415844  1
  Te  Te106  1  0.04686968  0.89777597  0.61465049  1
  Te  Te107  1  0.06720172  0.91329001  0.89227193  1
  Te  Te108  1  0.42696021  0.25260465  0.24520166  1
  Te  Te109  1  0.42312067  0.23474417  0.59850649  1
  Te  Te110  1  0.42586147  0.24069057  0.88829499  1
  Te  Te111  1  0.43196591  0.57597302  0.23104255  1
  Te  Te112  1  0.42066584  0.55820764  0.58725177  1
  Te  Te113  1  0.41299448  0.59717542  0.94333120  1
  Te  Te114  1  0.46446719  0.86798767  0.24431104  1
  Te  Te115  1  0.41386490  0.88798328  0.60387223  1
  Te  Te116  1  0.40867414  0.91520817  0.91638369  1
  Te  Te117  1  0.74664506  0.27509127  0.26468643  1
  Te  Te118  1  0.76677488  0.25362238  0.60556731  1
  Te  Te119  1  0.78748314  0.27492113  0.91522977  1
  Te  Te120  1  0.73731618  0.57995883  0.26834326  1
  Te  Te121  1  0.67482255  0.63588697  0.56111320  1
  Te  Te122  1  0.78285913  0.58304419  0.93855245  1
  Te  Te123  1  0.72574408  0.91377920  0.25588125  1
  Te  Te124  1  0.74294334  0.90773466  0.56690930  1
  Te  Te125  1  0.75196494  0.91966251  0.90832115  1
  Te  Te126  1  0.23654815  0.24896542  0.06598030  1
  Te  Te127  1  0.22590240  0.24439785  0.43615740  1
  Te  Te128  1  0.25052513  0.26503895  0.74658813  1
  Te  Te129  1  0.22737734  0.60308767  0.10197124  1
  Te  Te130  1  0.22255603  0.58796813  0.41219204  1
  Te  Te131  1  0.25364197  0.56628921  0.74928755  1
  Te  Te132  1  0.26018355  0.91179035  0.08442323  1
  Te  Te133  1  0.23888354  0.92522820  0.43227320  1
  Te  Te134  1  0.24227233  0.91027945  0.74486491  1
  Te  Te135  1  0.59227160  0.25047254  0.08808777  1
  Te  Te136  1  0.59156357  0.24631969  0.42818275  1
  Te  Te137  1  0.60596072  0.27557242  0.73814426  1
  Te  Te138  1  0.61104482  0.56858588  0.09078787  1
  Te  Te139  1  0.59431844  0.55092821  0.43703367  1
  Te  Te140  1  0.59986576  0.60349035  0.78627617  1
  Te  Te141  1  0.55012760  0.93455247  0.07694222  1
  Te  Te142  1  0.57752748  0.88016124  0.42731160  1
  Te  Te143  1  0.57829305  0.90852323  0.74429567  1
  Te  Te144  1  0.91596527  0.24837199  0.08766782  1
  Te  Te145  1  0.92494727  0.23585958  0.39944766  1
  Te  Te146  1  0.85871157  0.32038629  0.72034856  1
  Te  Te147  1  0.91227348  0.59526095  0.07816397  1
  Te  Te148  1  0.93497217  0.59985631  0.39053040  1
  Te  Te149  1  0.88920028  0.57803073  0.73502120  1
  Te  Te150  1  0.91214248  0.92545863  0.06151175  1
  Te  Te151  1  0.91941030  0.92187479  0.41806735  1
  Te  Te152  1  0.91933116  0.91217736  0.70703752  1
  Te  Te153  1  0.26958195  0.07553989  0.26679576  1
  Te  Te154  1  0.22215782  0.08211041  0.59658537  1
  Te  Te155  1  0.24559488  0.09980128  0.87889635  1
  Te  Te156  1  0.27448404  0.42817063  0.25907467  1
  Te  Te157  1  0.23188128  0.41598227  0.57486737  1
  Te  Te158  1  0.24045719  0.42764899  0.93501972  1
  Te  Te159  1  0.25806573  0.74433396  0.22410474  1
  Te  Te160  1  0.23406851  0.73568404  0.59276246  1
  Te  Te161  1  0.24718344  0.73536436  0.91542752  1
  Te  Te162  1  0.54983455  0.07472772  0.25753690  1
  Te  Te163  1  0.60370242  0.07977899  0.57240969  1
  Te  Te164  1  0.61448305  0.09239358  0.92178572  1
  Te  Te165  1  0.56735134  0.41045642  0.26638460  1
  Te  Te166  1  0.62045098  0.41917931  0.60835557  1
  Te  Te167  1  0.58470804  0.40552511  0.90811057  1
  Te  Te168  1  0.53930467  0.71891288  0.25162696  1
  Te  Te169  1  0.56843436  0.73608037  0.60313146  1
  Te  Te170  1  0.57075596  0.76664747  0.94651308  1
  Te  Te171  1  0.94946685  0.06858193  0.24158411  1
  Te  Te172  1  0.92318827  0.10324437  0.61515449  1
  Te  Te173  1  0.93151120  0.09131963  0.90372946  1
  Te  Te174  1  0.92568328  0.43672644  0.23502536  1
  Te  Te175  1  0.89166868  0.48858272  0.58735583  1
  Te  Te176  1  0.89385840  0.45056606  0.94710719  1
  Te  Te177  1  0.91458863  0.76469026  0.24306360  1
  Te  Te178  1  0.88528091  0.72824159  0.56242526  1
  Te  Te179  1  0.92010948  0.76068173  0.89097539  1
