# generated using pymatgen
data_In2Te3
_symmetry_space_group_name_H-M   'P 1'
_cell_length_a   18.87290250
_cell_length_b   18.88089015
_cell_length_c   18.87458184
_cell_angle_alpha   89.95340226
_cell_angle_beta   90.05657861
_cell_angle_gamma   90.18476341
_symmetry_Int_Tables_number   1
_chemical_formula_structural   In2Te3
_chemical_formula_sum   'In72 Te108'
_cell_volume   6725.67516807
_cell_formula_units_Z   36
loop_
 _symmetry_equiv_pos_site_id
 _symmetry_equiv_pos_as_xyz
  1  'x, y, z'
loop_
 _atom_site_type_symbol
 _atom_site_label
 _atom_site_symmetry_multiplicity
 _atom_site_fract_x
 _atom_site_fract_y
 _atom_site_fract_z
 _atom_site_occupancy
  In  In0  1  0.51668622  0.31158663  0.46624651  1
  In  In1  1  0.00215270  -0.00325905  0.32670444  1
  In  In2  1  0.67195857  0.83658360  0.15678467  1
  In  In3  1  0.65553627  0.48558344  0.48234750  1
  In  In4  1  0.20103965  0.12569669  0.63721401  1
  In  In5  1  0.31701016  0.84884893  0.16790669  1
  In  In6  1  0.15024840  0.66282340  0.48838714  1
  In  In7  1  0.67948197  0.17457587  0.83786860  1
  In  In8  1  0.65492685  0.85605779  0.51049713  1
  In  In9  1  0.14709878  0.67911017  0.84594661  1
  In  In10  1  0.50661036  0.16623981  0.01638626  1
  In  In11  1  0.33487050  0.46830011  0.17607457  1
  In  In12  1  0.00978598  0.32736565  0.33021777  1
  In  In13  1  0.49794554  -0.01171838  0.83782185  1
  In  In14  1  0.49067301  0.16587933  0.65527670  1
  In  In15  1  0.83112740  0.65358206  0.50489749  1
  In  In16  1  0.01166066  0.17531239  0.48145704  1
  In  In17  1  0.49754274  0.02978286  0.18874578  1
  In  In18  1  0.33416044  -0.01341303  0.34654210  1
  In  In19  1  0.32792732  0.15552006  0.84034848  1
  In  In20  1  0.86770095  0.48890049  0.70743147  1
  In  In21  1  0.34606180  0.32619348  0.00956630  1
  In  In22  1  0.81881891  -0.00870795  0.84011325  1
  In  In23  1  0.00552983  -0.01336037  0.66469288  1
  In  In24  1  0.35793873  0.69207869  0.65462995  1
  In  In25  1  0.80737546  0.17334002  0.32490793  1
  In  In26  1  0.81748179  0.50376759  0.34436687  1
  In  In27  1  0.00740933  0.35231915  0.68538388  1
  In  In28  1  0.49077118  0.84384179  0.65982771  1
  In  In29  1  0.82132412  0.21021144  0.65443007  1
  In  In30  1  0.16387108  0.16210034  0.32131827  1
  In  In31  1  0.52263113  0.65683678  0.17163690  1
  In  In32  1  0.65574890  0.33897422  0.00787546  1
  In  In33  1  0.67359243  0.32232253  0.65819328  1
  In  In34  1  0.01520846  0.48831206  0.12776934  1
  In  In35  1  0.85598274  0.81688976  0.31789175  1
  In  In36  1  0.00376472  0.67112245  0.00799588  1
  In  In37  1  0.82832096  0.03628698  0.49571380  1
  In  In38  1  0.83215734  0.33630082  0.17836362  1
  In  In39  1  0.17582231  -0.02789270  0.81571090  1
  In  In40  1  0.83672732  0.01445313  0.16636476  1
  In  In41  1  0.00408215  0.66437501  0.68480420  1
  In  In42  1  0.84506387  0.83055719  -0.01247005  1
  In  In43  1  0.47508721  0.50785427  0.66637348  1
  In  In44  1  0.68688294  0.68597021  0.66489630  1
  In  In45  1  0.66774051  0.65488490  0.34119663  1
  In  In46  1  0.02012722  0.83893063  0.50916572  1
  In  In47  1  0.13728324  0.32246125  0.83579076  1
  In  In48  1  0.65855875  0.50876298  0.85061802  1
  In  In49  1  0.34518666  0.33136740  0.67054061  1
  In  In50  1  0.15744576  0.48986689  0.30440940  1
  In  In51  1  0.68807738  0.66132183  0.01163846  1
  In  In52  1  0.32390103  0.50475358  0.84604683  1
  In  In53  1  0.48108782  0.68072384  0.83946479  1
  In  In54  1  0.82539955  0.17278717  0.01761672  1
  In  In55  1  0.16154646  0.18651659  -0.00152898  1
  In  In56  1  0.48782103  0.83580739  0.01441450  1
  In  In57  1  0.82843963  0.83198847  0.69690795  1
  In  In58  1  0.31525208  0.65415335  0.00020737  1
  In  In59  1  0.33426700  0.47051483  0.48303593  1
  In  In60  1  0.00559758  -0.00175896  -0.01258600  1
  In  In61  1  0.37186885  0.17626168  0.19277928  1
  In  In62  1  0.15100752  -0.01268497  0.15822781  1
  In  In63  1  0.32413272  0.82755814  0.48857956  1
  In  In64  1  0.63277585  0.00224694  0.66543535  1
  In  In65  1  0.34359497  0.68254172  0.32970284  1
  In  In66  1  0.65994229  0.47403782  0.18790810  1
  In  In67  1  0.49584440  0.02585249  0.48138455  1
  In  In68  1  0.17339886  0.31347766  0.48046701  1
  In  In69  1  0.15141792  0.51626966  0.67929789  1
  In  In70  1  0.16828574  0.67427460  0.15199640  1
  In  In71  1  0.03133568  0.18815592  0.85290619  1
  Te  Te72  1  0.07188131  0.09509560  0.08307474  1
  Te  Te73  1  0.09902970  0.06712295  0.42350341  1
  Te  Te74  1  0.09058064  0.09141881  0.74873345  1
  Te  Te75  1  0.11126368  0.40271826  0.06008512  1
  Te  Te76  1  0.08583900  0.42189723  0.42404938  1
  Te  Te77  1  0.07175439  0.46366925  0.79999924  1
  Te  Te78  1  0.09675599  0.77225228  0.06771381  1
  Te  Te79  1  0.05712966  0.74250096  0.40096127  1
  Te  Te80  1  0.09907836  0.76350133  0.73574264  1
  Te  Te81  1  0.40046185  0.07741638  0.07928955  1
  Te  Te82  1  0.40171923  0.10866885  0.40047130  1
  Te  Te83  1  0.40990328  0.07154056  0.74388115  1
  Te  Te84  1  0.43807148  0.41188483  0.08643157  1
  Te  Te85  1  0.43595907  0.41399591  0.39024547  1
  Te  Te86  1  0.42215316  0.41212242  0.77243517  1
  Te  Te87  1  0.40626531  0.73347362  0.10231530  1
  Te  Te88  1  0.43246437  0.75676347  0.41966544  1
  Te  Te89  1  0.39002189  0.79056192  0.77122202  1
  Te  Te90  1  0.73429666  0.07595846  0.08033341  1
  Te  Te91  1  0.72482237  0.06818563  0.39440811  1
  Te  Te92  1  0.74994366  0.08820654  0.73171915  1
  Te  Te93  1  0.75817025  0.42676906  0.08101847  1
  Te  Te94  1  0.73421744  0.39526512  0.39832527  1
  Te  Te95  1  0.73924483  0.41753064  0.75530790  1
  Te  Te96  1  0.77922387  0.74682731  0.09953849  1
  Te  Te97  1  0.75190189  0.75985668  0.42601687  1
  Te  Te98  1  0.73971402  0.75322161  0.78359094  1
  Te  Te99  1  0.09294942  0.25628632  0.23334773  1
  Te  Te100  1  0.09036267  0.24908342  0.59155470  1
  Te  Te101  1  0.04815417  0.29539223  0.96794971  1
  Te  Te102  1  0.06954443  0.59355711  0.23725936  1
  Te  Te103  1  0.05853257  0.57455351  0.57461825  1
  Te  Te104  1  0.08993031  0.57326235  0.93109041  1
  Te  Te105  1  0.06276166  0.89778948  0.23750416  1
  Te  Te106  1  0.11186482  0.92729311  0.58324307  1
  Te  Te107  1  0.08440756  0.90174133  0.90940748  1
  Te  Te108  1  0.47576655  0.27960721  0.23062410  1
  Te  Te109  1  0.40787894  0.25119424  0.56044947  1
  Te  Te110  1  0.42908352  0.24409349  0.91009273  1
  Te  Te111  1  0.41780513  0.57849479  0.24901044  1
  Te  Te112  1  0.40658641  0.58635058  0.55618660  1
  Te  Te113  1  0.42721919  0.57427151  0.93451927  1
  Te  Te114  1  0.42636987  0.90866609  0.25367108  1
  Te  Te115  1  0.40353663  0.93996996  0.57674582  1
  Te  Te116  1  0.40488536  0.92535135  0.93265271  1
  Te  Te117  1  0.72245483  0.24706190  0.22640271  1
  Te  Te118  1  0.73309770  0.25029620  0.54342270  1
  Te  Te119  1  0.76169077  0.27127304  0.91912895  1
  Te  Te120  1  0.75420149  0.59005637  0.23727581  1
  Te  Te121  1  0.74020765  0.56545546  0.58938548  1
  Te  Te122  1  0.76847623  0.57052219  0.92718291  1
  Te  Te123  1  0.75978162  0.91477045  0.25528113  1
  Te  Te124  1  0.76014805  0.92970039  0.59612088  1
  Te  Te125  1  0.73948243  0.92415841  0.94255377  1
  Te  Te126  1  0.26273944  0.23817541  0.10051075  1
  Te  Te127  1  0.26798980  0.24042208  0.39597403  1
  Te  Te128  1  0.24531679  0.24552094  0.74686066  1
  Te  Te129  1  0.24122413  0.55642819  0.08928474  1
  Te  Te130  1  0.24724356  0.57722521  0.40506628  1
  Te  Te131  1  0.26621402  0.59721212  0.74073782  1
  Te  Te132  1  0.22546631  0.89913996  0.06385674  1
  Te  Te133  1  0.22939888  0.89833635  0.40107309  1
  Te  Te134  1  0.29472277  0.91485893  0.75431103  1
  Te  Te135  1  0.60170014  0.23880127  0.10714795  1
  Te  Te136  1  0.55376722  0.21644489  0.35391874  1
  Te  Te137  1  0.57728732  0.24735762  0.75055997  1
  Te  Te138  1  0.59278725  0.56193599  0.07962700  1
  Te  Te139  1  0.56669935  0.58132625  0.41710320  1
  Te  Te140  1  0.56887256  0.60012375  0.74346280  1
  Te  Te141  1  0.57503803  0.93330260  0.09269343  1
  Te  Te142  1  0.56890091  0.91911124  0.41042559  1
  Te  Te143  1  0.59393000  0.89367842  0.76224404  1
  Te  Te144  1  0.92145374  0.24787578  0.10059938  1
  Te  Te145  1  0.90453530  0.25703772  0.41557632  1
  Te  Te146  1  0.91388439  0.25762812  0.76700901  1
  Te  Te147  1  0.91013518  0.57182575  0.06786075  1
  Te  Te148  1  0.92060000  0.57970432  0.41662011  1
  Te  Te149  1  0.89938845  0.61721686  0.77872807  1
  Te  Te150  1  0.92360254  0.91748545  0.08767307  1
  Te  Te151  1  0.90915026  0.92465371  0.42965865  1
  Te  Te152  1  0.93244821  0.91133819  0.77459949  1
  Te  Te153  1  0.25599327  0.06919733  0.23513171  1
  Te  Te154  1  0.30407425  0.06066841  0.55888386  1
  Te  Te155  1  0.23127880  0.07552887  0.92276062  1
  Te  Te156  1  0.24898475  0.38291626  0.26249199  1
  Te  Te157  1  0.24297139  0.42069079  0.59782009  1
  Te  Te158  1  0.24502499  0.39813155  0.91855868  1
  Te  Te159  1  0.23378776  0.76126341  0.26146693  1
  Te  Te160  1  0.23443667  0.74767042  0.58377773  1
  Te  Te161  1  0.24966764  0.75579338  0.91879215  1
  Te  Te162  1  0.59544848  0.08091814  0.28715335  1
  Te  Te163  1  0.59751411  0.10701682  0.56320132  1
  Te  Te164  1  0.58941574  0.08208315  0.91811624  1
  Te  Te165  1  0.55382632  0.41107397  0.26998559  1
  Te  Te166  1  0.55895086  0.40767707  0.58750860  1
  Te  Te167  1  0.56845049  0.41086671  0.91316020  1
  Te  Te168  1  0.58976178  0.75959696  0.25981593  1
  Te  Te169  1  0.57544473  0.74534546  0.57922894  1
  Te  Te170  1  0.58043073  0.74472437  0.93584818  1
  Te  Te171  1  0.92428772  0.10438331  0.25362829  1
  Te  Te172  1  0.92789738  0.10079965  0.59503254  1
  Te  Te173  1  0.91331602  0.09481625  0.90503612  1
  Te  Te174  1  0.92785812  0.43216087  0.25253660  1
  Te  Te175  1  0.90921683  0.40700963  0.59203143  1
  Te  Te176  1  0.92770099  0.40902534  0.82624162  1
  Te  Te177  1  0.96116956  0.73109456  0.26719279  1
  Te  Te178  1  0.91027577  0.75755328  0.58976955  1
  Te  Te179  1  0.92080186  0.73723596  0.90046967  1
