# generated using pymatgen
data_In2Te3
_symmetry_space_group_name_H-M   'P 1'
_cell_length_a   18.99049490
_cell_length_b   18.98215182
_cell_length_c   18.96546799
_cell_angle_alpha   90.08252487
_cell_angle_beta   89.86915401
_cell_angle_gamma   89.90701699
_symmetry_Int_Tables_number   1
_chemical_formula_structural   In2Te3
_chemical_formula_sum   'In72 Te108'
_cell_volume   6836.64661144
_cell_formula_units_Z   36
loop_
 _symmetry_equiv_pos_site_id
 _symmetry_equiv_pos_as_xyz
  1  'x, y, z'
loop_
 _atom_site_type_symbol
 _atom_site_label
 _atom_site_symmetry_multiplicity
 _atom_site_fract_x
 _atom_site_fract_y
 _atom_site_fract_z
 _atom_site_occupancy
  In  In0  1  0.83928654  0.84665039  0.69861281  1
  In  In1  1  0.32459992  0.01490377  -0.01509658  1
  In  In2  1  0.84935405  0.31951789  0.80520173  1
  In  In3  1  0.01164819  0.49059029  0.16349543  1
  In  In4  1  0.33705515  0.49432308  0.15973495  1
  In  In5  1  0.17314560  0.48200821  0.67505131  1
  In  In6  1  0.65644536  0.83714650  0.15824495  1
  In  In7  1  0.81618409  0.65142040  0.82713173  1
  In  In8  1  0.00867799  0.34170486  0.35949158  1
  In  In9  1  0.66426181  0.64733914  0.01281876  1
  In  In10  1  0.34191683  0.80838261  0.17043408  1
  In  In11  1  0.66567940  0.44935585  0.84804089  1
  In  In12  1  0.48936585  0.48717964  0.31487489  1
  In  In13  1  0.85039485  0.67016807  0.51092739  1
  In  In14  1  0.31388389  0.82028504  0.80665254  1
  In  In15  1  0.47826357  0.01244321  0.50678886  1
  In  In16  1  0.68521742  0.18596579  0.16107628  1
  In  In17  1  0.45672919  0.64130228  0.49492201  1
  In  In18  1  -0.02027014  0.17094552  0.14882824  1
  In  In19  1  0.48381122  0.82003219  0.34863620  1
  In  In20  1  0.33019255  -0.00931313  0.65212795  1
  In  In21  1  0.84722315  0.52461799  0.33268224  1
  In  In22  1  0.20423476  0.35123996  0.85278292  1
  In  In23  1  0.16015880  0.16035147  0.32948146  1
  In  In24  1  0.27998524  0.64606785  0.35491080  1
  In  In25  1  -0.00543583  0.85688084  0.18688671  1
  In  In26  1  0.64953606  0.49474331  0.51195154  1
  In  In27  1  0.33445687  -0.01463209  0.32240962  1
  In  In28  1  0.83678455  0.16680699  0.33990307  1
  In  In29  1  0.01597340  0.50493541  0.83678428  1
  In  In30  1  0.50874360  0.17608798  0.68020098  1
  In  In31  1  0.48246669  0.17289769  -0.01568842  1
  In  In32  1  0.02861459  0.70069123  0.36212876  1
  In  In33  1  0.17633502  0.16351675  -0.00379420  1
  In  In34  1  0.00883118  0.16724136  0.80221621  1
  In  In35  1  0.65408265  0.21103436  0.82363154  1
  In  In36  1  0.53005170  0.20023300  0.32196796  1
  In  In37  1  0.48870539  0.66045011  0.83781344  1
  In  In38  1  0.30061933  0.65559430  0.66775809  1
  In  In39  1  0.65344805  0.85960899  0.83744893  1
  In  In40  1  0.15759202  0.67853819  0.16064678  1
  In  In41  1  0.01634865  0.65695384  -0.00810689  1
  In  In42  1  0.34432674  0.31807813  0.69184061  1
  In  In43  1  0.30864547  0.16029687  0.48350560  1
  In  In44  1  -0.00428874  0.33535683  0.00797776  1
  In  In45  1  0.65265813  0.84878647  0.52098889  1
  In  In46  1  0.49988397  0.33661470  0.15982315  1
  In  In47  1  0.50417746  0.85520270  0.01529667  1
  In  In48  1  0.33286725  0.69215821  -0.02000156  1
  In  In49  1  0.66103606  0.01520343  0.69405535  1
  In  In50  1  0.66383390  0.03996839  0.33926149  1
  In  In51  1  0.83073993  0.02963880  0.17571392  1
  In  In52  1  0.02068557  0.65144430  0.68969448  1
  In  In53  1  0.63455080  0.65280855  0.66236270  1
  In  In54  1  0.50007592  0.00432978  0.83397586  1
  In  In55  1  0.86948716  0.66763345  0.16948178  1
  In  In56  1  0.83206313  0.83587080  -0.03151383  1
  In  In57  1  0.31970216  0.49676736  0.51858612  1
  In  In58  1  0.81798777  0.35516184  0.52493004  1
  In  In59  1  0.50739234  0.33316164  0.49108705  1
  In  In60  1  0.01810876  0.85223268  0.80758164  1
  In  In61  1  0.00922737  0.32211938  0.63114437  1
  In  In62  1  0.83167994  0.89471331  0.37654264  1
  In  In63  1  0.00536499  0.00815785  0.40527126  1
  In  In64  1  0.70250481  0.65112815  0.33742191  1
  In  In65  1  0.53035361  0.62740004  0.17453259  1
  In  In66  1  0.66217859  0.45251892  0.11168253  1
  In  In67  1  -0.01878104  0.01002541  -0.03098911  1
  In  In68  1  0.18373265  0.33301648  0.15640463  1
  In  In69  1  0.14871478  0.84091166  0.38862524  1
  In  In70  1  0.14211073  0.01703788  0.52507371  1
  In  In71  1  0.18649447  -0.01080572  0.15666315  1
  Te  Te72  1  0.07825529  0.07232588  0.08636504  1
  Te  Te73  1  0.06856102  0.14487387  0.45278566  1
  Te  Te74  1  0.04957688  0.05389294  0.71259774  1
  Te  Te75  1  0.10510905  0.42531744  0.06383124  1
  Te  Te76  1  0.12711387  0.42226138  0.38725098  1
  Te  Te77  1  0.08139562  0.38923421  0.75806250  1
  Te  Te78  1  0.06772957  0.77202936  0.08364960  1
  Te  Te79  1  0.10076797  0.74116529  0.48911717  1
  Te  Te80  1  0.10612497  0.73616183  0.77516494  1
  Te  Te81  1  0.41542507  0.08010803  0.07656311  1
  Te  Te82  1  0.42317099  0.09281630  0.39225764  1
  Te  Te83  1  0.40772551  0.08404672  0.74726022  1
  Te  Te84  1  0.40188245  0.39952188  0.06343500  1
  Te  Te85  1  0.40412247  0.41715790  0.41583210  1
  Te  Te86  1  0.43079063  0.39212870  0.78858364  1
  Te  Te87  1  0.44992697  0.73361407  0.08885915  1
  Te  Te88  1  0.37410194  0.74808840  0.42365514  1
  Te  Te89  1  0.41730402  0.74000017  0.73249665  1
  Te  Te90  1  0.77359268  0.11024517  0.06964255  1
  Te  Te91  1  0.77543325  0.06461755  0.43274039  1
  Te  Te92  1  0.74486776  0.11773637  0.75342005  1
  Te  Te93  1  0.75784907  0.36745906  0.04335728  1
  Te  Te94  1  0.75177463  0.43929574  0.41407148  1
  Te  Te95  1  0.75209604  0.40683058  0.73644851  1
  Te  Te96  1  0.76282415  0.74611771  0.08355246  1
  Te  Te97  1  0.75172739  0.76219736  0.43602468  1
  Te  Te98  1  0.72706863  0.74814257  0.74763328  1
  Te  Te99  1  0.07206109  0.25371608  0.23671705  1
  Te  Te100  1  0.11039301  0.24298496  0.56176171  1
  Te  Te101  1  0.08174298  0.25059827  0.91573982  1
  Te  Te102  1  0.07026080  0.59814106  0.25265032  1
  Te  Te103  1  0.07039104  0.55022405  0.59360600  1
  Te  Te104  1  0.11289945  0.56904286  0.92602518  1
  Te  Te105  1  0.10063514  0.92791680  0.26740024  1
  Te  Te106  1  0.08864723  0.92864146  0.63124371  1
  Te  Te107  1  0.08606879  0.92628445  0.91404111  1
  Te  Te108  1  0.41826633  0.27052431  0.26155044  1
  Te  Te109  1  0.41685373  0.23647815  0.56993846  1
  Te  Te110  1  0.43655216  0.26113411  0.87325411  1
  Te  Te111  1  0.39939687  0.60221859  0.26203654  1
  Te  Te112  1  0.41678922  0.56059253  0.61400982  1
  Te  Te113  1  0.39323766  0.57657418  0.91144366  1
  Te  Te114  1  0.43464137  0.90976121  0.23510017  1
  Te  Te115  1  0.40929787  0.90049278  0.56661875  1
  Te  Te116  1  0.41338221  0.89909536  0.90301710  1
  Te  Te117  1  0.75112760  0.26046084  0.26793638  1
  Te  Te118  1  0.70570673  0.26691672  0.56362848  1
  Te  Te119  1  0.75454746  0.27464756  0.91676447  1
  Te  Te120  1  0.75624568  0.57369452  0.21706520  1
  Te  Te121  1  0.74753270  0.58573034  0.58607482  1
  Te  Te122  1  0.74936435  0.55898453  0.92564582  1
  Te  Te123  1  0.74785819  0.92192576  0.25305972  1
  Te  Te124  1  0.74992798  0.92659132  0.60398656  1
  Te  Te125  1  0.75833493  0.94004776  0.89849027  1
  Te  Te126  1  0.26751765  0.23882011  0.08135973  1
  Te  Te127  1  0.24993134  0.25786698  0.39273718  1
  Te  Te128  1  0.24747675  0.23937278  0.76905272  1
  Te  Te129  1  0.25939250  0.60139489  0.08278484  1
  Te  Te130  1  0.20249087  0.55055718  0.43867732  1
  Te  Te131  1  0.25362690  0.56086121  0.76798670  1
  Te  Te132  1  0.26800522  0.89516319  0.07215374  1
  Te  Te133  1  0.24845117  0.94280780  0.43892117  1
  Te  Te134  1  0.22813262  0.90865085  0.72345280  1
  Te  Te135  1  0.58313856  0.25100203  0.06803921  1
  Te  Te136  1  0.61812434  0.24995925  0.43094686  1
  Te  Te137  1  0.61664133  0.28311508  0.69227459  1
  Te  Te138  1  0.55934941  0.54293598  0.05027907  1
  Te  Te139  1  0.57395454  0.58220187  0.40669741  1
  Te  Te140  1  0.58885114  0.56531522  0.77530717  1
  Te  Te141  1  0.61333711  0.93865481  0.06279232  1
  Te  Te142  1  0.58334594  0.92311298  0.40607749  1
  Te  Te143  1  0.55867569  0.90800681  0.73122733  1
  Te  Te144  1  0.89055246  0.27720194  0.09658108  1
  Te  Te145  1  0.90472405  0.26183539  0.43705220  1
  Te  Te146  1  0.91167756  0.22846859  0.69851812  1
  Te  Te147  1  0.91935690  0.56736879  0.06811288  1
  Te  Te148  1  0.94604175  0.58766286  0.42696018  1
  Te  Te149  1  0.90757089  0.56405468  0.74605188  1
  Te  Te150  1  0.90162573  0.91967811  0.08363211  1
  Te  Te151  1  0.94131416  0.88887623  0.47850405  1
  Te  Te152  1  0.92159808  0.95514360  0.75716816  1
  Te  Te153  1  0.26252439  0.09013597  0.23922678  1
  Te  Te154  1  0.23871936  0.10447637  0.60471108  1
  Te  Te155  1  0.22538182  0.06854278  0.89391926  1
  Te  Te156  1  0.23591558  0.43590137  0.25104651  1
  Te  Te157  1  0.25091611  0.38235623  0.59030649  1
  Te  Te158  1  0.30545671  0.40722784  0.94120717  1
  Te  Te159  1  0.23074465  0.76801171  0.26736553  1
  Te  Te160  1  0.23898547  0.72981982  0.56032247  1
  Te  Te161  1  0.22327711  0.75188515  0.90197085  1
  Te  Te162  1  0.57881463  0.09102275  0.22897564  1
  Te  Te163  1  0.58409726  0.08615595  0.58084295  1
  Te  Te164  1  0.59117409  0.09580131  0.90734881  1
  Te  Te165  1  0.60242196  0.41320911  0.24532705  1
  Te  Te166  1  0.55891472  0.41977316  0.60050872  1
  Te  Te167  1  0.54716379  0.37103396  0.89524991  1
  Te  Te168  1  0.59076372  0.74374924  0.26221485  1
  Te  Te169  1  0.55983956  0.73743867  0.56178677  1
  Te  Te170  1  0.59169634  0.74785173  0.92515556  1
  Te  Te171  1  0.94193998  0.07261258  0.26973488  1
  Te  Te172  1  0.92180447  0.03380920  0.52529088  1
  Te  Te173  1  0.91778161  0.12684614  0.91153790  1
  Te  Te174  1  0.92032841  0.41490079  0.25727425  1
  Te  Te175  1  0.93471051  0.43372721  0.57009181  1
  Te  Te176  1  0.91717715  0.41488727  0.90665772  1
  Te  Te177  1  0.91270921  0.76564691  0.27816196  1
  Te  Te178  1  0.92260678  0.74722406  0.61942229  1
  Te  Te179  1  0.92196890  0.73857371  0.89516362  1
