# generated using pymatgen
data_In2Te3
_symmetry_space_group_name_H-M   'P 1'
_cell_length_a   18.88520784
_cell_length_b   18.89673925
_cell_length_c   18.89212501
_cell_angle_alpha   90.15444885
_cell_angle_beta   90.00908086
_cell_angle_gamma   90.03151032
_symmetry_Int_Tables_number   1
_chemical_formula_structural   In2Te3
_chemical_formula_sum   'In72 Te108'
_cell_volume   6741.98529548
_cell_formula_units_Z   36
loop_
 _symmetry_equiv_pos_site_id
 _symmetry_equiv_pos_as_xyz
  1  'x, y, z'
loop_
 _atom_site_type_symbol
 _atom_site_label
 _atom_site_symmetry_multiplicity
 _atom_site_fract_x
 _atom_site_fract_y
 _atom_site_fract_z
 _atom_site_occupancy
  In  In0  1  -0.05340918  0.13401863  0.17039203  1
  In  In1  1  0.31006359  0.15987354  0.21389382  1
  In  In2  1  0.12362767  0.82621388  0.02672203  1
  In  In3  1  0.84918852  0.16344476  0.64715978  1
  In  In4  1  0.35367881  0.49400611  0.82498371  1
  In  In5  1  0.33999679  0.36503420  0.65293061  1
  In  In6  1  0.15367549  0.66592601  0.17887715  1
  In  In7  1  0.49626232  0.65954340  0.83108434  1
  In  In8  1  0.50998337  0.83292816  0.32517789  1
  In  In9  1  0.80989419  0.00590488  0.84107127  1
  In  In10  1  0.50219448  0.49986852  0.00468371  1
  In  In11  1  0.11970668  0.86991769  0.32336342  1
  In  In12  1  0.33548440  -0.01554675  0.00501440  1
  In  In13  1  0.15971021  -0.02271201  0.86544885  1
  In  In14  1  0.34364219  0.18452968  0.84723231  1
  In  In15  1  0.52132827  0.81711700  0.66062697  1
  In  In16  1  -0.00773880  0.33200712  0.01244287  1
  In  In17  1  0.32858978  0.02810482  0.65281321  1
  In  In18  1  0.49379113  0.69428805  0.17745522  1
  In  In19  1  0.68138452  0.32691973  0.31412642  1
  In  In20  1  0.17975041  0.81728349  0.66962572  1
  In  In21  1  0.32858708  0.33797524  0.00101569  1
  In  In22  1  0.69896204  0.01732397  0.04649149  1
  In  In23  1  0.14465372  0.66115830  0.83608295  1
  In  In24  1  0.69149693  0.65936404  0.64958581  1
  In  In25  1  0.14293293  0.16404387  0.02941223  1
  In  In26  1  0.15359278  0.48182132  0.64862593  1
  In  In27  1  0.66834982  0.33744820  -0.01663420  1
  In  In28  1  0.14834365  0.33598792  0.79419057  1
  In  In29  1  0.30378124  0.18386206  0.44927157  1
  In  In30  1  0.66921280  0.82467570  0.17100367  1
  In  In31  1  0.50592060  0.18218867  0.67158283  1
  In  In32  1  0.16758929  0.33991495  0.22223784  1
  In  In33  1  0.71004204  0.82576640  0.46185574  1
  In  In34  1  0.66562115  0.49213582  0.16865987  1
  In  In35  1  0.17019455  0.52642942  -0.00048920  1
  In  In36  1  0.32102178  0.83684763  0.87000276  1
  In  In37  1  0.50792935  0.34584493  0.15622807  1
  In  In38  1  0.01203826  0.51112448  0.16042481  1
  In  In39  1  0.67940072  -0.00302186  0.65271135  1
  In  In40  1  0.50745813  0.49732758  0.66412658  1
  In  In41  1  -0.00517561  0.31970054  0.33750963  1
  In  In42  1  0.33880921  0.65323128  0.65056427  1
  In  In43  1  -0.01472243  0.14945793  0.84949011  1
  In  In44  1  -0.00205042  0.35590003  0.64874541  1
  In  In45  1  0.30962443  0.01550793  0.32779498  1
  In  In46  1  -0.01487090  0.83947570  0.48712326  1
  In  In47  1  -0.00624981  0.50125306  0.49015860  1
  In  In48  1  -0.01610949  0.65207886  0.69018888  1
  In  In49  1  0.87984412  0.80624611  -0.00007633  1
  In  In50  1  0.32999364  0.65691626  0.33176393  1
  In  In51  1  -0.00734441  -0.00550894  0.67175715  1
  In  In52  1  0.34076832  0.83352885  0.50794457  1
  In  In53  1  0.80588125  0.31148249  0.16661762  1
  In  In54  1  0.31256253  0.82208418  0.14641138  1
  In  In55  1  0.68237447  0.53178232  0.46187170  1
  In  In56  1  0.85603685  0.49900571  0.33016499  1
  In  In57  1  0.69937647  -0.01825065  0.32460203  1
  In  In58  1  0.11315555  0.00891406  0.45461910  1
  In  In59  1  0.32032865  0.50307676  0.49739297  1
  In  In60  1  0.69876907  0.64150853  -0.02925698  1
  In  In61  1  0.66737946  0.83837388  0.84866964  1
  In  In62  1  0.67060149  0.32613717  0.67920596  1
  In  In63  1  0.53083779  0.16026639  0.01732091  1
  In  In64  1  0.68128155  0.16115208  0.50686170  1
  In  In65  1  0.48900818  0.34127212  0.50442279  1
  In  In66  1  0.83260232  0.33890084  0.84036452  1
  In  In67  1  0.86068888  0.68662389  0.19380328  1
  In  In68  1  0.81399931  0.83359950  0.65813558  1
  In  In69  1  0.50810679  0.14878466  0.32998241  1
  In  In70  1  0.50269853  0.00293679  0.16543378  1
  In  In71  1  0.14362919  0.17303836  0.64763408  1
  Te  Te72  1  0.03592495  0.07094554  0.06229826  1
  Te  Te73  1  0.04337079  0.12894782  0.39962809  1
  Te  Te74  1  0.09515307  0.07811746  0.75820972  1
  Te  Te75  1  0.10672933  0.41265237  0.07804492  1
  Te  Te76  1  0.07878627  0.43129161  0.38977727  1
  Te  Te77  1  0.05532713  0.44937090  0.76159144  1
  Te  Te78  1  0.04260808  0.75117710  0.12724179  1
  Te  Te79  1  0.07240999  0.75609385  0.40140945  1
  Te  Te80  1  0.06782831  0.76558358  0.75624523  1
  Te  Te81  1  0.40449083  0.09259322  0.08964141  1
  Te  Te82  1  0.41262748  0.07728330  0.42311086  1
  Te  Te83  1  0.42120236  0.08665065  0.76040779  1
  Te  Te84  1  0.39784091  0.43380821  0.09589844  1
  Te  Te85  1  0.40331148  0.41451434  0.40797902  1
  Te  Te86  1  0.44598549  0.39299697  0.75801342  1
  Te  Te87  1  0.42343926  0.76585174  0.07036774  1
  Te  Te88  1  0.42516211  0.74669169  0.41738647  1
  Te  Te89  1  0.40636693  0.75226360  0.74641122  1
  Te  Te90  1  0.80648975  0.08934283  0.11833916  1
  Te  Te91  1  0.76237947  0.09544119  0.40139050  1
  Te  Te92  1  0.74672584  0.10093746  0.74104799  1
  Te  Te93  1  0.75904931  0.42263218  0.07276656  1
  Te  Te94  1  0.76534664  0.40837285  0.41090166  1
  Te  Te95  1  0.75955223  0.42420478  0.74461846  1
  Te  Te96  1  0.75682955  0.73360288  0.08029976  1
  Te  Te97  1  0.80188249  0.71509503  0.42002336  1
  Te  Te98  1  0.75156991  0.74474893  0.76445967  1
  Te  Te99  1  0.05272115  0.24095515  0.22245816  1
  Te  Te100  1  0.07203699  0.26527858  0.55494124  1
  Te  Te101  1  0.09051180  0.25160513  0.90845897  1
  Te  Te102  1  0.09592300  0.56319128  0.27111400  1
  Te  Te103  1  0.07843862  0.59466720  0.58393533  1
  Te  Te104  1  0.05654597  0.60623076  0.94390157  1
  Te  Te105  1  0.02933703  0.92848764  0.22003632  1
  Te  Te106  1  0.09460558  0.91372199  0.58593251  1
  Te  Te107  1  0.04998809  0.89875024  0.92078512  1
  Te  Te108  1  0.42862751  0.24755533  0.24819031  1
  Te  Te109  1  0.39766455  0.23918927  0.57233893  1
  Te  Te110  1  0.44129839  0.25895257  0.93687837  1
  Te  Te111  1  0.42649904  0.58506948  0.24678018  1
  Te  Te112  1  0.43891850  0.58533561  0.56173215  1
  Te  Te113  1  0.39972949  0.59307568  0.92769986  1
  Te  Te114  1  0.40714175  0.91866106  0.25021850  1
  Te  Te115  1  0.42493939  0.92218168  0.59679207  1
  Te  Te116  1  0.43015413  0.92429592  0.91085801  1
  Te  Te117  1  0.78555490  0.22448838  0.28694942  1
  Te  Te118  1  0.76607644  0.26722935  0.57445370  1
  Te  Te119  1  0.75369531  0.23884392  0.91347686  1
  Te  Te120  1  0.75887503  0.58120477  0.24811682  1
  Te  Te121  1  0.77764509  0.56895664  0.57003546  1
  Te  Te122  1  0.78417624  0.54652919  0.89738974  1
  Te  Te123  1  0.78358631  0.91430534  0.21539667  1
  Te  Te124  1  0.77349531  0.93406423  0.55267197  1
  Te  Te125  1  0.76336338  0.89939061  0.94889504  1
  Te  Te126  1  0.25113655  0.25021905  0.09789657  1
  Te  Te127  1  0.22824686  0.26942922  0.35241408  1
  Te  Te128  1  0.25730489  0.24571876  0.73450781  1
  Te  Te129  1  0.25341333  0.59275680  0.09922588  1
  Te  Te130  1  0.23105230  0.58142602  0.41122487  1
  Te  Te131  1  0.24545895  0.57656579  0.74347970  1
  Te  Te132  1  0.22331828  0.93005654  0.09045221  1
  Te  Te133  1  0.24249745  0.91586640  0.42603376  1
  Te  Te134  1  0.25656755  0.92447246  0.74865778  1
  Te  Te135  1  0.61450845  0.25090948  0.10541240  1
  Te  Te136  1  0.58265744  0.25104723  0.41848514  1
  Te  Te137  1  0.59428878  0.24145236  0.77166427  1
  Te  Te138  1  0.58845200  0.59638460  0.08729737  1
  Te  Te139  1  0.59206658  0.61816192  0.38861445  1
  Te  Te140  1  0.59850164  0.58479331  0.74811524  1
  Te  Te141  1  0.58497389  0.91119212  0.07946624  1
  Te  Te142  1  0.59286803  0.92087638  0.41634230  1
  Te  Te143  1  0.58831871  0.92160420  0.74956940  1
  Te  Te144  1  0.88546770  0.23671005  0.05928117  1
  Te  Te145  1  0.94385725  0.23966118  0.44985254  1
  Te  Te146  1  0.93703881  0.24652547  0.74301223  1
  Te  Te147  1  0.90697853  0.58911073  0.09412151  1
  Te  Te148  1  0.92123301  0.60842102  0.40938355  1
  Te  Te149  1  0.88470883  0.60350362  0.79119662  1
  Te  Te150  1  0.92003808  0.88882823  0.11588556  1
  Te  Te151  1  0.91019414  0.92035064  0.38870582  1
  Te  Te152  1  0.89915680  0.91282242  0.75835327  1
  Te  Te153  1  0.19867711  0.07177345  0.24950886  1
  Te  Te154  1  0.22858744  0.08851275  0.55217840  1
  Te  Te155  1  0.24549631  0.09348975  0.92386104  1
  Te  Te156  1  0.28218819  0.40178244  0.28994514  1
  Te  Te157  1  0.22896066  0.39037226  0.55383740  1
  Te  Te158  1  0.24628490  0.41118377  0.89491881  1
  Te  Te159  1  0.23841326  0.77208319  0.26712487  1
  Te  Te160  1  0.24215568  0.72980583  0.56249463  1
  Te  Te161  1  0.22546343  0.74598296  0.93771841  1
  Te  Te162  1  0.60890112  0.07947482  0.24132690  1
  Te  Te163  1  0.57530962  0.08103669  0.57991489  1
  Te  Te164  1  0.61568944  0.07097769  0.93819694  1
  Te  Te165  1  0.57371176  0.42492425  0.26962991  1
  Te  Te166  1  0.59945256  0.42498073  0.56713027  1
  Te  Te167  1  0.58986075  0.43603112  0.90704998  1
  Te  Te168  1  0.61913015  0.73013537  0.28401847  1
  Te  Te169  1  0.61082484  0.75165754  0.55932610  1
  Te  Te170  1  0.58474191  0.73794747  0.92673687  1
  Te  Te171  1  0.95163343  0.04476125  0.29836373  1
  Te  Te172  1  0.93179187  0.07371995  0.56476223  1
  Te  Te173  1  0.91314605  0.05569354  0.93652021  1
  Te  Te174  1  0.91695245  0.40328881  0.22267473  1
  Te  Te175  1  0.89765627  0.44682143  0.59022466  1
  Te  Te176  1  0.92162512  0.42528913  0.92366826  1
  Te  Te177  1  0.86234127  0.79407346  0.30142081  1
  Te  Te178  1  0.91568430  0.74643105  0.58904340  1
  Te  Te179  1  0.92797436  0.70010798  0.90973815  1
