# generated using pymatgen
data_In2Te3
_symmetry_space_group_name_H-M   'P 1'
_cell_length_a   18.75559518
_cell_length_b   18.76964381
_cell_length_c   18.77218882
_cell_angle_alpha   90.02057769
_cell_angle_beta   89.99034725
_cell_angle_gamma   89.95278868
_symmetry_Int_Tables_number   1
_chemical_formula_structural   In2Te3
_chemical_formula_sum   'In72 Te108'
_cell_volume   6608.48051588
_cell_formula_units_Z   36
loop_
 _symmetry_equiv_pos_site_id
 _symmetry_equiv_pos_as_xyz
  1  'x, y, z'
loop_
 _atom_site_type_symbol
 _atom_site_label
 _atom_site_symmetry_multiplicity
 _atom_site_fract_x
 _atom_site_fract_y
 _atom_site_fract_z
 _atom_site_occupancy
  In  In0  1  0.85117261  0.51858945  0.35942708  1
  In  In1  1  0.01887089  0.00411955  -0.01455396  1
  In  In2  1  0.64813998  0.49969495  0.81231056  1
  In  In3  1  0.64635826  0.31863823  0.33973748  1
  In  In4  1  0.17851701  0.48199743  0.64270623  1
  In  In5  1  0.49195496  0.85486815  -0.00792361  1
  In  In6  1  0.82012640  0.83418048  0.67246034  1
  In  In7  1  0.35328450  0.00685004  0.32355029  1
  In  In8  1  0.35700883  0.83598613  0.52455610  1
  In  In9  1  0.64002348  0.67849078  -0.01688826  1
  In  In10  1  0.49387385  0.51418438  0.00103103  1
  In  In11  1  0.01966445  0.34803412  0.33589943  1
  In  In12  1  0.65184409  0.17530220  0.16145609  1
  In  In13  1  0.47492716  0.33645501  0.51185580  1
  In  In14  1  0.18324331  0.48893277  -0.00932296  1
  In  In15  1  0.83684760  0.13422812  0.35319795  1
  In  In16  1  0.17850527  0.00212782  0.82979381  1
  In  In17  1  0.17590217  0.69086479  0.82313694  1
  In  In18  1  0.18562251  0.16583215  0.67256760  1
  In  In19  1  0.16183635  -0.01499010  0.51019222  1
  In  In20  1  0.33130281  0.49610048  0.17007464  1
  In  In21  1  0.79993212  0.50712531  0.65406221  1
  In  In22  1  0.64136365  0.00844885  -0.02357055  1
  In  In23  1  0.80603259  0.01363017  0.80862822  1
  In  In24  1  0.84650382  0.83085848  0.33986182  1
  In  In25  1  0.33583175  0.84664888  0.83387906  1
  In  In26  1  0.81943066  0.69864336  0.16320355  1
  In  In27  1  0.33243827  0.87188807  0.14078342  1
  In  In28  1  0.64640633  -0.00966185  0.35102457  1
  In  In29  1  0.64471191  0.32263272  0.67924300  1
  In  In30  1  -0.00358966  0.30672053  0.65960607  1
  In  In31  1  0.04530243  0.18142244  0.12523786  1
  In  In32  1  0.01523721  0.83812114  0.17081056  1
  In  In33  1  0.85759243  0.49521870  -0.01119430  1
  In  In34  1  0.64609388  0.67038335  0.34747901  1
  In  In35  1  0.02763196  0.50573693  0.48072064  1
  In  In36  1  0.49843088  0.65500576  0.82201884  1
  In  In37  1  0.50918884  0.32445153  0.18265304  1
  In  In38  1  0.81507317  0.68521646  0.81631996  1
  In  In39  1  0.32521676  0.18373510  0.47458751  1
  In  In40  1  0.48324613  0.69584031  0.18019220  1
  In  In41  1  0.83519990  -0.00193579  0.18435651  1
  In  In42  1  0.18501501  0.32224771  0.82626685  1
  In  In43  1  0.82182323  0.82719894  -0.01742319  1
  In  In44  1  0.66992265  0.47796551  0.17974109  1
  In  In45  1  0.33881352  0.49756179  0.49987858  1
  In  In46  1  0.00626532  0.68387434  0.02023206  1
  In  In47  1  -0.00004981  0.67473998  0.67092970  1
  In  In48  1  0.02245684  0.34151916  -0.01876362  1
  In  In49  1  0.15441587  0.66963825  0.18102344  1
  In  In50  1  0.80694419  0.16982065  -0.02679586  1
  In  In51  1  0.33453465  0.66888307  0.65607850  1
  In  In52  1  0.62396878  0.29220155  -0.01640222  1
  In  In53  1  0.82502668  0.33803457  0.14934061  1
  In  In54  1  0.64388067  0.83021113  0.52504812  1
  In  In55  1  0.36808111  0.00238931  0.68797262  1
  In  In56  1  0.00258177  -0.00230643  0.33517554  1
  In  In57  1  0.18571925  0.15543522  -0.01215309  1
  In  In58  1  0.19080942  0.32586945  0.17100071  1
  In  In59  1  0.01651730  0.16208435  0.51574782  1
  In  In60  1  0.48827443  0.16692091  0.33144006  1
  In  In61  1  0.00782467  -0.01768438  0.65589658  1
  In  In62  1  0.34260070  0.13919900  0.15389513  1
  In  In63  1  0.02904638  0.52721522  0.20600960  1
  In  In64  1  0.80935285  0.15005813  0.67678641  1
  In  In65  1  0.34238306  0.68328949  0.35956063  1
  In  In66  1  0.36405471  0.48106521  0.81106529  1
  In  In67  1  0.81124631  -0.02174743  0.48293189  1
  In  In68  1  0.16510101  0.81115098  0.35479929  1
  In  In69  1  0.66210357  0.52028875  0.49299537  1
  In  In70  1  -0.01356787  0.48178502  0.85433934  1
  In  In71  1  0.83549489  0.33558598  0.52370708  1
  Te  Te72  1  0.12124354  0.04911259  0.09348182  1
  Te  Te73  1  0.10043383  0.08653621  0.41332001  1
  Te  Te74  1  0.07759641  0.08557941  0.74445689  1
  Te  Te75  1  0.08019120  0.42347936  0.09653302  1
  Te  Te76  1  0.12775064  0.40408001  0.42565985  1
  Te  Te77  1  0.08156109  0.41349964  0.75288921  1
  Te  Te78  1  0.11505936  0.77545057  0.07334474  1
  Te  Te79  1  0.05984112  0.71729472  0.39892586  1
  Te  Te80  1  0.07900431  0.77326006  0.74917852  1
  Te  Te81  1  0.44796010  0.07350195  0.07425026  1
  Te  Te82  1  0.42867810  0.07401270  0.43807419  1
  Te  Te83  1  0.44028352  0.09767080  0.77874704  1
  Te  Te84  1  0.42244601  0.40791543  0.08438036  1
  Te  Te85  1  0.40421224  0.40514623  0.40179941  1
  Te  Te86  1  0.46769617  0.40653295  0.73935600  1
  Te  Te87  1  0.40483611  0.75147455  0.06435023  1
  Te  Te88  1  0.44851420  0.76211247  0.43039277  1
  Te  Te89  1  0.42255396  0.76075959  0.74090137  1
  Te  Te90  1  0.74886558  0.07658181  0.08335508  1
  Te  Te91  1  0.71789190  0.09333126  0.43815323  1
  Te  Te92  1  0.68720096  0.09401069  0.75308540  1
  Te  Te93  1  0.72226783  0.40284938  0.05661659  1
  Te  Te94  1  0.75070714  0.40735140  0.41363916  1
  Te  Te95  1  0.75334899  0.40332384  0.75310084  1
  Te  Te96  1  0.71678755  0.77321235  0.07992053  1
  Te  Te97  1  0.74457355  0.75879102  0.42714109  1
  Te  Te98  1  0.70755985  0.75206914  0.73530232  1
  Te  Te99  1  0.09735823  0.23933838  0.25652490  1
  Te  Te100  1  0.11657783  0.26388544  0.57356141  1
  Te  Te101  1  0.08497920  0.22989662  0.89906897  1
  Te  Te102  1  0.11539424  0.59669964  0.31121527  1
  Te  Te103  1  0.10109457  0.59723722  0.58162560  1
  Te  Te104  1  0.08051510  0.58284191  0.92396274  1
  Te  Te105  1  0.10908435  0.91856027  0.25949916  1
  Te  Te106  1  0.08402909  0.88003085  0.57935725  1
  Te  Te107  1  0.09480448  0.90581609  0.90724836  1
  Te  Te108  1  0.39393996  0.25550183  0.25481331  1
  Te  Te109  1  0.40176841  0.23413027  0.59317875  1
  Te  Te110  1  0.44573934  0.21783492  0.88186286  1
  Te  Te111  1  0.41491310  0.58699875  0.26072449  1
  Te  Te112  1  0.42984942  0.58308078  0.58338504  1
  Te  Te113  1  0.39524276  0.59155040  0.91537210  1
  Te  Te114  1  0.43210642  0.91176368  0.24221228  1
  Te  Te115  1  0.46272706  0.91726998  0.60441961  1
  Te  Te116  1  0.39860767  0.95116909  0.92291891  1
  Te  Te117  1  0.75757481  0.24384368  0.25633634  1
  Te  Te118  1  0.73147200  0.24191193  0.58082477  1
  Te  Te119  1  0.71381387  0.23542442  0.88017229  1
  Te  Te120  1  0.75269365  0.58573832  0.25283729  1
  Te  Te121  1  0.75924150  0.61169710  0.56001731  1
  Te  Te122  1  0.74332272  0.58427443  0.91678594  1
  Te  Te123  1  0.74045599  0.90815685  0.25875124  1
  Te  Te124  1  0.72741030  0.93851254  0.60434186  1
  Te  Te125  1  0.73026563  0.91125492  0.89467467  1
  Te  Te126  1  0.27230583  0.25293433  0.06541209  1
  Te  Te127  1  0.21865373  0.27406552  0.42743852  1
  Te  Te128  1  0.28503363  0.25094815  0.74366730  1
  Te  Te129  1  0.24754389  0.59048268  0.08360722  1
  Te  Te130  1  0.24713394  0.59623701  0.43170571  1
  Te  Te131  1  0.24407216  0.57077482  0.75696458  1
  Te  Te132  1  0.23873912  0.94948807  0.05927180  1
  Te  Te133  1  0.26583032  0.91132137  0.41889886  1
  Te  Te134  1  0.24894755  0.91362648  0.72625158  1
  Te  Te135  1  0.52486817  0.20753195  0.07543322  1
  Te  Te136  1  0.57186941  0.23594855  0.43998421  1
  Te  Te137  1  0.52884111  0.26282587  0.75350381  1
  Te  Te138  1  0.58812138  0.58711350  0.09904931  1
  Te  Te139  1  0.54921274  0.59361877  0.43018506  1
  Te  Te140  1  0.58061827  0.58950345  0.71234858  1
  Te  Te141  1  0.57890712  0.93069834  0.08660969  1
  Te  Te142  1  0.55389759  0.90442350  0.42967657  1
  Te  Te143  1  0.56448763  0.94422859  0.71976486  1
  Te  Te144  1  0.91640703  0.24163550  0.06895602  1
  Te  Te145  1  0.92433975  0.25649896  0.42546365  1
  Te  Te146  1  0.90939733  0.23233263  0.75101775  1
  Te  Te147  1  0.91275143  0.58726062  0.09803014  1
  Te  Te148  1  0.92944429  0.61466378  0.44142635  1
  Te  Te149  1  0.90680349  0.57436838  0.75774384  1
  Te  Te150  1  0.91157270  0.91351148  0.07944658  1
  Te  Te151  1  0.93876676  0.90533656  0.43706309  1
  Te  Te152  1  0.91557795  0.91687919  0.75929401  1
  Te  Te153  1  0.25052022  0.09035300  0.25791520  1
  Te  Te154  1  0.26676264  0.07051499  0.58185835  1
  Te  Te155  1  0.28451315  0.07269398  0.91122232  1
  Te  Te156  1  0.23689243  0.43068675  0.26374079  1
  Te  Te157  1  0.29234225  0.39785433  0.60387441  1
  Te  Te158  1  0.28162492  0.39966481  0.91690114  1
  Te  Te159  1  0.26574387  0.75871693  0.24389092  1
  Te  Te160  1  0.24437132  0.75332820  0.57438465  1
  Te  Te161  1  0.25931528  0.75589167  0.92452867  1
  Te  Te162  1  0.57313479  0.07358038  0.24531186  1
  Te  Te163  1  0.59876752  0.05644639  0.62803044  1
  Te  Te164  1  0.54843935  0.10040265  0.90407891  1
  Te  Te165  1  0.56336455  0.43205402  0.27926596  1
  Te  Te166  1  0.58347204  0.42294560  0.58121041  1
  Te  Te167  1  0.56374879  0.41557728  0.90733364  1
  Te  Te168  1  0.58741053  0.76826747  0.25357362  1
  Te  Te169  1  0.59991360  0.72383512  0.61964318  1
  Te  Te170  1  0.57311355  0.77437747  0.88757955  1
  Te  Te171  1  0.93920137  0.09740093  0.23576621  1
  Te  Te172  1  0.90439160  0.07508525  0.57365056  1
  Te  Te173  1  0.91086980  0.07832416  0.90715553  1
  Te  Te174  1  0.91104380  0.42013267  0.24828530  1
  Te  Te175  1  0.93310980  0.43478410  0.58755338  1
  Te  Te176  1  0.89252875  0.37227530  0.90469615  1
  Te  Te177  1  0.93605712  0.73792279  0.25505755  1
  Te  Te178  1  0.90422597  0.74924229  0.58461923  1
  Te  Te179  1  0.92665362  0.74757685  0.90578345  1
