# generated using pymatgen
data_In2Te3
_symmetry_space_group_name_H-M   'P 1'
_cell_length_a   18.86167850
_cell_length_b   18.88520444
_cell_length_c   18.88862207
_cell_angle_alpha   89.96653018
_cell_angle_beta   89.88761842
_cell_angle_gamma   89.99244665
_symmetry_Int_Tables_number   1
_chemical_formula_structural   In2Te3
_chemical_formula_sum   'In72 Te108'
_cell_volume   6728.23872672
_cell_formula_units_Z   36
loop_
 _symmetry_equiv_pos_site_id
 _symmetry_equiv_pos_as_xyz
  1  'x, y, z'
loop_
 _atom_site_type_symbol
 _atom_site_label
 _atom_site_symmetry_multiplicity
 _atom_site_fract_x
 _atom_site_fract_y
 _atom_site_fract_z
 _atom_site_occupancy
  In  In0  1  0.68856795  0.34811442  0.33158642  1
  In  In1  1  -0.01359179  0.18951905  0.18353205  1
  In  In2  1  0.16732835  0.48577015  0.35152669  1
  In  In3  1  0.34639462  0.64402599  0.00648148  1
  In  In4  1  0.46454779  0.30544968  0.84405531  1
  In  In5  1  0.17270895  0.83715364  0.66143144  1
  In  In6  1  0.18586607  0.15637022  0.63330031  1
  In  In7  1  0.33630309  0.48209890  0.16134896  1
  In  In8  1  0.16598015  0.17642214  0.33589827  1
  In  In9  1  0.66297907  0.01579599  0.66262289  1
  In  In10  1  0.65027766  0.00351151  -0.02962423  1
  In  In11  1  0.33081332  0.66229192  0.64980333  1
  In  In12  1  0.67189029  0.34664186  -0.00244375  1
  In  In13  1  -0.00912439  0.65341920  -0.01613246  1
  In  In14  1  0.03352164  0.49770490  0.80722300  1
  In  In15  1  0.48293364  0.01015773  0.50109311  1
  In  In16  1  0.00666886  0.82022636  0.49499484  1
  In  In17  1  0.67132303  0.64925377  0.33151924  1
  In  In18  1  0.83671532  0.68730932  0.83504465  1
  In  In19  1  0.65563222  0.19308420  0.16913694  1
  In  In20  1  0.65458635  0.78241979  0.17468448  1
  In  In21  1  0.32160498  0.03329421  -0.00024100  1
  In  In22  1  0.67022612  0.65200926  0.65337981  1
  In  In23  1  0.84746409  0.32879290  0.84094748  1
  In  In24  1  0.33114760  0.32739453  0.33972761  1
  In  In25  1  0.17704590  0.83210089  0.36854106  1
  In  In26  1  0.50961807  0.83643825  0.66429879  1
  In  In27  1  0.48158963  0.49018319  0.64911485  1
  In  In28  1  0.84015387  0.18840343  0.02573037  1
  In  In29  1  0.16011446  0.63312245  0.20331500  1
  In  In30  1  0.48174619  0.51373428  -0.00064849  1
  In  In31  1  -0.03043925  0.02956510  0.64233440  1
  In  In32  1  0.50785342  0.65493764  0.19606349  1
  In  In33  1  0.02735949  0.66931410  0.64428354  1
  In  In34  1  0.84701873  0.51075579  0.64060595  1
  In  In35  1  -0.00359750  0.49030516  0.48081710  1
  In  In36  1  0.50743593  0.83377630  -0.01327498  1
  In  In37  1  0.33823200  0.84700177  0.17689562  1
  In  In38  1  0.65354498  0.67030983  0.02480391  1
  In  In39  1  0.66496616  0.49910806  0.81819813  1
  In  In40  1  0.67986617  0.01794290  0.33535121  1
  In  In41  1  0.67553664  0.30973991  0.64725892  1
  In  In42  1  0.01571989  0.33349215  0.66168679  1
  In  In43  1  0.50503625  0.48701611  0.33084883  1
  In  In44  1  0.86641291  0.33843406  0.20253046  1
  In  In45  1  0.02492250  -0.00320649  0.36025359  1
  In  In46  1  0.29784739  0.34780576  0.62870170  1
  In  In47  1  0.48575844  0.17611124  0.66851249  1
  In  In48  1  0.31377295  0.85302584  0.81668400  1
  In  In49  1  0.83799408  0.64636070  0.19230744  1
  In  In50  1  0.17914605  0.18196055  -0.01818418  1
  In  In51  1  0.16955561  0.01625685  0.18333118  1
  In  In52  1  0.67605058  0.83497192  0.51118801  1
  In  In53  1  0.02030334  0.00209857  -0.01615132  1
  In  In54  1  0.29111601  0.01344090  0.34493827  1
  In  In55  1  0.16700881  0.37138146  0.01435426  1
  In  In56  1  0.48977842  0.02625870  0.81480824  1
  In  In57  1  0.48154823  0.65996762  0.87047200  1
  In  In58  1  0.83455590  0.49377601  0.01224520  1
  In  In59  1  0.84229944  0.00604634  0.16746330  1
  In  In60  1  0.85727606  0.82792991  0.66208800  1
  In  In61  1  0.50463041  0.33402095  0.49280047  1
  In  In62  1  0.84422651  0.83970794  0.32669788  1
  In  In63  1  0.85049945  0.21764341  0.43467969  1
  In  In64  1  0.50114415  0.18085048  0.33788430  1
  In  In65  1  0.33474847  0.67572492  0.38345586  1
  In  In66  1  -0.01401602  0.81928544  0.16330089  1
  In  In67  1  0.46910434  -0.01226029  0.15473537  1
  In  In68  1  0.01353878  0.17466683  0.82950024  1
  In  In69  1  0.14238741  0.83067640  -0.01321155  1
  In  In70  1  0.81197811  0.00309706  0.82307627  1
  In  In71  1  0.18348297  0.66322833  0.81461753  1
  Te  Te72  1  0.07681837  0.09557715  0.09141087  1
  Te  Te73  1  0.09023982  0.09988638  0.44217199  1
  Te  Te74  1  0.08186470  0.08735221  0.72774448  1
  Te  Te75  1  0.05084862  0.40199511  0.09871739  1
  Te  Te76  1  0.08953666  0.38010912  0.43042938  1
  Te  Te77  1  0.12009586  0.38960120  0.75266205  1
  Te  Te78  1  0.09109028  0.73216792  0.09354635  1
  Te  Te79  1  0.08818116  0.72585031  0.41737897  1
  Te  Te80  1  0.07912072  0.75601488  0.75633828  1
  Te  Te81  1  0.42143012  0.10426723  0.08047381  1
  Te  Te82  1  0.39801123  0.10273894  0.41647019  1
  Te  Te83  1  0.38670392  0.11253859  0.75707690  1
  Te  Te84  1  0.41917877  0.40153696  0.07120464  1
  Te  Te85  1  0.40452191  0.42801812  0.42827414  1
  Te  Te86  1  0.40338135  0.39374179  0.73381334  1
  Te  Te87  1  0.42837762  0.74712098  0.09333991  1
  Te  Te88  1  0.42843012  0.78490760  0.39229215  1
  Te  Te89  1  0.41510793  0.75161145  0.76176945  1
  Te  Te90  1  0.74162777  0.08432502  0.08328081  1
  Te  Te91  1  0.77587808  0.08129895  0.42510083  1
  Te  Te92  1  0.74161022  0.10593594  0.74795343  1
  Te  Te93  1  0.76001925  0.40303689  0.10741480  1
  Te  Te94  1  0.80020792  0.40614636  0.41160927  1
  Te  Te95  1  0.76137700  0.41380666  0.73908967  1
  Te  Te96  1  0.77284713  0.74064797  0.08658764  1
  Te  Te97  1  0.75423604  0.74985517  0.41111347  1
  Te  Te98  1  0.74352779  0.75635700  0.73670565  1
  Te  Te99  1  0.09383928  0.26858832  0.24373395  1
  Te  Te100  1  0.07644673  0.23546986  0.56333988  1
  Te  Te101  1  0.08326893  0.27694115  0.91310921  1
  Te  Te102  1  0.05831737  0.54850644  0.26977688  1
  Te  Te103  1  0.09003506  0.54456553  0.59069012  1
  Te  Te104  1  0.10478530  0.57809844  0.91565786  1
  Te  Te105  1  0.08329874  0.90410377  0.24807088  1
  Te  Te106  1  0.06626191  0.92092245  0.58916525  1
  Te  Te107  1  0.10817540  0.93323965  0.88583241  1
  Te  Te108  1  0.43764929  0.27851801  0.24622402  1
  Te  Te109  1  0.40150566  0.25099806  0.56720016  1
  Te  Te110  1  0.34442424  0.26844989  0.92536768  1
  Te  Te111  1  0.38986335  0.58531010  0.26324236  1
  Te  Te112  1  0.42642507  0.59269653  0.56006155  1
  Te  Te113  1  0.37514051  0.54940491  0.88830932  1
  Te  Te114  1  0.40688995  0.92924189  0.28448234  1
  Te  Te115  1  0.41034497  0.92194430  0.59610337  1
  Te  Te116  1  0.40734342  0.92411216  0.92029328  1
  Te  Te117  1  0.76869529  0.23354694  0.25970615  1
  Te  Te118  1  0.77122684  0.23279988  0.56688593  1
  Te  Te119  1  0.74753907  0.24230556  0.91569466  1
  Te  Te120  1  0.73469988  0.55359465  0.24024325  1
  Te  Te121  1  0.74754499  0.57639785  0.55438598  1
  Te  Te122  1  0.74708690  0.58166418  0.91664572  1
  Te  Te123  1  0.74350388  0.90819344  0.23659185  1
  Te  Te124  1  0.76584478  0.92784703  0.58973130  1
  Te  Te125  1  0.74834907  0.91001501  0.91764064  1
  Te  Te126  1  0.25722885  0.26624020  0.07545442  1
  Te  Te127  1  0.24932420  0.24964624  0.43442993  1
  Te  Te128  1  0.23189933  0.26022159  0.73023263  1
  Te  Te129  1  0.23750645  0.57103695  0.08621638  1
  Te  Te130  1  0.24309234  0.57624280  0.44550627  1
  Te  Te131  1  0.24852624  0.56463901  0.72626186  1
  Te  Te132  1  0.24010960  0.91790989  0.08186052  1
  Te  Te133  1  0.23543868  0.93447083  0.46085106  1
  Te  Te134  1  0.26219485  0.94687093  0.71298270  1
  Te  Te135  1  0.57580787  0.25585540  0.06393561  1
  Te  Te136  1  0.60801067  0.25009395  0.41946633  1
  Te  Te137  1  0.58293524  0.25797923  0.75394359  1
  Te  Te138  1  0.58521176  0.56073348  0.10274491  1
  Te  Te139  1  0.58156447  0.57433240  0.42044153  1
  Te  Te140  1  0.56118265  0.58809521  0.75172757  1
  Te  Te141  1  0.58652564  0.90613045  0.09416031  1
  Te  Te142  1  0.59407567  0.93199026  0.42724498  1
  Te  Te143  1  0.58805024  0.92331486  0.75987775  1
  Te  Te144  1  0.94398776  0.29518880  0.06867346  1
  Te  Te145  1  0.99482316  0.25499762  0.41645212  1
  Te  Te146  1  0.91326701  0.24141220  0.73755554  1
  Te  Te147  1  0.93388488  0.57019940  0.09810452  1
  Te  Te148  1  0.87611621  0.54272493  0.40424652  1
  Te  Te149  1  0.92206655  0.59284587  0.74867102  1
  Te  Te150  1  0.92015949  0.91900310  0.06990371  1
  Te  Te151  1  0.91246531  0.92301984  0.43203074  1
  Te  Te152  1  0.92461321  0.92956494  0.75224421  1
  Te  Te153  1  0.27118663  0.11409592  0.23250503  1
  Te  Te154  1  0.26163615  0.04253998  0.57316734  1
  Te  Te155  1  0.22347789  0.06830105  0.89552140  1
  Te  Te156  1  0.23741884  0.40197109  0.24413888  1
  Te  Te157  1  0.22732730  0.46672238  0.57144522  1
  Te  Te158  1  0.28184542  0.40627184  0.92439834  1
  Te  Te159  1  0.24877831  0.74980315  0.25414353  1
  Te  Te160  1  0.24378497  0.74864261  0.56773695  1
  Te  Te161  1  0.26152612  0.75125582  0.92711553  1
  Te  Te162  1  0.57432232  0.07803126  0.24211568  1
  Te  Te163  1  0.57964252  0.10432235  0.57156932  1
  Te  Te164  1  0.55925563  0.10435845  0.91911573  1
  Te  Te165  1  0.57200605  0.38609797  0.24570880  1
  Te  Te166  1  0.59925003  0.41953387  0.57773578  1
  Te  Te167  1  0.56675799  0.41740343  0.90041994  1
  Te  Te168  1  0.55169454  0.76678877  0.28999627  1
  Te  Te169  1  0.57373791  0.73800155  0.56872581  1
  Te  Te170  1  0.60232395  0.74953978  0.90484245  1
  Te  Te171  1  0.92822949  0.07734916  0.26805685  1
  Te  Te172  1  0.89318804  0.11780456  0.54786116  1
  Te  Te173  1  0.91564930  0.09838954  0.92440569  1
  Te  Te174  1  0.92553566  0.43522955  0.30098968  1
  Te  Te175  1  0.90922236  0.39382446  0.57004724  1
  Te  Te176  1  0.92780632  0.43790673  0.90566184  1
  Te  Te177  1  0.93551406  0.72951744  0.27547058  1
  Te  Te178  1  0.90957321  0.72254845  0.56531188  1
  Te  Te179  1  0.93116045  0.76699287  0.91421616  1
