# generated using pymatgen
data_In2Te3
_symmetry_space_group_name_H-M   'P 1'
_cell_length_a   18.76527136
_cell_length_b   18.78311515
_cell_length_c   18.77343882
_cell_angle_alpha   89.91325131
_cell_angle_beta   90.04615823
_cell_angle_gamma   90.08780429
_symmetry_Int_Tables_number   1
_chemical_formula_structural   In2Te3
_chemical_formula_sum   'In72 Te108'
_cell_volume   6617.06123470
_cell_formula_units_Z   36
loop_
 _symmetry_equiv_pos_site_id
 _symmetry_equiv_pos_as_xyz
  1  'x, y, z'
loop_
 _atom_site_type_symbol
 _atom_site_label
 _atom_site_symmetry_multiplicity
 _atom_site_fract_x
 _atom_site_fract_y
 _atom_site_fract_z
 _atom_site_occupancy
  In  In0  1  0.17831880  0.66344593  0.84992307  1
  In  In1  1  0.65812721  0.31812567  -0.01411430  1
  In  In2  1  0.47777663  0.48377651  0.36747955  1
  In  In3  1  0.34840803  0.64995654  0.03326201  1
  In  In4  1  0.17387446  0.49646511  0.34980865  1
  In  In5  1  0.82736543  0.17258810  0.00504088  1
  In  In6  1  0.52092853  0.20607490  0.63067210  1
  In  In7  1  0.68066364  0.51551329  0.16091349  1
  In  In8  1  0.67403692  0.17783486  0.18802662  1
  In  In9  1  0.16885408  -0.00947697  0.16263458  1
  In  In10  1  0.65260067  0.31421015  0.33901726  1
  In  In11  1  0.17041078  0.16274311  0.64218309  1
  In  In12  1  0.83820841  0.66611729  0.48307525  1
  In  In13  1  -0.02239494  0.85697886  0.81440518  1
  In  In14  1  0.65509172  0.47047394  0.49326772  1
  In  In15  1  0.81279190  0.02719193  0.46925959  1
  In  In16  1  0.33876996  0.17380334  0.18006082  1
  In  In17  1  0.50412666  0.85632016  0.02979692  1
  In  In18  1  0.30798187  0.81591024  0.20761774  1
  In  In19  1  0.35157691  0.01017036  -0.01225725  1
  In  In20  1  0.66032265  0.67464381  0.65005940  1
  In  In21  1  0.15669953  0.30825467  0.82168944  1
  In  In22  1  0.01899227  0.68238898  0.02695900  1
  In  In23  1  0.83685211  0.67221900  0.18339971  1
  In  In24  1  0.50349569  0.48263295  0.62968932  1
  In  In25  1  -0.01514987  0.00045774  0.67322060  1
  In  In26  1  0.01937291  0.48772778  0.17556157  1
  In  In27  1  0.17010877  0.48520032  0.63030191  1
  In  In28  1  0.34066164  0.17614903  0.81441314  1
  In  In29  1  0.51689676  0.81802493  0.31900597  1
  In  In30  1  0.14816733  0.81878577  0.02019189  1
  In  In31  1  0.84161455  0.86273630  0.65379639  1
  In  In32  1  0.82681608  0.49307504  0.35284041  1
  In  In33  1  0.51700385  0.03696152  0.82775767  1
  In  In34  1  0.29778132  0.85902858  0.82068210  1
  In  In35  1  0.15400801  0.33111564  0.17195449  1
  In  In36  1  0.53700739  -0.00030818  0.19675958  1
  In  In37  1  0.80217586  0.87532185  0.30589257  1
  In  In38  1  -0.01650885  0.03139818  0.33971689  1
  In  In39  1  0.50325148  0.30499507  0.81715719  1
  In  In40  1  0.68555498  0.65517657  0.01344326  1
  In  In41  1  0.51936722  0.00775868  0.49887509  1
  In  In42  1  0.36292297  0.65178076  0.65205677  1
  In  In43  1  0.00474410  0.17004126  0.50069095  1
  In  In44  1  0.85073209  0.49091819  -0.02835176  1
  In  In45  1  0.15081444  0.16756134  0.00360227  1
  In  In46  1  0.34837932  0.50081738  0.19370783  1
  In  In47  1  0.52137839  0.65664889  0.81178414  1
  In  In48  1  0.17153212  0.49060862  0.01002021  1
  In  In49  1  0.14931420  0.00528485  0.80119386  1
  In  In50  1  -0.00117635  0.83073827  0.17455499  1
  In  In51  1  0.33992806  0.83241386  0.47187068  1
  In  In52  1  -0.01749382  0.00037819  0.00728577  1
  In  In53  1  0.65891164  0.83238368  0.50747753  1
  In  In54  1  0.47453228  0.34267650  0.18210250  1
  In  In55  1  0.51867732  0.15508454  -0.02711527  1
  In  In56  1  0.83289987  0.66711556  0.83706209  1
  In  In57  1  -0.06001477  0.31762468  0.66602559  1
  In  In58  1  0.34258623  0.48889783  0.82445527  1
  In  In59  1  0.52395823  0.47850413  0.01326607  1
  In  In60  1  0.01852207  0.82632833  0.49600205  1
  In  In61  1  -0.01047763  0.31565362  0.33919642  1
  In  In62  1  0.00432826  0.64297051  0.69013550  1
  In  In63  1  0.51592468  0.84200523  0.67381825  1
  In  In64  1  0.66034896  0.84311195  0.84945579  1
  In  In65  1  0.15869675  0.86006050  0.65405997  1
  In  In66  1  0.17647247  0.65962385  0.49818342  1
  In  In67  1  0.80564013  0.30253026  0.17577127  1
  In  In68  1  0.81404769  0.83854449  0.01385210  1
  In  In69  1  0.33467756  0.01321091  0.35676984  1
  In  In70  1  -0.02513429  0.47766563  0.83280247  1
  In  In71  1  0.19111240  0.32082209  0.48210379  1
  Te  Te72  1  0.06645065  0.08712359  0.10216790  1
  Te  Te73  1  0.09598026  0.10394620  0.40445750  1
  Te  Te74  1  0.06288177  0.11369609  0.74402922  1
  Te  Te75  1  0.06376418  0.39580122  0.06226278  1
  Te  Te76  1  0.07554925  0.40606828  0.42718364  1
  Te  Te77  1  0.08862229  0.42264712  0.74501222  1
  Te  Te78  1  0.11016457  0.73102433  0.13952952  1
  Te  Te79  1  0.10952758  0.75416872  0.39937873  1
  Te  Te80  1  0.08697918  0.75923265  0.75500842  1
  Te  Te81  1  0.43338432  0.08568346  0.09066025  1
  Te  Te82  1  0.41528113  0.10371357  0.44586430  1
  Te  Te83  1  0.43297226  0.10332013  0.72057266  1
  Te  Te84  1  0.39815928  0.41844246  0.07214138  1
  Te  Te85  1  0.41713444  0.37080743  0.44331956  1
  Te  Te86  1  0.41798594  0.39983047  0.72929144  1
  Te  Te87  1  0.41884037  0.75964348  0.11361852  1
  Te  Te88  1  0.41430778  0.73588080  0.38730018  1
  Te  Te89  1  0.41286444  0.75445000  0.75822162  1
  Te  Te90  1  0.76077946  0.08168472  0.11004582  1
  Te  Te91  1  0.70829133  0.11392706  0.40453875  1
  Te  Te92  1  0.76719352  0.13454204  0.69755083  1
  Te  Te93  1  0.75100444  0.41353754  0.07249158  1
  Te  Te94  1  0.76063727  0.37754555  0.42754688  1
  Te  Te95  1  0.79719207  0.38002572  0.69151599  1
  Te  Te96  1  0.72423000  0.76364762  0.11835746  1
  Te  Te97  1  0.74985849  0.76478384  0.40663316  1
  Te  Te98  1  0.75006713  0.75882570  0.74490101  1
  Te  Te99  1  0.08714331  0.23473217  0.26330300  1
  Te  Te100  1  0.07831975  0.27540420  0.58898464  1
  Te  Te101  1  0.06159088  0.24033897  0.91155431  1
  Te  Te102  1  0.07084083  0.57915384  0.27783972  1
  Te  Te103  1  0.06521953  0.57619205  0.56718339  1
  Te  Te104  1  0.06928939  0.57774989  0.92044625  1
  Te  Te105  1  0.07701833  0.92482445  0.26442651  1
  Te  Te106  1  0.08015242  0.95085863  0.56210924  1
  Te  Te107  1  0.08798885  0.91725565  0.91650689  1
  Te  Te108  1  0.41067534  0.25444626  0.28511561  1
  Te  Te109  1  0.40180244  0.25262417  0.54542924  1
  Te  Te110  1  0.40993243  0.25305847  0.92715964  1
  Te  Te111  1  0.43210915  0.59213400  0.27318685  1
  Te  Te112  1  0.42404028  0.57449658  0.54224664  1
  Te  Te113  1  0.42420808  0.58314010  0.91425243  1
  Te  Te114  1  0.40841613  0.92724690  0.25005667  1
  Te  Te115  1  0.42407494  0.91296929  0.57547927  1
  Te  Te116  1  0.43497691  0.91844513  0.89912147  1
  Te  Te117  1  0.79947299  0.19709647  0.29441994  1
  Te  Te118  1  0.74486604  0.25562982  0.61537135  1
  Te  Te119  1  0.75671144  0.25315420  0.89676371  1
  Te  Te120  1  0.74071597  0.59483593  0.27534837  1
  Te  Te121  1  0.74462908  0.57986349  0.56638997  1
  Te  Te122  1  0.73577532  0.56599244  0.90067595  1
  Te  Te123  1  0.71381931  0.96273309  0.22210599  1
  Te  Te124  1  0.73795072  0.94138956  0.57821881  1
  Te  Te125  1  0.75029199  0.93649651  0.92253794  1
  Te  Te126  1  0.25150515  0.25278115  0.08094694  1
  Te  Te127  1  0.29865183  0.24167080  0.41477749  1
  Te  Te128  1  0.26017567  0.26331856  0.71903944  1
  Te  Te129  1  0.23937155  0.57924383  0.11347703  1
  Te  Te130  1  0.27514670  0.57425714  0.42763836  1
  Te  Te131  1  0.24990123  0.57955015  0.73705142  1
  Te  Te132  1  0.26859569  0.91448913  0.07425760  1
  Te  Te133  1  0.23536444  0.92143568  0.41901521  1
  Te  Te134  1  0.26772707  0.96692743  0.70735420  1
  Te  Te135  1  0.56981528  0.25362407  0.09308529  1
  Te  Te136  1  0.59540045  0.21440637  0.43260082  1
  Te  Te137  1  0.61085543  0.22728624  0.75136115  1
  Te  Te138  1  0.56756925  0.59625189  0.09683512  1
  Te  Te139  1  0.58833902  0.57333180  0.40958335  1
  Te  Te140  1  0.60088926  0.55850429  0.73058538  1
  Te  Te141  1  0.61332297  0.94327608  0.08173341  1
  Te  Te142  1  0.59652448  0.92083090  0.39917504  1
  Te  Te143  1  0.60769516  0.94000498  0.74267064  1
  Te  Te144  1  0.91733059  0.24857753  0.09666886  1
  Te  Te145  1  0.89739396  0.25478614  0.44021357  1
  Te  Te146  1  0.88517119  0.20989671  0.75508832  1
  Te  Te147  1  0.91129287  0.58035155  0.08615684  1
  Te  Te148  1  0.93325066  0.58334805  0.40510952  1
  Te  Te149  1  0.88421886  0.56107151  0.73865416  1
  Te  Te150  1  0.89816492  0.92352148  0.10928361  1
  Te  Te151  1  0.90853115  0.91224716  0.42542941  1
  Te  Te152  1  0.87167115  0.95671239  0.77110568  1
  Te  Te153  1  0.24058645  0.08718220  0.25702064  1
  Te  Te154  1  0.25407334  0.06010923  0.58209550  1
  Te  Te155  1  0.24580238  0.08183827  0.90362459  1
  Te  Te156  1  0.25624575  0.40084904  0.26315466  1
  Te  Te157  1  0.27822356  0.42260553  0.55218872  1
  Te  Te158  1  0.24513412  0.40552496  0.90758756  1
  Te  Te159  1  0.23060142  0.73201350  0.29849386  1
  Te  Te160  1  0.25443023  0.75457308  0.59755612  1
  Te  Te161  1  0.26977100  0.74808034  0.93946726  1
  Te  Te162  1  0.56602038  0.12148397  0.27757021  1
  Te  Te163  1  0.60814123  0.09154657  0.58559220  1
  Te  Te164  1  0.63170116  0.08152863  0.91269348  1
  Te  Te165  1  0.59101687  0.41955269  0.24779059  1
  Te  Te166  1  0.59158239  0.37019893  0.58481121  1
  Te  Te167  1  0.58562013  0.41535147  0.89122325  1
  Te  Te168  1  0.60609087  0.75475934  0.22264665  1
  Te  Te169  1  0.55236063  0.73910229  0.56455195  1
  Te  Te170  1  0.57850035  0.74455701  0.93359821  1
  Te  Te171  1  0.89343670  0.08897471  0.23816592  1
  Te  Te172  1  0.90017788  0.08900483  0.57873425  1
  Te  Te173  1  0.91409842  0.08938571  0.91247642  1
  Te  Te174  1  0.90074003  0.41283151  0.24162562  1
  Te  Te175  1  0.89167521  0.42914015  0.58369736  1
  Te  Te176  1  0.89989209  0.36900986  0.90249042  1
  Te  Te177  1  0.91272502  0.76124860  0.27910897  1
  Te  Te178  1  0.92399648  0.74694886  0.59781138  1
  Te  Te179  1  0.91921658  0.75732676  0.92820911  1
