# generated using pymatgen
data_In2Te3
_symmetry_space_group_name_H-M   'P 1'
_cell_length_a   18.85211250
_cell_length_b   18.84736998
_cell_length_c   18.84288154
_cell_angle_alpha   89.98328417
_cell_angle_beta   90.03221201
_cell_angle_gamma   90.06348272
_symmetry_Int_Tables_number   1
_chemical_formula_structural   In2Te3
_chemical_formula_sum   'In72 Te108'
_cell_volume   6695.11040085
_cell_formula_units_Z   36
loop_
 _symmetry_equiv_pos_site_id
 _symmetry_equiv_pos_as_xyz
  1  'x, y, z'
loop_
 _atom_site_type_symbol
 _atom_site_label
 _atom_site_symmetry_multiplicity
 _atom_site_fract_x
 _atom_site_fract_y
 _atom_site_fract_z
 _atom_site_occupancy
  In  In0  1  0.67648391  0.15388036  0.18134399  1
  In  In1  1  0.49305249  0.15479980  0.35402501  1
  In  In2  1  0.54556031  0.82716100  0.66468204  1
  In  In3  1  0.51626073  0.49598817  0.34603606  1
  In  In4  1  0.81216887  0.81639797  0.32728678  1
  In  In5  1  0.30388007  0.65911741  0.02043236  1
  In  In6  1  0.13930790  0.14087154  0.36582704  1
  In  In7  1  0.12644518  0.35989406  0.17296014  1
  In  In8  1  0.14403309  0.80166371  -0.00352673  1
  In  In9  1  -0.01016716  0.01181041  0.01301080  1
  In  In10  1  0.81690614  0.85228100  0.00167670  1
  In  In11  1  0.66923274  0.00796273  -0.02660978  1
  In  In12  1  0.68726318  0.50735621  0.15726628  1
  In  In13  1  -0.03887042  0.84615761  0.83180618  1
  In  In14  1  0.34845548  -0.01160802  -0.03170572  1
  In  In15  1  0.32529778  0.32284356  0.35280603  1
  In  In16  1  0.32685068  0.01122928  0.65900879  1
  In  In17  1  0.82049281  0.35238439  0.84031379  1
  In  In18  1  0.66334678  0.33758159  0.00514862  1
  In  In19  1  0.88029738  0.47506031  0.31425228  1
  In  In20  1  0.17366071  0.49487010  0.67177998  1
  In  In21  1  0.51266156  0.66887520  0.19565206  1
  In  In22  1  0.85347912  0.51667606  -0.00215964  1
  In  In23  1  0.17617096  0.83024190  0.32099906  1
  In  In24  1  -0.00013178  0.16383620  0.85095838  1
  In  In25  1  0.67464621  0.15636686  0.51119422  1
  In  In26  1  0.16084632  0.17721214  0.64007323  1
  In  In27  1  0.52687760  0.17870233  -0.01001797  1
  In  In28  1  0.17950837  0.34360793  0.82477439  1
  In  In29  1  0.86579264  0.17303529  0.33458238  1
  In  In30  1  0.83229827  0.68354721  0.81724546  1
  In  In31  1  0.32217819  0.17650561  0.18543912  1
  In  In32  1  0.48865742  0.49884389  -0.00433198  1
  In  In33  1  -0.01472535  0.32632792  0.64516542  1
  In  In34  1  0.10985258  0.49902813  0.33708645  1
  In  In35  1  0.81116102  0.85196723  0.66029894  1
  In  In36  1  0.33810217  0.50711168  0.51664617  1
  In  In37  1  0.83163044  0.14970348  0.65433082  1
  In  In38  1  0.52778194  0.83617918  0.41639884  1
  In  In39  1  0.16578696  0.14789687  0.00678387  1
  In  In40  1  0.84608219  0.67680668  0.15477433  1
  In  In41  1  0.83749594  0.49350723  0.67843610  1
  In  In42  1  0.87174763  0.19281686  0.01472161  1
  In  In43  1  0.34905589  -0.01256286  0.35642326  1
  In  In44  1  0.65504981  0.50354029  0.51671578  1
  In  In45  1  0.15272700  0.83690586  0.63708925  1
  In  In46  1  0.15440268  -0.01633392  0.16333814  1
  In  In47  1  0.48356302  0.85256968  -0.01151509  1
  In  In48  1  0.66411463  0.15424468  0.81402610  1
  In  In49  1  0.17810912  0.66729897  0.83177127  1
  In  In50  1  0.34923366  0.32169001  0.65691226  1
  In  In51  1  0.66224413  0.66438328  0.34719726  1
  In  In52  1  0.67678400  0.32439172  0.33270433  1
  In  In53  1  0.31755140  0.81907735  0.17337809  1
  In  In54  1  0.49981012  0.01718043  0.15515005  1
  In  In55  1  0.49570208  0.50476174  0.66701974  1
  In  In56  1  0.00368851  0.66152161  0.66550422  1
  In  In57  1  0.02982539  0.65289884  0.01880927  1
  In  In58  1  0.34005719  0.82856268  0.50917271  1
  In  In59  1  -0.00797313  0.84681345  0.49853237  1
  In  In60  1  0.69637352  0.67648689  -0.01227487  1
  In  In61  1  0.50228835  0.66463673  0.82490845  1
  In  In62  1  0.49225690  0.15800712  0.65858797  1
  In  In63  1  0.49153847  0.33657431  0.82446407  1
  In  In64  1  0.83614388  0.64197411  0.47826629  1
  In  In65  1  0.83851787  0.00170273  0.50280064  1
  In  In66  1  0.83844468  -0.00614762  0.18270718  1
  In  In67  1  0.15856987  0.00051202  0.81085193  1
  In  In68  1  0.32689829  0.49975133  0.15660393  1
  In  In69  1  0.17760786  0.66641005  0.48594579  1
  In  In70  1  0.83620824  0.32641228  0.48844202  1
  In  In71  1  0.32091494  0.35404477  -0.00644725  1
  Te  Te72  1  0.06613956  0.10068252  0.11083949  1
  Te  Te73  1  0.04932041  0.06560267  0.45619830  1
  Te  Te74  1  0.06785291  0.09479939  0.73401318  1
  Te  Te75  1  0.04242841  0.40905793  0.06085507  1
  Te  Te76  1  0.06397675  0.38990486  0.42556816  1
  Te  Te77  1  0.06844382  0.41055613  0.74404166  1
  Te  Te78  1  0.07691019  0.75355002  0.11706460  1
  Te  Te79  1  0.07762052  0.75273009  0.41345057  1
  Te  Te80  1  0.06997337  0.76552826  0.75701535  1
  Te  Te81  1  0.40211965  0.09990332  0.07331747  1
  Te  Te82  1  0.40988618  0.08261910  0.45359532  1
  Te  Te83  1  0.40476725  0.09060719  0.75671684  1
  Te  Te84  1  0.42657657  0.40147378  0.09409446  1
  Te  Te85  1  0.42378400  0.41136376  0.43150853  1
  Te  Te86  1  0.39148737  0.42692640  0.75867889  1
  Te  Te87  1  0.42360032  0.73938301  0.09032267  1
  Te  Te88  1  0.40378674  0.75960518  0.39578032  1
  Te  Te89  1  0.43385536  0.74907395  0.72419104  1
  Te  Te90  1  0.75915650  0.08293298  0.07432625  1
  Te  Te91  1  0.75841605  0.08927401  0.40311809  1
  Te  Te92  1  0.74678723  0.06129134  0.73589698  1
  Te  Te93  1  0.77312934  0.40975461  0.08116924  1
  Te  Te94  1  0.75347252  0.43443417  0.40784746  1
  Te  Te95  1  0.73320156  0.40713797  0.73659896  1
  Te  Te96  1  0.73587062  0.76818047  0.10198596  1
  Te  Te97  1  0.73681008  0.75589535  0.44793266  1
  Te  Te98  1  0.72575247  0.75616200  0.74045621  1
  Te  Te99  1  0.09523548  0.25360958  0.27684687  1
  Te  Te100  1  0.09198764  0.27845460  0.55166506  1
  Te  Te101  1  0.09642596  0.25431146  0.92215172  1
  Te  Te102  1  0.13141338  0.59316866  0.22530063  1
  Te  Te103  1  0.08732747  0.57656651  0.57357921  1
  Te  Te104  1  0.08936014  0.57652003  0.90740352  1
  Te  Te105  1  0.07230442  0.92002327  0.26609840  1
  Te  Te106  1  0.06891264  0.94576188  0.57997236  1
  Te  Te107  1  0.07758070  0.92485901  0.92076173  1
  Te  Te108  1  0.42888249  0.25571211  0.25914683  1
  Te  Te109  1  0.41088788  0.23066543  0.55708418  1
  Te  Te110  1  0.41173070  0.25146704  0.92170324  1
  Te  Te111  1  0.41527450  0.57327737  0.26036744  1
  Te  Te112  1  0.41836317  0.60619919  0.59025553  1
  Te  Te113  1  0.39800392  0.59087418  0.92046372  1
  Te  Te114  1  0.41581875  0.91813642  0.23752120  1
  Te  Te115  1  0.42570024  0.90979510  0.60370883  1
  Te  Te116  1  0.41569064  0.90379379  0.86861386  1
  Te  Te117  1  0.77387646  0.25498616  0.23984053  1
  Te  Te118  1  0.74782483  0.26264323  0.59406265  1
  Te  Te119  1  0.74251496  0.23757036  0.92041672  1
  Te  Te120  1  0.76277680  0.58768654  0.26102925  1
  Te  Te121  1  0.75198725  0.59075406  0.59554070  1
  Te  Te122  1  0.75328277  0.57292064  0.89564312  1
  Te  Te123  1  0.73421943  0.91748914  0.25186723  1
  Te  Te124  1  0.72163579  0.93589809  0.57186425  1
  Te  Te125  1  0.74193999  0.90897231  0.88418882  1
  Te  Te126  1  0.23690331  0.26024198  0.08946646  1
  Te  Te127  1  0.25430207  0.21490964  0.42770853  1
  Te  Te128  1  0.25456647  0.23893150  0.74490326  1
  Te  Te129  1  0.20771086  0.56502382  0.08944157  1
  Te  Te130  1  0.23961871  0.55291455  0.40906570  1
  Te  Te131  1  0.26269480  0.59114478  0.73921685  1
  Te  Te132  1  0.25337241  0.91392913  0.06937164  1
  Te  Te133  1  0.23894018  0.91470034  0.43197263  1
  Te  Te134  1  0.24585877  0.90165442  0.73917463  1
  Te  Te135  1  0.58595420  0.25352871  0.10775165  1
  Te  Te136  1  0.58640597  0.25170192  0.42993179  1
  Te  Te137  1  0.58357477  0.25594534  0.73479940  1
  Te  Te138  1  0.58581156  0.58930505  0.07724791  1
  Te  Te139  1  0.56187364  0.60261697  0.44412939  1
  Te  Te140  1  0.59414490  0.57703985  0.75090353  1
  Te  Te141  1  0.58877302  0.92459079  0.07364048  1
  Te  Te142  1  0.59052857  0.96089192  0.46609931  1
  Te  Te143  1  0.63033573  0.88620460  0.77382618  1
  Te  Te144  1  0.95785763  0.28618523  0.09869092  1
  Te  Te145  1  0.95190096  0.28110710  0.40006980  1
  Te  Te146  1  0.90868128  0.24633454  0.75620958  1
  Te  Te147  1  0.94039287  0.56533606  0.11320784  1
  Te  Te148  1  0.94366083  0.58680017  0.38935808  1
  Te  Te149  1  0.92961509  0.57695268  0.76794244  1
  Te  Te150  1  0.92643301  0.90133573  0.09551902  1
  Te  Te151  1  0.90689364  0.91864209  0.39559520  1
  Te  Te152  1  0.91689996  0.93380729  0.72308051  1
  Te  Te153  1  0.25003083  0.06460522  0.25835821  1
  Te  Te154  1  0.24473698  0.08537613  0.55892893  1
  Te  Te155  1  0.25121892  0.08469925  0.89829815  1
  Te  Te156  1  0.24862905  0.41216578  0.25714789  1
  Te  Te157  1  0.24608129  0.40059817  0.57617867  1
  Te  Te158  1  0.22878517  0.44374375  0.92299434  1
  Te  Te159  1  0.24821281  0.71544938  0.25538357  1
  Te  Te160  1  0.25620811  0.73297055  0.59668261  1
  Te  Te161  1  0.26501926  0.76343077  0.91440845  1
  Te  Te162  1  0.58682201  0.06772119  0.26959269  1
  Te  Te163  1  0.58595329  0.06006213  0.58833023  1
  Te  Te164  1  0.55814315  0.07051590  0.88932395  1
  Te  Te165  1  0.59564056  0.41864973  0.24171012  1
  Te  Te166  1  0.56535979  0.40694231  0.57930287  1
  Te  Te167  1  0.58716699  0.42475139  0.90622880  1
  Te  Te168  1  0.58390213  0.77411801  0.27585452  1
  Te  Te169  1  0.58850731  0.76305811  0.53587326  1
  Te  Te170  1  0.58349832  0.75201012  0.92429170  1
  Te  Te171  1  0.93910404  0.08716515  0.23916396  1
  Te  Te172  1  0.93004324  0.11658175  0.54537855  1
  Te  Te173  1  0.89458837  0.07393725  0.91344111  1
  Te  Te174  1  0.96143999  0.37615134  0.23575312  1
  Te  Te175  1  0.91638010  0.43531659  0.56276312  1
  Te  Te176  1  0.92874934  0.41446352  0.91921687  1
  Te  Te177  1  0.92084056  0.73468689  0.26766663  1
  Te  Te178  1  0.90804682  0.74515777  0.58143523  1
  Te  Te179  1  0.91286816  0.74287480  0.93699641  1
