# generated using pymatgen
data_In2Te3
_symmetry_space_group_name_H-M   'P 1'
_cell_length_a   19.04586773
_cell_length_b   19.01642647
_cell_length_c   19.08924984
_cell_angle_alpha   90.25222421
_cell_angle_beta   89.92395850
_cell_angle_gamma   90.36232031
_symmetry_Int_Tables_number   1
_chemical_formula_structural   In2Te3
_chemical_formula_sum   'In72 Te108'
_cell_volume   6913.61635359
_cell_formula_units_Z   36
loop_
 _symmetry_equiv_pos_site_id
 _symmetry_equiv_pos_as_xyz
  1  'x, y, z'
loop_
 _atom_site_type_symbol
 _atom_site_label
 _atom_site_symmetry_multiplicity
 _atom_site_fract_x
 _atom_site_fract_y
 _atom_site_fract_z
 _atom_site_occupancy
  In  In0  1  0.15950175  0.66887104  0.81427771  1
  In  In1  1  0.67161656  0.49918831  0.50360846  1
  In  In2  1  0.84713214  0.35448393  0.83829531  1
  In  In3  1  0.52194231  0.50595327  -0.00610780  1
  In  In4  1  0.34341550  0.50739603  0.51820917  1
  In  In5  1  0.68560563  0.80313432  0.18448060  1
  In  In6  1  0.02345546  0.54133779  0.48490088  1
  In  In7  1  0.01823060  0.51011843  0.16112187  1
  In  In8  1  -0.01831948  0.33065537  0.34210604  1
  In  In9  1  0.50515300  0.49239556  0.65798611  1
  In  In10  1  0.82745936  0.84323894  0.35464954  1
  In  In11  1  -0.00135982  0.16164961  0.83666261  1
  In  In12  1  0.67910642  0.33143866  0.34745568  1
  In  In13  1  0.17602941  0.50241570  0.31094324  1
  In  In14  1  0.48687330  0.01961901  0.51179681  1
  In  In15  1  0.66963602  0.68711704  0.68052098  1
  In  In16  1  0.14850038  0.82895321  -0.01887142  1
  In  In17  1  0.15230692  0.32154677  0.19032987  1
  In  In18  1  0.17471676  -0.01855059  0.48481350  1
  In  In19  1  0.49112460  0.68990080  0.16194624  1
  In  In20  1  0.64784204  0.33145956  0.66020347  1
  In  In21  1  0.00607334  0.51174616  0.82314692  1
  In  In22  1  0.67286622  0.01655321  0.36391279  1
  In  In23  1  0.50692701  0.48175314  0.33445583  1
  In  In24  1  0.30678447  -0.01926046  -0.02116263  1
  In  In25  1  0.68977889  0.16098769  0.18572361  1
  In  In26  1  0.66986468  0.63209441  0.32296300  1
  In  In27  1  0.86568527  0.67369870  0.19330141  1
  In  In28  1  0.69251090  0.36385460  0.02162647  1
  In  In29  1  0.67278798  0.82622735  0.51173373  1
  In  In30  1  0.31763258  0.33520385  -0.00728262  1
  In  In31  1  0.86095606  0.53181977  0.66217277  1
  In  In32  1  0.52758763  -0.01950896  0.17817541  1
  In  In33  1  0.14370870  0.70877440  0.18255725  1
  In  In34  1  0.32516204  0.16166753  0.48620624  1
  In  In35  1  -0.02004721  -0.00137983  0.35421563  1
  In  In36  1  0.32941897  0.30677468  0.32693378  1
  In  In37  1  0.48629491  0.84014417  0.67057380  1
  In  In38  1  0.28956014  0.79466756  0.51165740  1
  In  In39  1  0.48707343  0.16655878  0.66601855  1
  In  In40  1  0.32212307  0.66409546  0.32348738  1
  In  In41  1  0.66392127  0.83035859  0.84823170  1
  In  In42  1  0.34537509  0.33753048  0.65203838  1
  In  In43  1  0.16794737  0.14659480  -0.01231106  1
  In  In44  1  -0.02492414  0.17709342  0.17123802  1
  In  In45  1  0.82556612  0.17005811  0.00423387  1
  In  In46  1  -0.02980984  0.34614442  0.65418678  1
  In  In47  1  0.16549678  0.49636122  0.66828203  1
  In  In48  1  0.45941727  0.84136318  0.35002278  1
  In  In49  1  0.49029061  0.00909577  0.83856382  1
  In  In50  1  0.16069214  0.19498958  0.64643490  1
  In  In51  1  -0.00754472  0.80720748  0.48586048  1
  In  In52  1  -0.02740584  0.16158923  0.50724125  1
  In  In53  1  0.70128890  0.02856412  -0.07727774  1
  In  In54  1  0.48814117  0.68066233  0.81247839  1
  In  In55  1  0.71561805  0.61824318  0.02004323  1
  In  In56  1  0.29503356  -0.04308892  0.67829433  1
  In  In57  1  0.02151898  0.00360781  0.64928628  1
  In  In58  1  0.31199119  0.11515692  0.15206296  1
  In  In59  1  0.49076293  0.83209913  -0.00336329  1
  In  In60  1  0.16690520  0.51227043  -0.01973436  1
  In  In61  1  0.47838648  0.17881428  0.02229543  1
  In  In62  1  0.87014169  -0.02435650  0.84638125  1
  In  In63  1  0.00386281  0.31015532  -0.00715253  1
  In  In64  1  0.50574268  0.31286946  0.19365170  1
  In  In65  1  0.82773464  0.84328255  0.66155094  1
  In  In66  1  0.66298268  0.18611273  0.49882022  1
  In  In67  1  0.33598118  0.64931316  -0.00852014  1
  In  In68  1  0.12144738  -0.02161081  0.17477348  1
  In  In69  1  0.85853435  -0.03302982  0.14231925  1
  In  In70  1  0.34276696  0.50868744  0.11825555  1
  In  In71  1  0.69453269  0.49941118  0.84916578  1
  Te  Te72  1  0.06846707  0.09234846  0.08762786  1
  Te  Te73  1  0.07988455  0.08244416  0.42946627  1
  Te  Te74  1  0.09672949  0.09619438  0.74376430  1
  Te  Te75  1  0.10251420  0.40374776  0.07350371  1
  Te  Te76  1  0.08515487  0.42744187  0.40422307  1
  Te  Te77  1  0.07496251  0.40191377  0.74761782  1
  Te  Te78  1  0.04702290  0.77058295  0.08841318  1
  Te  Te79  1  0.07616325  0.70148382  0.42194964  1
  Te  Te80  1  0.14388417  0.78294996  0.71966633  1
  Te  Te81  1  0.42561537  0.04597166  0.07451842  1
  Te  Te82  1  0.40057172  0.06571287  0.40604534  1
  Te  Te83  1  0.40051713  0.05981951  0.73053533  1
  Te  Te84  1  0.43937357  0.39959464  0.07721639  1
  Te  Te85  1  0.40079897  0.40997789  0.41190939  1
  Te  Te86  1  0.43749913  0.40032418  0.74885527  1
  Te  Te87  1  0.38811671  0.76183813  0.08335413  1
  Te  Te88  1  0.40606694  0.72841228  0.43218630  1
  Te  Te89  1  0.38812524  0.75517420  0.73949933  1
  Te  Te90  1  0.74787542  0.06387871  0.08262823  1
  Te  Te91  1  0.76803611  0.11200453  0.42191600  1
  Te  Te92  1  0.76304104  0.06179181  0.79674349  1
  Te  Te93  1  0.75992184  0.48314295  0.07072532  1
  Te  Te94  1  0.76114232  0.43796702  0.40786631  1
  Te  Te95  1  0.76606316  0.42866903  0.73393200  1
  Te  Te96  1  0.77799852  0.74329388  0.08492615  1
  Te  Te97  1  0.74085464  0.73458744  0.41293297  1
  Te  Te98  1  0.76842050  0.75235774  0.77271068  1
  Te  Te99  1  0.07529476  0.22582944  0.27316305  1
  Te  Te100  1  0.06352028  0.27145820  0.56245828  1
  Te  Te101  1  0.10566804  0.25316036  0.89966973  1
  Te  Te102  1  0.07396005  0.60552657  0.26822893  1
  Te  Te103  1  0.08645087  0.60659323  0.60504569  1
  Te  Te104  1  0.07065353  0.61004198  0.92366663  1
  Te  Te105  1  0.05300496  0.89400071  0.27790406  1
  Te  Te106  1  0.08884821  0.89293584  0.57041346  1
  Te  Te107  1  0.10627372  0.95410464  0.90379192  1
  Te  Te108  1  0.40282352  0.21221102  0.23531722  1
  Te  Te109  1  0.42482871  0.24884314  0.55766416  1
  Te  Te110  1  0.39498933  0.23515491  0.91625705  1
  Te  Te111  1  0.41886917  0.57371045  0.23913669  1
  Te  Te112  1  0.41028473  0.59388680  0.61434744  1
  Te  Te113  1  0.42424295  0.56925000  0.90029703  1
  Te  Te114  1  0.41092165  0.91418340  0.23569517  1
  Te  Te115  1  0.39280670  0.90548757  0.56690698  1
  Te  Te116  1  0.40294095  0.89876425  0.89492182  1
  Te  Te117  1  0.76504491  0.27033922  0.24413452  1
  Te  Te118  1  0.75196893  0.26753375  0.58351226  1
  Te  Te119  1  0.75142402  0.26701381  0.91657315  1
  Te  Te120  1  0.76908735  0.56967591  0.23700644  1
  Te  Te121  1  0.74943159  0.60049836  0.58605174  1
  Te  Te122  1  0.79422528  0.59303402  0.89974856  1
  Te  Te123  1  0.74194734  0.92494918  0.25640962  1
  Te  Te124  1  0.72814733  0.92850645  0.59870523  1
  Te  Te125  1  0.77045072  0.89489521  0.93369600  1
  Te  Te126  1  0.24442540  0.24225519  0.09072583  1
  Te  Te127  1  0.23086071  0.24369256  0.41158299  1
  Te  Te128  1  0.26138723  0.25038885  0.73461229  1
  Te  Te129  1  0.22544315  0.60279082  0.09762102  1
  Te  Te130  1  0.24791487  0.57705889  0.42100644  1
  Te  Te131  1  0.24764133  0.55665336  0.77526767  1
  Te  Te132  1  0.22760428  0.91202488  0.08422315  1
  Te  Te133  1  0.23928715  0.87838142  0.40146671  1
  Te  Te134  1  0.20043919  0.91492426  0.78426102  1
  Te  Te135  1  0.60241725  0.24937697  0.08787797  1
  Te  Te136  1  0.57381458  0.24572335  0.40041808  1
  Te  Te137  1  0.56145855  0.25958956  0.75315254  1
  Te  Te138  1  0.58505634  0.59072105  0.10100216  1
  Te  Te139  1  0.57051035  0.58309242  0.42589373  1
  Te  Te140  1  0.59736418  0.57940962  0.76063871  1
  Te  Te141  1  0.60011345  0.88569633  0.08566654  1
  Te  Te142  1  0.57540897  0.91646877  0.42553514  1
  Te  Te143  1  0.58237265  0.91853564  0.75829093  1
  Te  Te144  1  0.89418120  0.27510471  0.09080726  1
  Te  Te145  1  0.89071371  0.23310090  0.40748161  1
  Te  Te146  1  0.90765997  0.24625060  0.75217083  1
  Te  Te147  1  0.94894695  0.61428680  0.08591876  1
  Te  Te148  1  0.93394268  0.65461462  0.44072335  1
  Te  Te149  1  0.94929293  0.61856381  0.74135541  1
  Te  Te150  1  0.95527010  0.89281406  0.06018567  1
  Te  Te151  1  0.89638412  0.92799706  0.45693345  1
  Te  Te152  1  0.94468965  0.90343248  0.73665003  1
  Te  Te153  1  0.21916833  0.06075441  0.24875868  1
  Te  Te154  1  0.24462098  0.07025722  0.58852984  1
  Te  Te155  1  0.27907831  0.10229432  0.90205466  1
  Te  Te156  1  0.27158124  0.41822261  0.22507873  1
  Te  Te157  1  0.24009461  0.40979457  0.57008656  1
  Te  Te158  1  0.25851324  0.43197053  0.89884703  1
  Te  Te159  1  0.24647950  0.77549594  0.26497820  1
  Te  Te160  1  0.20768084  0.70738452  0.59854249  1
  Te  Te161  1  0.25461234  0.74252236  0.91000163  1
  Te  Te162  1  0.58311276  0.09009888  0.26642077  1
  Te  Te163  1  0.59184394  0.08489906  0.59501706  1
  Te  Te164  1  0.57170167  0.10410657  0.92235135  1
  Te  Te165  1  0.60057091  0.41901868  0.23827053  1
  Te  Te166  1  0.56809464  0.40265500  0.55517545  1
  Te  Te167  1  0.59468393  0.40311936  0.91245733  1
  Te  Te168  1  0.57214696  0.75267716  0.27352936  1
  Te  Te169  1  0.56847453  0.74512019  0.58598844  1
  Te  Te170  1  0.57731646  0.73118321  0.92403769  1
  Te  Te171  1  0.89994185  0.06861561  0.24538229  1
  Te  Te172  1  0.90850456  0.08766193  0.61457023  1
  Te  Te173  1  0.93033287  0.08157288  0.94354470  1
  Te  Te174  1  0.93346274  0.41784144  0.23560369  1
  Te  Te175  1  0.92139509  0.44622742  0.55388785  1
  Te  Te176  1  0.93460060  0.42992353  0.93343901  1
  Te  Te177  1  0.93064703  0.78991765  0.26244114  1
  Te  Te178  1  0.89693664  0.74054296  0.57922838  1
  Te  Te179  1  1.01175794  0.83694711  0.91441891  1
