# generated using pymatgen
data_In2Te3
_symmetry_space_group_name_H-M   'P 1'
_cell_length_a   18.80338194
_cell_length_b   18.79277046
_cell_length_c   18.79568050
_cell_angle_alpha   90.03614887
_cell_angle_beta   90.00416434
_cell_angle_gamma   90.05924580
_symmetry_Int_Tables_number   1
_chemical_formula_structural   In2Te3
_chemical_formula_sum   'In72 Te108'
_cell_volume   6641.78038049
_cell_formula_units_Z   36
loop_
 _symmetry_equiv_pos_site_id
 _symmetry_equiv_pos_as_xyz
  1  'x, y, z'
loop_
 _atom_site_type_symbol
 _atom_site_label
 _atom_site_symmetry_multiplicity
 _atom_site_fract_x
 _atom_site_fract_y
 _atom_site_fract_z
 _atom_site_occupancy
  In  In0  1  0.49424956  0.00138823  0.18764257  1
  In  In1  1  0.32434744  -0.01123942  0.00952885  1
  In  In2  1  -0.00405288  0.66541459  -0.00517005  1
  In  In3  1  0.34556588  0.50505393  0.81668685  1
  In  In4  1  0.50403758  0.83483293  0.64535329  1
  In  In5  1  0.01093794  0.34429533  -0.00638304  1
  In  In6  1  0.32513630  0.49499411  0.17825536  1
  In  In7  1  0.32148656  0.68197189  0.33035490  1
  In  In8  1  0.02135010  0.14932790  0.51719094  1
  In  In9  1  0.50198505  0.15753008  0.33273197  1
  In  In10  1  0.33150783  0.14560275  0.16477305  1
  In  In11  1  0.86611793  0.17669892  0.68226035  1
  In  In12  1  0.33759953  0.15960835  0.82520818  1
  In  In13  1  0.68460207  -0.00778692  0.32059219  1
  In  In14  1  0.83627720  0.35021677  0.50751499  1
  In  In15  1  -0.01927164  0.82471763  0.49984727  1
  In  In16  1  0.83652015  0.00374825  0.16300105  1
  In  In17  1  0.69131282  0.50763725  0.83518704  1
  In  In18  1  0.30532126  0.33124204  0.34045339  1
  In  In19  1  0.66088714  0.65895015  0.00490822  1
  In  In20  1  0.69644829  -0.01470997  0.65927832  1
  In  In21  1  0.50924891  -0.00305427  0.82850137  1
  In  In22  1  0.82852004  0.51094763  0.34808342  1
  In  In23  1  -0.00687834  0.52894915  0.82642610  1
  In  In24  1  0.48407555  0.17672510  0.66816377  1
  In  In25  1  0.15707153  0.18300341  0.00767603  1
  In  In26  1  0.14381454  0.67018983  0.48932007  1
  In  In27  1  0.33672193  0.52412466  0.50087193  1
  In  In28  1  -0.02357064  -0.03027945  0.69026007  1
  In  In29  1  0.48979716  0.68166510  0.12646365  1
  In  In30  1  0.66035015  0.16386275  0.47922112  1
  In  In31  1  0.33123662  0.32101038  -0.02045628  1
  In  In32  1  -0.00960159  0.81232939  0.17840165  1
  In  In33  1  0.85601960  0.13198375  -0.02647772  1
  In  In34  1  0.47791099  0.35201033  0.83479694  1
  In  In35  1  0.67312335  0.34736857  0.65707209  1
  In  In36  1  0.69149501  -0.01149130  0.00996763  1
  In  In37  1  0.01072882  0.32128288  0.34065826  1
  In  In38  1  -0.01430562  0.51304293  0.51536473  1
  In  In39  1  0.51801371  0.67004955  0.81761370  1
  In  In40  1  0.48255138  0.81055715  -0.01145669  1
  In  In41  1  0.84583403  0.52252244  -0.00134614  1
  In  In42  1  0.00556336  0.17239741  0.17561712  1
  In  In43  1  0.50242905  0.52507200  -0.01020307  1
  In  In44  1  0.48938257  -0.01071591  0.50649380  1
  In  In45  1  0.51700362  0.34492609  0.16659407  1
  In  In46  1  0.51898752  0.68786116  0.49145552  1
  In  In47  1  0.33670348  0.67919966  0.65450384  1
  In  In48  1  0.15943443  0.32710392  0.84864656  1
  In  In49  1  0.17221836  0.16613894  0.66647476  1
  In  In50  1  0.01625125  0.51275816  0.16593807  1
  In  In51  1  0.17366657  0.00175488  0.48834204  1
  In  In52  1  0.67955640  0.15626622  0.82773793  1
  In  In53  1  0.68057142  0.30805207  0.00222221  1
  In  In54  1  0.15730271  -0.02183000  0.16783011  1
  In  In55  1  0.83233863  0.15538822  0.32193024  1
  In  In56  1  0.50573442  0.32580995  0.52181377  1
  In  In57  1  0.68176111  0.85770263  0.17348570  1
  In  In58  1  0.68211004  0.67439025  0.32123328  1
  In  In59  1  0.69133411  0.80666803  0.49491170  1
  In  In60  1  0.14180942  0.81554345  0.68630411  1
  In  In61  1  0.15641660  0.51309986  0.65202081  1
  In  In62  1  0.81405579  0.53031721  0.64486146  1
  In  In63  1  0.33530353  -0.00766757  0.34390751  1
  In  In64  1  0.82350324  0.33224842  0.16943228  1
  In  In65  1  0.16218531  0.32749034  0.50261313  1
  In  In66  1  0.15904177  0.67458681  0.17705726  1
  In  In67  1  0.12918783  0.51903699  0.00844173  1
  In  In68  1  0.47733134  0.84336192  0.32677232  1
  In  In69  1  0.51414876  0.49878484  0.32822751  1
  In  In70  1  0.83362463  0.82991248  -0.01900773  1
  In  In71  1  0.14204246  -0.02597514  0.83218429  1
  Te  Te72  1  0.07486024  0.07777007  0.07742231  1
  Te  Te73  1  0.07323564  0.07182742  0.40445488  1
  Te  Te74  1  0.07370289  0.07740577  0.74334710  1
  Te  Te75  1  0.10041808  0.40120558  0.10195326  1
  Te  Te76  1  0.07801984  0.42987737  0.42588184  1
  Te  Te77  1  0.08618569  0.42717555  0.75794365  1
  Te  Te78  1  0.08938729  0.75890875  0.06853533  1
  Te  Te79  1  0.06832973  0.75905053  0.39801441  1
  Te  Te80  1  0.06585526  0.75447050  0.79928851  1
  Te  Te81  1  0.43150923  0.08016732  0.07151369  1
  Te  Te82  1  0.40768868  0.09554089  0.43301117  1
  Te  Te83  1  0.40797381  0.06073579  0.73300406  1
  Te  Te84  1  0.41283420  0.42305210  0.07145670  1
  Te  Te85  1  0.41384588  0.42160948  0.41342247  1
  Te  Te86  1  0.41618287  0.41912066  0.72007517  1
  Te  Te87  1  0.37038318  0.76738231  0.08480983  1
  Te  Te88  1  0.40162279  0.76429226  0.43339091  1
  Te  Te89  1  0.41746770  0.76373785  0.75224415  1
  Te  Te90  1  0.75549432  0.10532476  0.08661888  1
  Te  Te91  1  0.76499259  0.06566130  0.42808197  1
  Te  Te92  1  0.78010565  0.06736768  0.75726923  1
  Te  Te93  1  0.75163265  0.42489869  0.07180561  1
  Te  Te94  1  0.73919944  0.42166188  0.42512725  1
  Te  Te95  1  0.77318914  0.41310662  0.74912212  1
  Te  Te96  1  0.75072727  0.75353170  0.08752912  1
  Te  Te97  1  0.79342934  0.72510915  0.41354877  1
  Te  Te98  1  0.78593456  0.75326121  0.71693674  1
  Te  Te99  1  0.10478418  0.24320661  0.25871079  1
  Te  Te100  1  0.06951943  0.26345301  0.60565468  1
  Te  Te101  1  0.05321576  0.22430405  0.89531254  1
  Te  Te102  1  0.06728259  0.60364234  0.26995799  1
  Te  Te103  1  0.05658024  0.61672503  0.60394710  1
  Te  Te104  1  0.10603260  0.61401391  0.89160138  1
  Te  Te105  1  0.07318759  0.90162913  0.26342231  1
  Te  Te106  1  0.07756129  0.91662242  0.58688463  1
  Te  Te107  1  0.03531603  0.91466781  0.91527142  1
  Te  Te108  1  0.41280960  0.25055055  0.24744152  1
  Te  Te109  1  0.39449047  0.24582231  0.57470150  1
  Te  Te110  1  0.43690792  0.22989397  0.91812133  1
  Te  Te111  1  0.42440228  0.59838284  0.24929001  1
  Te  Te112  1  0.44160473  0.59321105  0.58659018  1
  Te  Te113  1  0.39875835  0.61687114  0.91836692  1
  Te  Te114  1  0.38321313  0.90532078  0.22375138  1
  Te  Te115  1  0.39313893  0.91127193  0.58493195  1
  Te  Te116  1  0.40552097  0.91254789  0.90335246  1
  Te  Te117  1  0.74004844  0.25149583  0.26015652  1
  Te  Te118  1  0.74813368  0.23230199  0.58706705  1
  Te  Te119  1  0.77870892  0.24570483  0.90318131  1
  Te  Te120  1  0.75734476  0.57917473  0.23679883  1
  Te  Te121  1  0.73503560  0.62976319  0.56877162  1
  Te  Te122  1  0.77053080  0.61694669  0.90534137  1
  Te  Te123  1  0.79668342  0.88768075  0.28237415  1
  Te  Te124  1  0.78226963  0.89386784  0.57778402  1
  Te  Te125  1  0.74998316  0.91694043  0.89599201  1
  Te  Te126  1  0.25431013  0.25998228  0.09668160  1
  Te  Te127  1  0.23414973  0.22965209  0.41910144  1
  Te  Te128  1  0.25921623  0.26604204  0.75071821  1
  Te  Te129  1  0.24708917  0.58604182  0.08326718  1
  Te  Te130  1  0.23465424  0.57952374  0.40353951  1
  Te  Te131  1  0.24589157  0.59694018  0.74472634  1
  Te  Te132  1  0.21197601  0.90332999  0.05077741  1
  Te  Te133  1  0.24567839  0.89677266  0.41124179  1
  Te  Te134  1  0.24359538  0.89527353  0.76144554  1
  Te  Te135  1  0.57694487  0.24069416  0.08166626  1
  Te  Te136  1  0.58251317  0.26799129  0.40172588  1
  Te  Te137  1  0.58600336  0.25533887  0.75450283  1
  Te  Te138  1  0.59167480  0.56757199  0.10561397  1
  Te  Te139  1  0.60301991  0.58475775  0.41885622  1
  Te  Te140  1  0.58608120  0.56104097  0.74656031  1
  Te  Te141  1  0.56960995  0.90975710  0.08115256  1
  Te  Te142  1  0.59175927  0.90952165  0.41629015  1
  Te  Te143  1  0.59822472  0.90503806  0.74471756  1
  Te  Te144  1  0.91702735  0.25099866  0.07504517  1
  Te  Te145  1  0.91324728  0.24134223  0.42983548  1
  Te  Te146  1  0.94051384  0.24714916  0.78629809  1
  Te  Te147  1  0.91020860  0.60687678  0.10690098  1
  Te  Te148  1  0.91181118  0.60819739  0.42722652  1
  Te  Te149  1  0.89697346  0.60735502  0.74376389  1
  Te  Te150  1  0.91987834  0.91104638  0.07949893  1
  Te  Te151  1  0.89356191  0.89836129  0.40581832  1
  Te  Te152  1  0.89058262  0.85963128  0.74841040  1
  Te  Te153  1  0.23778396  0.07581475  0.25838344  1
  Te  Te154  1  0.25650699  0.07433581  0.58840867  1
  Te  Te155  1  0.23926567  0.08844368  0.91730470  1
  Te  Te156  1  0.22567243  0.42858320  0.26332465  1
  Te  Te157  1  0.25556282  0.42221695  0.58140944  1
  Te  Te158  1  0.24619236  0.43424392  0.92105281  1
  Te  Te159  1  0.23546587  0.77600407  0.25666074  1
  Te  Te160  1  0.23505803  0.75785332  0.57495899  1
  Te  Te161  1  0.29543064  0.71879268  0.96013688  1
  Te  Te162  1  0.60511237  0.09276191  0.23950507  1
  Te  Te163  1  0.58760377  0.08091058  0.59027254  1
  Te  Te164  1  0.59403656  0.07735302  0.92577792  1
  Te  Te165  1  0.61190802  0.42161815  0.24857113  1
  Te  Te166  1  0.58782413  0.43516749  0.57663651  1
  Te  Te167  1  0.59016123  0.41574104  0.91995902  1
  Te  Te168  1  0.57486315  0.76097443  0.24266253  1
  Te  Te169  1  0.61702192  0.72744331  0.60874046  1
  Te  Te170  1  0.60268450  0.76046943  0.90633893  1
  Te  Te171  1  0.93746205  0.06425397  0.26045244  1
  Te  Te172  1  0.91420263  0.06738698  0.58752041  1
  Te  Te173  1  0.93587282  0.03147124  0.90355648  1
  Te  Te174  1  0.92355295  0.41471673  0.25233127  1
  Te  Te175  1  0.92178073  0.41569167  0.61247204  1
  Te  Te176  1  0.91462223  0.42340105  0.90662707  1
  Te  Te177  1  0.88628019  0.76042639  0.27205328  1
  Te  Te178  1  0.89202605  0.76011111  0.61246666  1
  Te  Te179  1  0.93705377  0.75900710  0.89026357  1
