# generated using pymatgen
data_In2Te3
_symmetry_space_group_name_H-M   'P 1'
_cell_length_a   18.91228519
_cell_length_b   18.88103000
_cell_length_c   18.89516458
_cell_angle_alpha   89.99412489
_cell_angle_beta   90.16762048
_cell_angle_gamma   89.96724800
_symmetry_Int_Tables_number   1
_chemical_formula_structural   In2Te3
_chemical_formula_sum   'In72 Te108'
_cell_volume   6747.12005320
_cell_formula_units_Z   36
loop_
 _symmetry_equiv_pos_site_id
 _symmetry_equiv_pos_as_xyz
  1  'x, y, z'
loop_
 _atom_site_type_symbol
 _atom_site_label
 _atom_site_symmetry_multiplicity
 _atom_site_fract_x
 _atom_site_fract_y
 _atom_site_fract_z
 _atom_site_occupancy
  In  In0  1  0.36093449  0.52702182  0.20384671  1
  In  In1  1  0.84378892  0.51826301  0.00890984  1
  In  In2  1  0.63786218  0.34535369  0.00192464  1
  In  In3  1  -0.01453974  0.69609044  0.31465144  1
  In  In4  1  0.31115765  0.87911342  0.90478805  1
  In  In5  1  0.65204616  0.53692971  0.48809679  1
  In  In6  1  0.50571118  0.34069028  0.49395852  1
  In  In7  1  0.84391360  -0.00873854  0.82530187  1
  In  In8  1  0.64928282  0.33446175  0.32520944  1
  In  In9  1  0.36703458  0.36731189  0.70181277  1
  In  In10  1  0.51719584  0.68341752  0.85766432  1
  In  In11  1  0.65500974  0.50268731  0.16157633  1
  In  In12  1  0.50281300  0.52665378  0.00835034  1
  In  In13  1  0.64950992  0.67255725  0.00737029  1
  In  In14  1  0.00773654  0.53130817  0.83297566  1
  In  In15  1  0.14256269  0.69053493  0.48359656  1
  In  In16  1  0.85670824  0.68894811  0.83097678  1
  In  In17  1  0.16671667  -0.00476545  0.49773886  1
  In  In18  1  0.00180754  0.67647337  -0.00378289  1
  In  In19  1  0.79155555  -0.03815414  0.17153053  1
  In  In20  1  0.35052302  0.15845279  0.47208432  1
  In  In21  1  0.33025728  0.16773669  0.82567616  1
  In  In22  1  0.50257941  0.16072677  0.65872365  1
  In  In23  1  0.80579187  0.33418500  0.83997568  1
  In  In24  1  0.68560685  -0.01111662  0.65770907  1
  In  In25  1  0.16496971  0.31723626  0.54777912  1
  In  In26  1  0.01386654  0.30888766  0.65431247  1
  In  In27  1  0.33098565  0.53620265  0.48415040  1
  In  In28  1  0.84809906  0.14911563  0.64048477  1
  In  In29  1  0.17021788  0.13396705  0.34529173  1
  In  In30  1  0.16054234  0.31294269  0.14729410  1
  In  In31  1  0.50864540  0.82217390  0.67456598  1
  In  In32  1  0.35397216  0.64507327  0.67376963  1
  In  In33  1  0.68949887  0.66633495  0.67180021  1
  In  In34  1  0.34208540  0.32903831  0.32086162  1
  In  In35  1  0.80853597  0.53699541  0.33601531  1
  In  In36  1  0.16497779  0.67911831  0.16855719  1
  In  In37  1  0.48630089  0.16808916  0.31379435  1
  In  In38  1  -0.01449996  0.51016075  0.16091106  1
  In  In39  1  0.19055479  0.50830211  0.68868732  1
  In  In40  1  0.33712216  -0.00318013  0.31459209  1
  In  In41  1  -0.00418925  0.49314165  0.51454634  1
  In  In42  1  -0.05297481  0.07258850  0.46822949  1
  In  In43  1  -0.02397907  0.29371279  -0.01329090  1
  In  In44  1  0.19155068  0.49138879  0.02966622  1
  In  In45  1  -0.01136638  0.34268523  0.32180264  1
  In  In46  1  0.34231391  0.33563320  0.01359626  1
  In  In47  1  0.18710025  0.49913749  0.35238992  1
  In  In48  1  0.17701708  0.33554543  0.85085017  1
  In  In49  1  0.80855240  0.12761026  0.35512745  1
  In  In50  1  0.49980521  0.15320347  0.00846409  1
  In  In51  1  0.52398561  -0.01975082  0.14495082  1
  In  In52  1  0.34750989  0.81947461  0.13460831  1
  In  In53  1  0.34042183  -0.01476551  0.66215459  1
  In  In54  1  0.53777595  0.69367347  0.45805588  1
  In  In55  1  0.84180071  0.31984151  0.48134238  1
  In  In56  1  0.68040997  0.15932049  0.17252234  1
  In  In57  1  -0.01323278  0.13677746  0.16586158  1
  In  In58  1  0.81714963  0.71334199  0.48873987  1
  In  In59  1  0.64292716  0.51218327  0.84169813  1
  In  In60  1  -0.01109765  0.69824756  0.66452298  1
  In  In61  1  0.63529231  0.15423201  0.83989333  1
  In  In62  1  0.65463532  0.80738239  0.84430380  1
  In  In63  1  0.15043274  0.13110307  0.69553600  1
  In  In64  1  0.84451343  0.14423028  0.00453076  1
  In  In65  1  0.16128494  0.82511697  0.66703970  1
  In  In66  1  0.14403491  0.11176197  0.00379235  1
  In  In67  1  -0.01808252  0.84104721  0.19132844  1
  In  In68  1  0.36147302  0.82154564  0.50209133  1
  In  In69  1  0.83167412  0.82026405  -0.00571062  1
  In  In70  1  0.67646056  0.33332830  0.66346370  1
  In  In71  1  -0.00509647  0.12910968  0.80386826  1
  Te  Te72  1  0.09135250  0.04362827  0.12228277  1
  Te  Te73  1  0.06546225  0.02744672  0.37502710  1
  Te  Te74  1  0.07644274  0.01488167  0.75235445  1
  Te  Te75  1  0.06411068  0.40814390  0.07286760  1
  Te  Te76  1  0.08472241  0.40342494  0.42618935  1
  Te  Te77  1  0.07892380  0.41383718  0.75279147  1
  Te  Te78  1  0.07521249  0.77184018  0.08872978  1
  Te  Te79  1  0.08809615  0.78656727  0.38031995  1
  Te  Te80  1  0.08945753  0.73819443  0.76339971  1
  Te  Te81  1  0.41322801  0.06251253  0.08681946  1
  Te  Te82  1  0.44131179  0.05643354  0.41223897  1
  Te  Te83  1  0.42503944  0.07212917  0.75504061  1
  Te  Te84  1  0.42263708  0.43211926  0.09894038  1
  Te  Te85  1  0.41428474  0.42794035  0.40946091  1
  Te  Te86  1  0.45146101  0.47226945  0.75009038  1
  Te  Te87  1  0.45086174  0.74177396  0.06123300  1
  Te  Te88  1  0.42416089  0.75812568  0.38266079  1
  Te  Te89  1  0.41225195  0.75427558  0.76634151  1
  Te  Te90  1  0.73470945  0.06230798  0.06941419  1
  Te  Te91  1  0.74437650  0.04750851  0.46503933  1
  Te  Te92  1  0.75209680  0.10247599  0.75671945  1
  Te  Te93  1  0.75023161  0.41755803  0.07556627  1
  Te  Te94  1  0.74267629  0.41992671  0.42157573  1
  Te  Te95  1  0.74322231  0.44072948  0.75135239  1
  Te  Te96  1  0.72758808  0.77081189  0.09219624  1
  Te  Te97  1  0.70915521  0.74225248  0.39093868  1
  Te  Te98  1  0.76937358  0.77475249  0.74181064  1
  Te  Te99  1  0.07851149  0.23897079  0.25116916  1
  Te  Te100  1  0.07592892  0.19443622  0.57640512  1
  Te  Te101  1  0.07914368  0.22762083  0.89570995  1
  Te  Te102  1  0.08459449  0.57227031  0.25760846  1
  Te  Te103  1  0.09985808  0.58042007  0.58291473  1
  Te  Te104  1  0.10470531  0.58181623  0.93712746  1
  Te  Te105  1  0.08955269  0.90277204  0.27332277  1
  Te  Te106  1  0.08123427  0.89380580  0.56160630  1
  Te  Te107  1  0.15591392  0.93855757  0.93932129  1
  Te  Te108  1  0.39691022  0.23823245  0.22058941  1
  Te  Te109  1  0.40945674  0.25810393  0.58001968  1
  Te  Te110  1  0.42089556  0.24901997  0.91544062  1
  Te  Te111  1  0.43611584  0.61839610  0.29074634  1
  Te  Te112  1  0.44121994  0.60933397  0.55478079  1
  Te  Te113  1  0.41113683  0.60878998  0.92729695  1
  Te  Te114  1  0.42821028  0.90393570  0.23685213  1
  Te  Te115  1  0.44807883  0.92253505  0.57584997  1
  Te  Te116  1  0.43671722  0.94897640  0.94219816  1
  Te  Te117  1  0.75982430  0.24744032  0.26864660  1
  Te  Te118  1  0.74663752  0.23835312  0.56759253  1
  Te  Te119  1  0.73545894  0.23874076  0.93545662  1
  Te  Te120  1  0.74402234  0.60268254  0.22214482  1
  Te  Te121  1  0.77119650  0.59135673  0.56742007  1
  Te  Te122  1  0.75099032  0.60377899  0.91245252  1
  Te  Te123  1  0.69596460  0.93790122  0.28417547  1
  Te  Te124  1  0.76135478  0.91405351  0.55332633  1
  Te  Te125  1  0.74577358  0.91354892  0.91027328  1
  Te  Te126  1  0.23814152  0.23059348  0.04957891  1
  Te  Te127  1  0.24402581  0.25570711  0.41389638  1
  Te  Te128  1  0.24428521  0.25879766  0.73696515  1
  Te  Te129  1  0.27499441  0.59643862  0.09868640  1
  Te  Te130  1  0.25084518  0.62946571  0.39403522  1
  Te  Te131  1  0.25281356  0.60782789  0.77507080  1
  Te  Te132  1  0.24938188  0.91217914  0.05438457  1
  Te  Te133  1  0.26634199  0.91198213  0.42058200  1
  Te  Te134  1  0.26284387  0.89746794  0.75427454  1
  Te  Te135  1  0.57767874  0.24799392  0.10089392  1
  Te  Te136  1  0.58174782  0.23469049  0.41728559  1
  Te  Te137  1  0.57400376  0.26151922  0.75013353  1
  Te  Te138  1  0.55077206  0.62836982  0.11535322  1
  Te  Te139  1  0.57267214  0.57604833  0.36756448  1
  Te  Te140  1  0.56987439  0.59590150  0.73694631  1
  Te  Te141  1  0.60818873  0.87286654  0.08402357  1
  Te  Te142  1  0.60533382  0.86440080  0.40374533  1
  Te  Te143  1  0.59251455  0.91887983  0.75617385  1
  Te  Te144  1  0.89705004  0.24724576  0.10581708  1
  Te  Te145  1  0.93641406  0.22225268  0.41346351  1
  Te  Te146  1  0.90489609  0.25231118  0.75528753  1
  Te  Te147  1  0.90405554  0.62439771  0.10065458  1
  Te  Te148  1  0.93145125  0.58694042  0.41439207  1
  Te  Te149  1  0.91007977  0.58575999  0.73084146  1
  Te  Te150  1  0.90762979  0.91864563  0.08161805  1
  Te  Te151  1  0.86046832  0.95130701  0.43548173  1
  Te  Te152  1  0.93382314  0.92393940  0.73128290  1
  Te  Te153  1  0.25395043  0.08932414  0.23449622  1
  Te  Te154  1  0.26328187  0.09006381  0.58165808  1
  Te  Te155  1  0.23921706  0.06955396  0.89418492  1
  Te  Te156  1  0.23846671  0.41332109  0.23388853  1
  Te  Te157  1  0.26729484  0.43125111  0.58184558  1
  Te  Te158  1  0.27436947  0.43200111  0.91530169  1
  Te  Te159  1  0.25323452  0.77243480  0.23829404  1
  Te  Te160  1  0.25904137  0.73779644  0.58250866  1
  Te  Te161  1  0.23201404  0.77590933  0.97413705  1
  Te  Te162  1  0.59189775  0.07139142  0.25894433  1
  Te  Te163  1  0.59475210  0.07783592  0.57939303  1
  Te  Te164  1  0.57062984  0.05114640  0.92402360  1
  Te  Te165  1  0.56416988  0.41608326  0.23832805  1
  Te  Te166  1  0.59027374  0.43009616  0.58230886  1
  Te  Te167  1  0.54597675  0.41536523  0.90424232  1
  Te  Te168  1  0.61358973  0.80311852  0.26970967  1
  Te  Te169  1  0.60752958  0.75692394  0.58187071  1
  Te  Te170  1  0.53194428  0.82276386  0.95066906  1
  Te  Te171  1  0.88889021  0.05462461  0.24741469  1
  Te  Te172  1  0.93104006  0.02692781  0.61396638  1
  Te  Te173  1  0.93968908  0.05563776  0.92837948  1
  Te  Te174  1  0.89078227  0.43179888  0.25049907  1
  Te  Te175  1  0.90556799  0.40118398  0.59405422  1
  Te  Te176  1  0.91479000  0.42669066  0.90798219  1
  Te  Te177  1  0.87691622  0.78914982  0.28228941  1
  Te  Te178  1  0.93887173  0.77322221  0.54779982  1
  Te  Te179  1  0.95009345  0.78535664  0.90202031  1
