# generated using pymatgen
data_In2Te3
_symmetry_space_group_name_H-M   'P 1'
_cell_length_a   18.81336589
_cell_length_b   18.81924187
_cell_length_c   18.82384581
_cell_angle_alpha   89.85242289
_cell_angle_beta   89.96497999
_cell_angle_gamma   89.92579919
_symmetry_Int_Tables_number   1
_chemical_formula_structural   In2Te3
_chemical_formula_sum   'In72 Te108'
_cell_volume   6664.61547967
_cell_formula_units_Z   36
loop_
 _symmetry_equiv_pos_site_id
 _symmetry_equiv_pos_as_xyz
  1  'x, y, z'
loop_
 _atom_site_type_symbol
 _atom_site_label
 _atom_site_symmetry_multiplicity
 _atom_site_fract_x
 _atom_site_fract_y
 _atom_site_fract_z
 _atom_site_occupancy
  In  In0  1  0.81930886  0.01271293  0.16933011  1
  In  In1  1  0.65273704  0.33692114  0.32213117  1
  In  In2  1  0.16008773  0.85824987  0.64958936  1
  In  In3  1  0.84028515  0.50449447  0.30613812  1
  In  In4  1  0.83902781  0.34646307  0.83049758  1
  In  In5  1  -0.02546617  0.15837898  0.86832918  1
  In  In6  1  0.16653695  0.68780687  0.82952297  1
  In  In7  1  0.66772314  0.84806243  0.18113054  1
  In  In8  1  0.49555688  0.15861445  0.00813911  1
  In  In9  1  0.69682826  -0.00571615  -0.01719967  1
  In  In10  1  0.17395562  0.33111173  0.48147150  1
  In  In11  1  -0.01010682  0.33389796  -0.00305222  1
  In  In12  1  0.27245376  0.88898378  0.50681417  1
  In  In13  1  0.84849785  0.29396808  0.50441251  1
  In  In14  1  0.00143735  0.16220594  0.16286653  1
  In  In15  1  0.85035091  0.51226358  0.69737291  1
  In  In16  1  0.15861658  0.32406889  0.82524346  1
  In  In17  1  0.14505553  0.51928428  0.67735455  1
  In  In18  1  0.48247286  0.83544177  -0.00931912  1
  In  In19  1  0.14915644  0.67097389  0.51481506  1
  In  In20  1  0.48918865  -0.00921537  0.51751389  1
  In  In21  1  0.15100460  0.01215224  0.18668708  1
  In  In22  1  0.84005120  0.16815451  0.32714274  1
  In  In23  1  -0.03223647  0.83920364  0.16607177  1
  In  In24  1  0.36733598  0.55107866  0.86449421  1
  In  In25  1  0.66677793  0.01144985  0.33632298  1
  In  In26  1  0.49182560  0.33783899  0.17330092  1
  In  In27  1  0.84798631  0.84017777  -0.02799467  1
  In  In28  1  0.35706887  0.32083202  0.67936368  1
  In  In29  1  0.67868722  0.68085452  0.33527427  1
  In  In30  1  0.68944311  0.15763425  0.80567778  1
  In  In31  1  -0.00343880  0.66985201  -0.00372480  1
  In  In32  1  0.66590049  0.68056270  0.68932749  1
  In  In33  1  0.68704181  0.50318525  0.49924983  1
  In  In34  1  0.71090039  0.33512557  0.65151941  1
  In  In35  1  0.01485278  0.68009564  0.34171082  1
  In  In36  1  0.84807982  0.84084878  0.66560728  1
  In  In37  1  0.83583683  0.34048102  0.16681815  1
  In  In38  1  0.29953592  0.50724094  0.52049525  1
  In  In39  1  0.34041388  0.13754036  0.84255092  1
  In  In40  1  0.33192262  0.82759178  0.16981413  1
  In  In41  1  -0.00913975  0.83170824  0.81732479  1
  In  In42  1  0.33019400  0.67037852  0.32083608  1
  In  In43  1  0.17172000  -0.00943282  0.81965152  1
  In  In44  1  0.00608029  0.32500792  0.65709988  1
  In  In45  1  0.87342907  -0.02143122  0.48790941  1
  In  In46  1  0.15916969  0.12902656  0.64459715  1
  In  In47  1  0.30616977  0.31867113  0.00517495  1
  In  In48  1  0.48071286  0.00021025  0.16974057  1
  In  In49  1  0.67377783  0.67061116  -0.01944140  1
  In  In50  1  0.50730856  0.18097169  0.32895291  1
  In  In51  1  0.16584183  0.30806093  0.17112285  1
  In  In52  1  0.50576273  0.14565187  0.69191284  1
  In  In53  1  0.49387495  -0.01583048  0.83445727  1
  In  In54  1  0.49571917  0.48435163  0.31574232  1
  In  In55  1  0.36845237  0.70438697  0.70810769  1
  In  In56  1  0.67659329  -0.01150143  0.68331072  1
  In  In57  1  0.68488514  0.34427723  -0.00043483  1
  In  In58  1  0.84926191  0.66259086  0.14923635  1
  In  In59  1  0.31688732  0.30443403  0.34885353  1
  In  In60  1  0.52599464  0.52500789  0.67608263  1
  In  In61  1  0.30733589  0.14289443  0.49000921  1
  In  In62  1  0.85021389  0.70010213  0.49483903  1
  In  In63  1  0.18347356  0.66520143  0.18315734  1
  In  In64  1  0.16244178  0.49034065  -0.00080956  1
  In  In65  1  0.52646073  0.35431376  0.84885182  1
  In  In66  1  0.32141244  0.50736538  0.13762824  1
  In  In67  1  0.51678431  0.67814772  0.51552632  1
  In  In68  1  0.50745426  0.82390890  0.32495163  1
  In  In69  1  0.13915592  0.48233339  0.31955487  1
  In  In70  1  0.50511684  0.32043383  0.48321571  1
  In  In71  1  0.17665722  0.82968167  -0.00743389  1
  Te  Te72  1  0.08200460  0.07689827  0.07254305  1
  Te  Te73  1  0.06257258  0.01766144  0.46381381  1
  Te  Te74  1  0.07305437  0.09450586  0.76336648  1
  Te  Te75  1  0.07916689  0.41063570  0.09646421  1
  Te  Te76  1  0.07161769  0.42761567  0.43816468  1
  Te  Te77  1  0.06107961  0.42247782  0.76146103  1
  Te  Te78  1  0.08082632  0.75301508  0.09359805  1
  Te  Te79  1  0.08277808  0.77883124  0.43325035  1
  Te  Te80  1  0.07591756  0.74646857  0.72304561  1
  Te  Te81  1  0.39438623  0.07790672  0.07774924  1
  Te  Te82  1  0.42444171  0.08300086  0.41194628  1
  Te  Te83  1  0.39526519  0.05221526  0.72955729  1
  Te  Te84  1  0.41255291  0.41101584  0.06395105  1
  Te  Te85  1  0.40194002  0.41829355  0.42093940  1
  Te  Te86  1  0.42405959  0.43357913  0.75771332  1
  Te  Te87  1  0.41782690  0.73889229  0.08559122  1
  Te  Te88  1  0.41562524  0.74653128  0.42067955  1
  Te  Te89  1  0.48000081  0.76281633  0.78606385  1
  Te  Te90  1  0.73725294  0.09643048  0.07979231  1
  Te  Te91  1  0.76783106  0.07823201  0.42702978  1
  Te  Te92  1  0.78923110  0.06210633  0.75046480  1
  Te  Te93  1  0.77426120  0.43795227  0.07174222  1
  Te  Te94  1  0.75969517  0.40577569  0.40795312  1
  Te  Te95  1  0.73012943  0.43478434  0.76469540  1
  Te  Te96  1  0.75756650  0.77192660  0.08024527  1
  Te  Te97  1  0.73907777  0.77271451  0.43136383  1
  Te  Te98  1  0.75106651  0.77807649  0.76393297  1
  Te  Te99  1  0.06664396  0.25094553  0.26468949  1
  Te  Te100  1  0.08311827  0.23354718  0.56320563  1
  Te  Te101  1  0.09192916  0.24062519  0.93218597  1
  Te  Te102  1  0.06484349  0.58356917  0.23194639  1
  Te  Te103  1  0.05610727  0.57225822  0.57329853  1
  Te  Te104  1  0.08465228  0.58325046  0.90495419  1
  Te  Te105  1  0.06099670  0.91140149  0.25606790  1
  Te  Te106  1  0.04859014  0.95088643  0.60296305  1
  Te  Te107  1  0.07539408  0.91178778  0.91467061  1
  Te  Te108  1  0.39775500  0.23643912  0.23830062  1
  Te  Te109  1  0.41560827  0.23080713  0.57057239  1
  Te  Te110  1  0.41804257  0.25595533  0.90362649  1
  Te  Te111  1  0.41739763  0.58420609  0.22998896  1
  Te  Te112  1  0.41466350  0.58832818  0.58924738  1
  Te  Te113  1  0.44842170  0.61939822  0.96671207  1
  Te  Te114  1  0.40135257  0.91936412  0.27102266  1
  Te  Te115  1  0.40360024  0.88844372  0.58008153  1
  Te  Te116  1  0.39225060  0.93537143  0.92969354  1
  Te  Te117  1  0.74034618  0.24422429  0.23941448  1
  Te  Te118  1  0.76622254  0.21204547  0.59494724  1
  Te  Te119  1  0.75870418  0.24269249  0.91025405  1
  Te  Te120  1  0.73992643  0.58942761  0.22973544  1
  Te  Te121  1  0.75869259  0.59505917  0.59388735  1
  Te  Te122  1  0.72112134  0.57815741  0.87481378  1
  Te  Te123  1  0.76717643  0.91283648  0.27463213  1
  Te  Te124  1  0.75657271  0.91992210  0.57225726  1
  Te  Te125  1  0.74305171  0.89811941  0.87981976  1
  Te  Te126  1  0.25075592  0.21572825  0.09399206  1
  Te  Te127  1  0.20922035  0.20460224  0.39098247  1
  Te  Te128  1  0.24803896  0.23049663  0.74145627  1
  Te  Te129  1  0.24416811  0.60890650  0.05511019  1
  Te  Te130  1  0.23336136  0.58332824  0.40313683  1
  Te  Te131  1  0.26116776  0.58871289  0.74856462  1
  Te  Te132  1  0.24355386  0.92191516  0.09211886  1
  Te  Te133  1  0.21268966  0.97461626  0.39758557  1
  Te  Te134  1  0.25280760  0.87557678  0.76725266  1
  Te  Te135  1  0.58342117  0.25723946  0.08159508  1
  Te  Te136  1  0.61380020  0.23128534  0.42786882  1
  Te  Te137  1  0.58856125  0.26500217  0.73839852  1
  Te  Te138  1  0.57583927  0.58138857  0.05137507  1
  Te  Te139  1  0.58007778  0.57428184  0.41025855  1
  Te  Te140  1  0.58952643  0.59609073  0.79199912  1
  Te  Te141  1  0.58590855  0.92563704  0.07756774  1
  Te  Te142  1  0.58343371  0.91484965  0.41942966  1
  Te  Te143  1  0.56241566  0.90050812  0.73038939  1
  Te  Te144  1  0.90166303  0.23764947  0.07453280  1
  Te  Te145  1  0.94294146  0.24282754  0.40414104  1
  Te  Te146  1  0.91844301  0.24334501  0.75133678  1
  Te  Te147  1  0.90956112  0.56312693  0.05669093  1
  Te  Te148  1  0.91293939  0.58757708  0.41270797  1
  Te  Te149  1  0.92480844  0.60501698  0.78019324  1
  Te  Te150  1  0.91795042  0.94610243  0.06148999  1
  Te  Te151  1  0.96976405  0.89443054  0.40828256  1
  Te  Te152  1  0.91194906  0.94299301  0.75610605  1
  Te  Te153  1  0.24871615  0.07034325  0.28178512  1
  Te  Te154  1  0.25687020  0.03320035  0.58116158  1
  Te  Te155  1  0.23291674  0.07927259  0.92216449  1
  Te  Te156  1  0.26146669  0.41774950  0.24998899  1
  Te  Te157  1  0.23957438  0.39825203  0.61069780  1
  Te  Te158  1  0.25475888  0.42198677  0.89732616  1
  Te  Te159  1  0.23033095  0.77650549  0.27495448  1
  Te  Te160  1  0.25787676  0.74831604  0.58675003  1
  Te  Te161  1  0.27366802  0.76676785  0.89764943  1
  Te  Te162  1  0.58578917  0.09078491  0.23415565  1
  Te  Te163  1  0.59275086  0.07978836  0.58833170  1
  Te  Te164  1  0.58593955  0.09044475  0.90174473  1
  Te  Te165  1  0.60175187  0.43602761  0.21743539  1
  Te  Te166  1  0.58122996  0.41567711  0.57605774  1
  Te  Te167  1  0.58210410  0.44547703  0.95225444  1
  Te  Te168  1  0.57987189  0.73236372  0.22766640  1
  Te  Te169  1  0.59578350  0.77210038  0.59389891  1
  Te  Te170  1  0.58736929  0.77299522  0.90246413  1
  Te  Te171  1  0.92990469  0.06465985  0.25975088  1
  Te  Te172  1  0.95394752  0.07416935  0.56936171  1
  Te  Te173  1  0.90619197  0.06372840  0.95641985  1
  Te  Te174  1  0.93642519  0.40798332  0.25230080  1
  Te  Te175  1  0.89987479  0.41181265  0.58913353  1
  Te  Te176  1  0.91349552  0.43657312  0.92135036  1
  Te  Te177  1  0.89796687  0.74660425  0.26582054  1
  Te  Te178  1  0.94438438  0.75093174  0.59508744  1
  Te  Te179  1  0.89729935  0.71673993  0.88707899  1
