# generated using pymatgen
data_In2Te3
_symmetry_space_group_name_H-M   'P 1'
_cell_length_a   18.76965625
_cell_length_b   18.77056231
_cell_length_c   18.76732247
_cell_angle_alpha   89.95570653
_cell_angle_beta   89.93206272
_cell_angle_gamma   90.02280628
_symmetry_Int_Tables_number   1
_chemical_formula_structural   In2Te3
_chemical_formula_sum   'In72 Te108'
_cell_volume   6612.03964230
_cell_formula_units_Z   36
loop_
 _symmetry_equiv_pos_site_id
 _symmetry_equiv_pos_as_xyz
  1  'x, y, z'
loop_
 _atom_site_type_symbol
 _atom_site_label
 _atom_site_symmetry_multiplicity
 _atom_site_fract_x
 _atom_site_fract_y
 _atom_site_fract_z
 _atom_site_occupancy
  In  In0  1  0.20040443  -0.02254187  0.47722426  1
  In  In1  1  0.62686846  0.65232268  0.68026553  1
  In  In2  1  0.49511214  0.82488557  0.31550270  1
  In  In3  1  0.49319977  0.51195192  0.00044918  1
  In  In4  1  0.82661935  0.16424286  0.33829927  1
  In  In5  1  0.33958856  0.17791841  0.16159791  1
  In  In6  1  0.15917601  0.18016392  0.31368353  1
  In  In7  1  0.36622965  0.50586567  0.83251163  1
  In  In8  1  0.82269768  -0.00448840  0.50037592  1
  In  In9  1  0.51309047  0.33731261  0.49498358  1
  In  In10  1  0.48275579  0.83135484  0.03396128  1
  In  In11  1  0.83996883  0.50431060  0.32705098  1
  In  In12  1  0.83940508  0.86738072  -0.00849366  1
  In  In13  1  0.00868599  0.66411801  0.32343235  1
  In  In14  1  0.80950283  0.32468765  0.81497101  1
  In  In15  1  -0.00211843  -0.00251416  0.01650821  1
  In  In16  1  0.82610017  0.47583761  0.66597889  1
  In  In17  1  0.00411461  0.49547461  0.82947830  1
  In  In18  1  0.16981741  0.48158430  0.67205689  1
  In  In19  1  0.32475977  0.33281872  0.32975628  1
  In  In20  1  0.33356707  0.30813023  -0.00308686  1
  In  In21  1  0.66248201  0.85147422  0.15858081  1
  In  In22  1  0.16918025  -0.00090196  0.17818659  1
  In  In23  1  0.65272199  0.65150288  0.01229796  1
  In  In24  1  0.67037056  0.31615160  0.00038120  1
  In  In25  1  0.34030943  0.17276383  0.84283241  1
  In  In26  1  0.50512756  0.33421325  0.16063376  1
  In  In27  1  0.13191566  0.17712517  0.65015578  1
  In  In28  1  0.82122664  0.51988429  0.00766971  1
  In  In29  1  0.18877175  0.50518603  0.02980197  1
  In  In30  1  0.83749235  0.66933816  0.17164554  1
  In  In31  1  0.66162852  0.66895770  0.33947293  1
  In  In32  1  0.35400600  0.14419952  0.48364033  1
  In  In33  1  0.81424068  0.31163750  0.51883500  1
  In  In34  1  0.33963739  0.52255800  0.49207429  1
  In  In35  1  0.82863869  0.33825944  0.17640616  1
  In  In36  1  0.00221994  0.33333714  0.00379935  1
  In  In37  1  0.82860803  0.67194061  0.47866245  1
  In  In38  1  0.65809111  0.50380424  0.50117576  1
  In  In39  1  -0.00173369  0.85439752  0.82999078  1
  In  In40  1  0.64296439  0.00754381  0.30970654  1
  In  In41  1  -0.00619565  0.18541545  0.17324665  1
  In  In42  1  0.64792118  0.32236176  0.32395235  1
  In  In43  1  -0.02040976  0.00686358  0.66455261  1
  In  In44  1  0.33861685  0.01408048  0.69103454  1
  In  In45  1  0.65565899  0.82821816  0.83654131  1
  In  In46  1  -0.02542670  0.18485089  0.83793190  1
  In  In47  1  0.47551352  0.33026486  0.83185651  1
  In  In48  1  0.35067358  0.53272839  0.19284487  1
  In  In49  1  0.00487184  0.80738342  0.48084810  1
  In  In50  1  0.00218342  0.66437147  0.64714070  1
  In  In51  1  0.51247123  0.82540599  0.66374523  1
  In  In52  1  0.49771884  0.16930580  0.67596543  1
  In  In53  1  0.16681354  0.65482738  0.49370829  1
  In  In54  1  0.15109808  0.34016184  0.83390670  1
  In  In55  1  0.00976725  0.67936702  0.03045922  1
  In  In56  1  0.33933659  0.36060848  0.68489027  1
  In  In57  1  0.49931795  -0.01002873  0.49101169  1
  In  In58  1  0.36434181  0.00519633  0.00065287  1
  In  In59  1  0.80763190  0.67638041  0.84084676  1
  In  In60  1  0.81377724  0.02228579  0.81859390  1
  In  In61  1  0.67620341  0.00675070  0.65725748  1
  In  In62  1  0.36148255  0.66492897  0.65378517  1
  In  In63  1  -0.01387174  0.17741121  0.49142998  1
  In  In64  1  0.14989596  0.48412550  0.33978004  1
  In  In65  1  0.19954198  0.00490294  0.83277998  1
  In  In66  1  0.17878200  0.81109714  0.02436171  1
  In  In67  1  0.01588905  -0.00423479  0.32233279  1
  In  In68  1  0.18523789  0.67909736  0.85514745  1
  In  In69  1  0.33994033  0.82101075  0.47339155  1
  In  In70  1  0.80914373  0.00060499  0.12917673  1
  In  In71  1  0.16797805  0.86101992  0.67122630  1
  Te  Te72  1  0.08752403  0.09499799  0.09108911  1
  Te  Te73  1  0.09073205  0.08409645  0.42456511  1
  Te  Te74  1  0.07939877  0.07391683  0.76122233  1
  Te  Te75  1  0.08615854  0.41810132  0.08993983  1
  Te  Te76  1  0.09590423  0.39723067  0.44546298  1
  Te  Te77  1  0.05559996  0.39410416  0.72756851  1
  Te  Te78  1  0.10049939  0.74033353  0.13013168  1
  Te  Te79  1  0.11755235  0.75930856  0.39347209  1
  Te  Te80  1  0.08498502  0.74723734  0.74901595  1
  Te  Te81  1  0.44232609  0.07813591  0.11207131  1
  Te  Te82  1  0.42891962  0.06475886  0.38188729  1
  Te  Te83  1  0.44231537  0.07414882  0.78469179  1
  Te  Te84  1  0.39687545  0.41688813  0.08433538  1
  Te  Te85  1  0.42138951  0.42149883  0.40742212  1
  Te  Te86  1  0.45919787  0.45516461  0.71998287  1
  Te  Te87  1  0.40388843  0.72485966  0.10940419  1
  Te  Te88  1  0.42712845  0.71981331  0.40558390  1
  Te  Te89  1  0.43109960  0.74317714  0.75640598  1
  Te  Te90  1  0.71608815  0.10198582  0.07318534  1
  Te  Te91  1  0.72716408  0.08392320  0.41878820  1
  Te  Te92  1  0.73350301  0.12248362  0.73983517  1
  Te  Te93  1  0.73551917  0.42462624  0.09038328  1
  Te  Te94  1  0.74780168  0.41196130  0.41075359  1
  Te  Te95  1  0.71666746  0.41866535  0.74563917  1
  Te  Te96  1  0.75526135  0.75599649  0.06613640  1
  Te  Te97  1  0.75378666  0.76944869  0.39761465  1
  Te  Te98  1  0.73785357  0.75422697  0.73231124  1
  Te  Te99  1  0.06933036  0.28209721  0.25636258  1
  Te  Te100  1  0.08303720  0.27989939  0.55132606  1
  Te  Te101  1  0.09061714  0.23423010  0.92444232  1
  Te  Te102  1  0.10110587  0.58442638  0.24016912  1
  Te  Te103  1  0.07935760  0.55739827  0.57210734  1
  Te  Te104  1  0.08640543  0.58141791  0.92554924  1
  Te  Te105  1  0.09290117  0.89336402  0.24897746  1
  Te  Te106  1  0.07034358  0.92463814  0.57145394  1
  Te  Te107  1  0.09886896  0.91781039  0.92647770  1
  Te  Te108  1  0.43145556  0.24634162  0.26524572  1
  Te  Te109  1  0.40137643  0.25073639  0.58798456  1
  Te  Te110  1  0.44666019  0.22405695  0.94156971  1
  Te  Te111  1  0.42977197  0.60873923  0.29233557  1
  Te  Te112  1  0.45228187  0.58784557  0.56513775  1
  Te  Te113  1  0.40565012  0.60917548  0.92924721  1
  Te  Te114  1  0.40282289  0.89785883  0.22533767  1
  Te  Te115  1  0.39888325  0.91881802  0.58465069  1
  Te  Te116  1  0.43683554  0.91036222  0.91413679  1
  Te  Te117  1  0.73572766  0.23125033  0.23603858  1
  Te  Te118  1  0.75540344  0.21973002  0.61679506  1
  Te  Te119  1  0.75123795  0.22818889  0.91133680  1
  Te  Te120  1  0.73855399  0.57638834  0.24031872  1
  Te  Te121  1  0.75207216  0.59283529  0.58577285  1
  Te  Te122  1  0.72120301  0.56774347  0.90137962  1
  Te  Te123  1  0.75896858  0.92306896  0.25180487  1
  Te  Te124  1  0.73812402  0.90074274  0.57549398  1
  Te  Te125  1  0.72390211  0.93868495  0.92019316  1
  Te  Te126  1  0.23492318  0.25747080  0.09403191  1
  Te  Te127  1  0.24990491  0.23984001  0.42455618  1
  Te  Te128  1  0.24402478  0.24507840  0.74612192  1
  Te  Te129  1  0.27448721  0.61239525  0.08897506  1
  Te  Te130  1  0.25382730  0.59201437  0.38716742  1
  Te  Te131  1  0.25250627  0.58560569  0.74649536  1
  Te  Te132  1  0.26378508  0.92129889  0.08612010  1
  Te  Te133  1  0.27619909  0.90855004  0.36985397  1
  Te  Te134  1  0.27960319  0.89236658  0.76942534  1
  Te  Te135  1  0.59034581  0.23034118  0.09437550  1
  Te  Te136  1  0.58695260  0.23116690  0.42385565  1
  Te  Te137  1  0.58164724  0.25311663  0.76405120  1
  Te  Te138  1  0.57416222  0.57289882  0.10936822  1
  Te  Te139  1  0.56913140  0.56580642  0.39747365  1
  Te  Te140  1  0.55410774  0.56657684  0.77412362  1
  Te  Te141  1  0.57894519  0.94545395  0.07591364  1
  Te  Te142  1  0.59127186  0.90002577  0.41102933  1
  Te  Te143  1  0.58063274  0.93115210  0.75128527  1
  Te  Te144  1  0.89672352  0.24591907  0.07257713  1
  Te  Te145  1  0.91259687  0.27192449  0.39826253  1
  Te  Te146  1  0.91784469  0.26558700  0.72942604  1
  Te  Te147  1  0.93096496  0.56885423  0.10133168  1
  Te  Te148  1  0.93379995  0.57598440  0.42442918  1
  Te  Te149  1  0.91257770  0.59197287  0.75317231  1
  Te  Te150  1  0.93029105  0.89810953  0.10827089  1
  Te  Te151  1  0.92086330  0.91615712  0.41183542  1
  Te  Te152  1  0.88831893  0.91045428  0.74202840  1
  Te  Te153  1  0.26425148  0.08487305  0.26016564  1
  Te  Te154  1  0.24180063  0.08056787  0.59080308  1
  Te  Te155  1  0.25160517  0.09631918  0.94169962  1
  Te  Te156  1  0.25049803  0.42367257  0.23482157  1
  Te  Te157  1  0.25807484  0.41482486  0.56668167  1
  Te  Te158  1  0.25406293  0.42263091  0.90898649  1
  Te  Te159  1  0.32793783  0.76865674  0.23274510  1
  Te  Te160  1  0.24308683  0.75244958  0.58529198  1
  Te  Te161  1  0.28235419  0.75892447  0.93057922  1
  Te  Te162  1  0.53649086  0.08155633  0.23946503  1
  Te  Te163  1  0.57897940  0.09185010  0.57244965  1
  Te  Te164  1  0.62042166  0.05445591  0.96709949  1
  Te  Te165  1  0.57626745  0.42895003  0.25004520  1
  Te  Te166  1  0.61200474  0.39332187  0.59057405  1
  Te  Te167  1  0.57214579  0.40811153  0.92247091  1
  Te  Te168  1  0.58478060  0.73927534  0.22325904  1
  Te  Te169  1  0.57626704  0.73380951  0.56689035  1
  Te  Te170  1  0.56774353  0.74702779  0.92947501  1
  Te  Te171  1  0.90835653  0.07502964  0.24188041  1
  Te  Te172  1  0.89098573  0.10449016  0.58842230  1
  Te  Te173  1  0.90543506  0.08121731  0.92692664  1
  Te  Te174  1  0.93153551  0.41714852  0.24851262  1
  Te  Te175  1  0.91007204  0.41662060  0.56187295  1
  Te  Te176  1  0.90319063  0.42026190  0.91685685  1
  Te  Te177  1  0.90554633  0.75600918  0.26900501  1
  Te  Te178  1  0.90493708  0.76215543  0.58635401  1
  Te  Te179  1  0.92267491  0.74644278  0.92037577  1
