# generated using pymatgen
data_In2Te3
_symmetry_space_group_name_H-M   'P 1'
_cell_length_a   18.77761883
_cell_length_b   18.78607057
_cell_length_c   18.78723114
_cell_angle_alpha   90.01757181
_cell_angle_beta   89.98867999
_cell_angle_gamma   90.02983231
_symmetry_Int_Tables_number   1
_chemical_formula_structural   In2Te3
_chemical_formula_sum   'In72 Te108'
_cell_volume   6627.33859117
_cell_formula_units_Z   36
loop_
 _symmetry_equiv_pos_site_id
 _symmetry_equiv_pos_as_xyz
  1  'x, y, z'
loop_
 _atom_site_type_symbol
 _atom_site_label
 _atom_site_symmetry_multiplicity
 _atom_site_fract_x
 _atom_site_fract_y
 _atom_site_fract_z
 _atom_site_occupancy
  In  In0  1  0.33144011  -0.01206027  0.34903518  1
  In  In1  1  0.67218755  0.49539909  0.48897718  1
  In  In2  1  0.00136809  0.81939766  0.17076358  1
  In  In3  1  0.82596814  0.14780516  0.34615883  1
  In  In4  1  -0.00524949  0.16641480  0.47826420  1
  In  In5  1  0.51040544  0.50324571  0.65855656  1
  In  In6  1  0.32888258  -0.00631592  -0.02291700  1
  In  In7  1  0.14984486  0.50056003  0.32018263  1
  In  In8  1  0.67530242  -0.01060556  0.66011845  1
  In  In9  1  0.67231970  0.66916683  -0.01151063  1
  In  In10  1  0.14414854  -0.00258737  0.17473877  1
  In  In11  1  0.84294026  0.68421063  0.48822628  1
  In  In12  1  0.15460535  0.82280812  -0.00801656  1
  In  In13  1  -0.00032739  0.15634915  0.84502539  1
  In  In14  1  -0.01823641  0.18215338  0.16727566  1
  In  In15  1  0.67994707  0.83829428  0.82916300  1
  In  In16  1  0.17365777  0.36473405  0.48913263  1
  In  In17  1  0.48194063  0.50824429  0.00928519  1
  In  In18  1  0.50318111  0.15224002  0.64905882  1
  In  In19  1  -0.01375154  -0.01550924  0.68487523  1
  In  In20  1  0.49917909  0.67207069  0.16907865  1
  In  In21  1  0.52169341  -0.00222123  0.15820053  1
  In  In22  1  0.80773692  0.16647017  0.66925238  1
  In  In23  1  0.66679813  0.32603716  0.32181695  1
  In  In24  1  0.47550965  0.71266997  0.79080628  1
  In  In25  1  0.48400993  0.14695215  0.31751126  1
  In  In26  1  0.00032633  0.84035872  0.84610638  1
  In  In27  1  0.83270485  0.34301327  0.16900758  1
  In  In28  1  0.66724616  0.83206477  0.16540289  1
  In  In29  1  0.49279005  0.32714674  0.84012821  1
  In  In30  1  0.00866495  0.35177253  0.67405927  1
  In  In31  1  0.13858316  0.49421358  0.02746813  1
  In  In32  1  0.30634502  0.34511645  0.33400397  1
  In  In33  1  0.87421928  0.52275700  0.01921317  1
  In  In34  1  0.83214238  -0.01520459  0.49825722  1
  In  In35  1  0.49557773  0.69502468  0.50447906  1
  In  In36  1  0.68590371  0.67144161  0.32342041  1
  In  In37  1  0.35648364  -0.03872773  0.67390908  1
  In  In38  1  0.34379346  0.33818776  -0.00041560  1
  In  In39  1  0.31193916  0.66624336  0.00760197  1
  In  In40  1  0.67686231  0.31236010  0.01527167  1
  In  In41  1  0.84500841  0.35627940  0.85012553  1
  In  In42  1  0.17240783  0.16209060  -0.00048160  1
  In  In43  1  0.16122838  0.68674676  0.52018403  1
  In  In44  1  0.17346909  -0.01448357  0.49585479  1
  In  In45  1  0.69108704  0.49122216  0.83839209  1
  In  In46  1  0.14482492  0.17748953  0.31853889  1
  In  In47  1  0.85367278  0.51536795  0.31562483  1
  In  In48  1  0.83833510  0.82357901  -0.00997784  1
  In  In49  1  0.33182577  0.67889133  0.33481643  1
  In  In50  1  0.32398517  0.50586639  0.52692351  1
  In  In51  1  0.84714347  0.30899127  0.51106175  1
  In  In52  1  0.66372410  0.68475335  0.67856737  1
  In  In53  1  0.34191800  0.18744803  0.16792722  1
  In  In54  1  0.50539397  0.49663926  0.30875184  1
  In  In55  1  0.35601739  0.15189227  0.50256547  1
  In  In56  1  0.49402139  0.32072616  0.49418686  1
  In  In57  1  0.82321936  -0.00867637  0.16521835  1
  In  In58  1  0.65095340  0.14380495  0.82302771  1
  In  In59  1  0.83434630  0.84289096  0.33896803  1
  In  In60  1  0.33023729  0.81872646  0.17702006  1
  In  In61  1  0.51263373  0.17738185  -0.00475122  1
  In  In62  1  0.17411373  0.84917095  0.66841682  1
  In  In63  1  0.84116926  0.50434890  0.67759142  1
  In  In64  1  0.01142270  0.67480426  0.33464610  1
  In  In65  1  0.83704779  0.14145797  0.00336285  1
  In  In66  1  0.15656311  0.33768719  0.82595255  1
  In  In67  1  0.49473823  -0.00249890  0.84028533  1
  In  In68  1  -0.00579743  0.65793984  0.64999792  1
  In  In69  1  0.32463380  0.52005840  0.82287455  1
  In  In70  1  0.16536489  0.65652779  0.84958866  1
  In  In71  1  0.16324134  0.17184876  0.67649286  1
  Te  Te72  1  0.06587707  0.08627877  0.07986549  1
  Te  Te73  1  0.08116278  0.06713896  0.40083195  1
  Te  Te74  1  0.09128656  0.06665659  0.76054772  1
  Te  Te75  1  0.05697295  0.40680029  0.11784917  1
  Te  Te76  1  0.06627536  0.40807602  0.40021435  1
  Te  Te77  1  0.08710185  0.44726814  0.75393628  1
  Te  Te78  1  0.07379940  0.72636017  0.07540691  1
  Te  Te79  1  0.08609232  0.76811797  0.42206357  1
  Te  Te80  1  0.08859619  0.74991808  0.74743015  1
  Te  Te81  1  0.41161746  0.08401067  0.07990127  1
  Te  Te82  1  0.44461870  0.04999002  0.43251866  1
  Te  Te83  1  0.41059974  0.08604594  0.74942331  1
  Te  Te84  1  0.42390299  0.40931975  0.10123702  1
  Te  Te85  1  0.41315039  0.43123515  0.42263581  1
  Te  Te86  1  0.41585255  0.42122988  0.74729660  1
  Te  Te87  1  0.42033897  0.75661157  0.07035539  1
  Te  Te88  1  0.41709801  0.78012788  0.40822257  1
  Te  Te89  1  0.37990748  0.78556540  0.70299371  1
  Te  Te90  1  0.73471135  0.08621580  0.09321674  1
  Te  Te91  1  0.73130535  0.07083995  0.43046475  1
  Te  Te92  1  0.76430088  0.05935237  0.76723968  1
  Te  Te93  1  0.75816949  0.43031770  0.06803164  1
  Te  Te94  1  0.76712509  0.41226701  0.40394824  1
  Te  Te95  1  0.74966795  0.39620552  0.73461330  1
  Te  Te96  1  0.76113154  0.73698079  0.09286631  1
  Te  Te97  1  0.73231974  0.77000738  0.42934352  1
  Te  Te98  1  0.77246758  0.74668852  0.75654282  1
  Te  Te99  1  0.08333182  0.27687448  0.22634534  1
  Te  Te100  1  0.08167445  0.25205512  0.57205904  1
  Te  Te101  1  0.07524247  0.25947398  0.92825372  1
  Te  Te102  1  0.06743109  0.58694257  0.22361035  1
  Te  Te103  1  0.09038941  0.57125189  0.57772837  1
  Te  Te104  1  0.06494424  0.57892672  0.92779171  1
  Te  Te105  1  0.08749842  0.89654162  0.26516184  1
  Te  Te106  1  0.06739586  0.91076717  0.57811556  1
  Te  Te107  1  0.08173113  0.93367285  0.92835666  1
  Te  Te108  1  0.42345885  0.27580735  0.26098951  1
  Te  Te109  1  0.40151395  0.26093584  0.59866189  1
  Te  Te110  1  0.39849209  0.22843741  0.90822238  1
  Te  Te111  1  0.39924181  0.57951159  0.23739412  1
  Te  Te112  1  0.41374142  0.60528420  0.60077874  1
  Te  Te113  1  0.42279015  0.60467597  0.90609879  1
  Te  Te114  1  0.42212595  0.91850726  0.24719638  1
  Te  Te115  1  0.44328172  0.91780060  0.56212536  1
  Te  Te116  1  0.41579541  0.89437262  0.91187221  1
  Te  Te117  1  0.75379649  0.23198192  0.23792722  1
  Te  Te118  1  0.73077698  0.23937374  0.56680043  1
  Te  Te119  1  0.74774412  0.24368172  0.89838097  1
  Te  Te120  1  0.74527331  0.57184461  0.23326550  1
  Te  Te121  1  0.74628044  0.59195682  0.58186188  1
  Te  Te122  1  0.77815598  0.59015012  0.91146104  1
  Te  Te123  1  0.72849034  0.92746235  0.26848715  1
  Te  Te124  1  0.76694963  0.89201256  0.59386795  1
  Te  Te125  1  0.74209244  0.92178426  0.93476599  1
  Te  Te126  1  0.23971451  0.26670699  0.08894192  1
  Te  Te127  1  0.24961158  0.23159529  0.42373117  1
  Te  Te128  1  0.25591536  0.25558399  0.75404080  1
  Te  Te129  1  0.24415204  0.57301911  0.09888822  1
  Te  Te130  1  0.24579161  0.58361939  0.42155787  1
  Te  Te131  1  0.23004606  0.58933904  0.73351647  1
  Te  Te132  1  0.24414417  0.91856004  0.08847881  1
  Te  Te133  1  0.25196354  0.88545984  0.41995050  1
  Te  Te134  1  0.25264649  0.92230187  0.77106204  1
  Te  Te135  1  0.57529373  0.25368057  0.10410478  1
  Te  Te136  1  0.58085956  0.23371243  0.40727396  1
  Te  Te137  1  0.58100936  0.25083609  0.74154626  1
  Te  Te138  1  0.59138961  0.58277227  0.08654407  1
  Te  Te139  1  0.57518881  0.58871484  0.41605656  1
  Te  Te140  1  0.58873041  0.58267710  0.76565405  1
  Te  Te141  1  0.58213515  0.89988631  0.06581786  1
  Te  Te142  1  0.55147167  0.86658108  0.46599601  1
  Te  Te143  1  0.57385287  0.91070872  0.74356324  1
  Te  Te144  1  0.90868803  0.26304144  0.06027193  1
  Te  Te145  1  0.92222190  0.26285152  0.38594817  1
  Te  Te146  1  0.91920295  0.25149800  0.74921723  1
  Te  Te147  1  0.96261601  0.60687003  0.10816070  1
  Te  Te148  1  0.93436327  0.57889902  0.42820129  1
  Te  Te149  1  0.92763283  0.58605473  0.76202419  1
  Te  Te150  1  0.92456563  0.91584961  0.08072945  1
  Te  Te151  1  0.93461537  0.92176233  0.41265248  1
  Te  Te152  1  0.89456315  0.88981344  0.75189711  1
  Te  Te153  1  0.25699921  0.08754914  0.25027540  1
  Te  Te154  1  0.25533633  0.07523637  0.58861097  1
  Te  Te155  1  0.24625698  0.08598865  0.89726743  1
  Te  Te156  1  0.24735903  0.43141201  0.23099870  1
  Te  Te157  1  0.24467033  0.41153098  0.60819476  1
  Te  Te158  1  0.24884215  0.43297114  0.92460611  1
  Te  Te159  1  0.22813208  0.74221730  0.24953385  1
  Te  Te160  1  0.27225109  0.76456197  0.58826862  1
  Te  Te161  1  0.26167246  0.76386003  0.90135762  1
  Te  Te162  1  0.59850798  0.07610394  0.25714587  1
  Te  Te163  1  0.60348063  0.08132566  0.56680894  1
  Te  Te164  1  0.59419472  0.06222001  0.93794290  1
  Te  Te165  1  0.60405565  0.42304657  0.22900849  1
  Te  Te166  1  0.59363753  0.40206112  0.58017808  1
  Te  Te167  1  0.58552684  0.41549534  0.92453949  1
  Te  Te168  1  0.57521875  0.75982083  0.26652033  1
  Te  Te169  1  0.58277605  0.78158937  0.59510062  1
  Te  Te170  1  0.57689526  0.75049993  0.90358138  1
  Te  Te171  1  0.92094945  0.07155177  0.25354408  1
  Te  Te172  1  0.92103698  0.09352501  0.59045976  1
  Te  Te173  1  0.91298581  0.05626440  0.91049727  1
  Te  Te174  1  0.94277061  0.43351609  0.22197320  1
  Te  Te175  1  0.92219667  0.42631510  0.57232782  1
  Te  Te176  1  0.94750705  0.43660140  0.92031175  1
  Te  Te177  1  0.89794853  0.73730727  0.25115545  1
  Te  Te178  1  0.91365891  0.76665913  0.58741855  1
  Te  Te179  1  0.93728977  0.73266253  0.92724243  1
