# generated using pymatgen
data_In2Te3
_symmetry_space_group_name_H-M   'P 1'
_cell_length_a   18.96444019
_cell_length_b   18.97049028
_cell_length_c   18.99274361
_cell_angle_alpha   89.97480635
_cell_angle_beta   90.22807217
_cell_angle_gamma   89.82767358
_symmetry_Int_Tables_number   1
_chemical_formula_structural   In2Te3
_chemical_formula_sum   'In72 Te108'
_cell_volume   6832.83350687
_cell_formula_units_Z   36
loop_
 _symmetry_equiv_pos_site_id
 _symmetry_equiv_pos_as_xyz
  1  'x, y, z'
loop_
 _atom_site_type_symbol
 _atom_site_label
 _atom_site_symmetry_multiplicity
 _atom_site_fract_x
 _atom_site_fract_y
 _atom_site_fract_z
 _atom_site_occupancy
  In  In0  1  0.31324858  0.00689714  0.35205052  1
  In  In1  1  0.00657010  -0.02349426  0.29566134  1
  In  In2  1  0.67709380  0.48815876  0.52097338  1
  In  In3  1  0.01426135  0.84026685  0.81087363  1
  In  In4  1  0.01209968  0.32571096  0.66730521  1
  In  In5  1  0.87100298  0.47526196  -0.02315351  1
  In  In6  1  0.29527506  0.80677376  0.52281351  1
  In  In7  1  0.84534169  0.16510242  0.65445175  1
  In  In8  1  0.64189674  0.69359230  0.33538929  1
  In  In9  1  0.48070329  0.13579605  0.33582690  1
  In  In10  1  0.85264779  0.00681288  0.82754540  1
  In  In11  1  0.66621663  0.16151953  0.50738949  1
  In  In12  1  0.52877990  0.83085355  0.00716359  1
  In  In13  1  0.15884195  0.48349832  0.34437169  1
  In  In14  1  -0.00672640  -0.01119150  0.02546444  1
  In  In15  1  -0.00092499  0.67300168  0.66526785  1
  In  In16  1  0.17785677  0.34480893  0.84403269  1
  In  In17  1  0.84078315  0.80976613  0.34322264  1
  In  In18  1  0.67121925  0.51769151  0.17199421  1
  In  In19  1  0.65844861  0.32080774  0.32502524  1
  In  In20  1  0.02081111  0.18320422  0.82345121  1
  In  In21  1  0.35636981  0.17282025  0.80903012  1
  In  In22  1  0.82915572  0.51012622  0.69947244  1
  In  In23  1  0.18207931  0.18379236  0.37339179  1
  In  In24  1  0.50378454  0.01071012  0.81205828  1
  In  In25  1  0.50270823  0.33904962  0.82285303  1
  In  In26  1  0.31607647  0.80862295  0.18421654  1
  In  In27  1  0.16428983  0.01037134  0.50608691  1
  In  In28  1  0.01285714  0.17727965  0.15909703  1
  In  In29  1  0.01324491  0.81847565  0.52017369  1
  In  In30  1  0.86667007  0.18830507  0.35136772  1
  In  In31  1  0.16015210  0.82717506  0.02458868  1
  In  In32  1  0.47217035  0.47514309  0.35343793  1
  In  In33  1  0.85731461  0.00703918  0.51693922  1
  In  In34  1  0.45844250  0.84571164  0.36677032  1
  In  In35  1  0.67661594  0.86622823  0.83750737  1
  In  In36  1  0.13071281  0.50823980  -0.00430600  1
  In  In37  1  0.16031336  0.01165203  0.81361012  1
  In  In38  1  0.68944694  0.81940314  0.17059040  1
  In  In39  1  0.50539238  0.14668400  0.66339821  1
  In  In40  1  0.49742993  0.47512729  0.66693265  1
  In  In41  1  0.31502688  0.31537633  0.65743270  1
  In  In42  1  0.50833331  0.63923700  0.51437229  1
  In  In43  1  0.81418769  0.14985742  0.00305582  1
  In  In44  1  0.16875416  0.34152883  0.16430819  1
  In  In45  1  0.85229107  0.47454598  0.33355306  1
  In  In46  1  0.48913460  0.31212484  0.15663427  1
  In  In47  1  0.31326160  0.64321450  -0.00367698  1
  In  In48  1  0.68172359  0.02033692  0.29803140  1
  In  In49  1  0.33335460  0.15458668  0.15330038  1
  In  In50  1  0.85935219  0.68596365  0.83294598  1
  In  In51  1  0.85896933  0.64725221  0.15888489  1
  In  In52  1  0.67872317  0.85953133  0.49703291  1
  In  In53  1  0.48847122  -0.02579808  0.48625412  1
  In  In54  1  0.29819714  0.67137161  0.32143030  1
  In  In55  1  0.65671758  0.68893855  0.68601277  1
  In  In56  1  0.68433935  0.17197949  0.83397082  1
  In  In57  1  -0.00767962  0.47795104  0.50357508  1
  In  In58  1  0.84004030  0.34152362  0.18457067  1
  In  In59  1  0.49098148  0.64600108  0.14507956  1
  In  In60  1  0.17711728  0.52109432  0.67379885  1
  In  In61  1  0.14766417  0.18315949  -0.00370025  1
  In  In62  1  0.32527722  0.49210557  0.51386798  1
  In  In63  1  0.68883318  0.65878837  0.01592903  1
  In  In64  1  0.31520062  0.83031546  0.82280627  1
  In  In65  1  0.46709871  0.67871854  0.84756232  1
  In  In66  1  0.66406262  0.49024178  0.83650056  1
  In  In67  1  0.00203092  0.65059214  0.36220509  1
  In  In68  1  0.31519295  0.50153323  0.15193687  1
  In  In69  1  0.52032622  -0.02173109  0.15776360  1
  In  In70  1  0.33386422  0.00043354  -0.01727978  1
  In  In71  1  0.53061138  0.19100651  -0.01467148  1
  Te  Te72  1  0.10197974  0.07482157  0.09053056  1
  Te  Te73  1  0.08143362  0.06852291  0.39101295  1
  Te  Te74  1  0.05503026  0.07444358  0.72901143  1
  Te  Te75  1  0.06491931  0.41852858  0.09284828  1
  Te  Te76  1  0.06581082  0.38517702  0.41248120  1
  Te  Te77  1  0.08775082  0.42674454  0.75339158  1
  Te  Te78  1  0.04397121  0.79389820  0.10921661  1
  Te  Te79  1  0.09623903  0.74270253  0.42690265  1
  Te  Te80  1  0.10901883  0.74876685  0.73723480  1
  Te  Te81  1  0.43607486  0.07820838  0.06779755  1
  Te  Te82  1  0.39350263  0.08800814  0.45053478  1
  Te  Te83  1  0.39260304  0.05839843  0.71809619  1
  Te  Te84  1  0.41550899  0.41850902  0.08739882  1
  Te  Te85  1  0.38670595  0.38128320  0.43104808  1
  Te  Te86  1  0.38937884  0.41121542  0.75071925  1
  Te  Te87  1  0.41064483  0.75434288  0.06951218  1
  Te  Te88  1  0.40512960  0.71866124  0.42621074  1
  Te  Te89  1  0.42599279  0.77269544  0.74512232  1
  Te  Te90  1  0.75518847  0.05072259  0.09160471  1
  Te  Te91  1  0.76202481  0.08037783  0.41210845  1
  Te  Te92  1  0.75192993  0.07740476  0.73789667  1
  Te  Te93  1  0.76985114  0.43933388  0.08974665  1
  Te  Te94  1  0.74901221  0.40163439  0.41570181  1
  Te  Te95  1  0.73202702  0.40836763  0.73717515  1
  Te  Te96  1  0.78843927  0.75528770  0.07519634  1
  Te  Te97  1  0.74739439  0.73794153  0.43607880  1
  Te  Te98  1  0.76602221  0.77201260  0.75041874  1
  Te  Te99  1  0.09535743  0.25139999  0.26030980  1
  Te  Te100  1  0.06802286  0.22363137  0.57411082  1
  Te  Te101  1  0.05755893  0.29178524  0.93452378  1
  Te  Te102  1  0.06599483  0.56330792  0.26119025  1
  Te  Te103  1  0.07841990  0.58055575  0.57351457  1
  Te  Te104  1  0.04849376  0.61974090  0.94128285  1
  Te  Te105  1  0.09550818  0.89381156  0.21247601  1
  Te  Te106  1  0.08246985  0.92639452  0.59381837  1
  Te  Te107  1  0.09441710  0.92850430  0.92152399  1
  Te  Te108  1  0.40178016  0.24096349  0.25797959  1
  Te  Te109  1  0.42755490  0.24842534  0.59217143  1
  Te  Te110  1  0.41214533  0.25899524  0.91895516  1
  Te  Te111  1  0.41481005  0.58676526  0.26119179  1
  Te  Te112  1  0.40391995  0.58279130  0.60659626  1
  Te  Te113  1  0.40901033  0.56602217  0.91762502  1
  Te  Te114  1  0.40619597  0.93170212  0.24895425  1
  Te  Te115  1  0.41123122  0.88277969  0.57094932  1
  Te  Te116  1  0.43722270  0.91195252  0.91485172  1
  Te  Te117  1  0.75703432  0.23366606  0.25214032  1
  Te  Te118  1  0.75463203  0.25220048  0.57749314  1
  Te  Te119  1  0.75340566  0.26005206  0.92769084  1
  Te  Te120  1  0.75186474  0.60903778  0.26091871  1
  Te  Te121  1  0.74435617  0.59435640  0.60383226  1
  Te  Te122  1  0.76972664  0.58319939  0.91159867  1
  Te  Te123  1  0.77982744  0.91439013  0.24866857  1
  Te  Te124  1  0.76185007  0.92891550  0.59439324  1
  Te  Te125  1  0.79203336  0.90722170  0.91568110  1
  Te  Te126  1  0.25611651  0.25768575  0.07166212  1
  Te  Te127  1  0.26169938  0.28427452  0.44445914  1
  Te  Te128  1  0.22782806  0.23440025  0.75309217  1
  Te  Te129  1  0.21589271  0.59988186  0.10023323  1
  Te  Te130  1  0.23767623  0.58273422  0.42821661  1
  Te  Te131  1  0.24592365  0.62808749  0.74624512  1
  Te  Te132  1  0.26503824  0.91969225  0.08797723  1
  Te  Te133  1  0.23389860  0.89918736  0.41822849  1
  Te  Te134  1  0.24270263  0.92145881  0.73327887  1
  Te  Te135  1  0.60768819  0.26531542  0.08404581  1
  Te  Te136  1  0.57137178  0.23343062  0.41140097  1
  Te  Te137  1  0.58967302  0.24627091  0.74090168  1
  Te  Te138  1  0.57892972  0.56223512  0.05747795  1
  Te  Te139  1  0.59149128  0.56839401  0.40698366  1
  Te  Te140  1  0.57033931  0.58250488  0.75201435  1
  Te  Te141  1  0.63125040  0.92333520  0.06840633  1
  Te  Te142  1  0.59562008  0.91829350  0.37691161  1
  Te  Te143  1  0.57785256  0.90773618  0.73904974  1
  Te  Te144  1  0.90471568  0.24951887  0.08316079  1
  Te  Te145  1  0.93054489  0.30793228  0.40284232  1
  Te  Te146  1  0.90519283  0.25811175  0.76008636  1
  Te  Te147  1  0.94520378  0.58506341  0.05005525  1
  Te  Te148  1  0.89410136  0.57472837  0.43725255  1
  Te  Te149  1  0.94497807  0.57703744  0.77008558  1
  Te  Te150  1  0.87523586  0.96008472  0.10818800  1
  Te  Te151  1  0.92495709  0.91484231  0.41422543  1
  Te  Te152  1  0.94276684  0.94108414  0.72889755  1
  Te  Te153  1  0.24007492  0.09466680  0.25544023  1
  Te  Te154  1  0.20250336  0.15163894  0.54391749  1
  Te  Te155  1  0.25156609  0.10413367  0.91006641  1
  Te  Te156  1  0.26357314  0.41114139  0.26036842  1
  Te  Te157  1  0.21911939  0.40563484  0.58019900  1
  Te  Te158  1  0.24421835  0.44810450  0.92319129  1
  Te  Te159  1  0.19586361  0.75367539  0.25040575  1
  Te  Te160  1  0.22959982  0.73110629  0.63308203  1
  Te  Te161  1  0.23306442  0.74637370  0.91940545  1
  Te  Te162  1  0.57850994  0.10225171  0.22400937  1
  Te  Te163  1  0.58514359  0.05334479  0.57443182  1
  Te  Te164  1  0.59681285  0.07645698  0.91282485  1
  Te  Te165  1  0.57720371  0.42542149  0.24693583  1
  Te  Te166  1  0.56450747  0.40412360  0.55843246  1
  Te  Te167  1  0.58919794  0.40089069  0.92433080  1
  Te  Te168  1  0.56065273  0.75768909  0.22456006  1
  Te  Te169  1  0.58614229  0.75618132  0.56843126  1
  Te  Te170  1  0.60256205  0.73625352  0.91513475  1
  Te  Te171  1  0.92098252  0.09330927  0.24589507  1
  Te  Te172  1  0.94668127  0.12201457  0.55152981  1
  Te  Te173  1  0.94131083  0.09695795  0.92288300  1
  Te  Te174  1  0.94648718  0.43741248  0.22720224  1
  Te  Te175  1  0.90357893  0.41280636  0.60460135  1
  Te  Te176  1  0.94005832  0.38368439  0.88774438  1
  Te  Te177  1  0.93666238  0.74209130  0.24981934  1
  Te  Te178  1  0.90304043  0.75135366  0.58871538  1
  Te  Te179  1  0.95496536  0.75880422  0.92046662  1
