# generated using pymatgen
data_In2Te3
_symmetry_space_group_name_H-M   'P 1'
_cell_length_a   18.90704005
_cell_length_b   18.94152065
_cell_length_c   18.91200743
_cell_angle_alpha   89.95354729
_cell_angle_beta   89.91882350
_cell_angle_gamma   90.17217964
_symmetry_Int_Tables_number   1
_chemical_formula_structural   In2Te3
_chemical_formula_sum   'In72 Te108'
_cell_volume   6772.88146222
_cell_formula_units_Z   36
loop_
 _symmetry_equiv_pos_site_id
 _symmetry_equiv_pos_as_xyz
  1  'x, y, z'
loop_
 _atom_site_type_symbol
 _atom_site_label
 _atom_site_symmetry_multiplicity
 _atom_site_fract_x
 _atom_site_fract_y
 _atom_site_fract_z
 _atom_site_occupancy
  In  In0  1  0.84624249  -0.02528691  0.84531129  1
  In  In1  1  0.04106436  0.33914619  0.34467676  1
  In  In2  1  0.17965015  0.64241606  0.45155240  1
  In  In3  1  0.84608852  0.34611091  0.85947801  1
  In  In4  1  0.47338347  0.49016168  0.31941086  1
  In  In5  1  -0.01687414  0.84608272  0.82374753  1
  In  In6  1  -0.02089091  0.67943808  0.30747144  1
  In  In7  1  0.66892287  0.51292373  0.51948183  1
  In  In8  1  0.64283479  0.34950796  0.31634242  1
  In  In9  1  0.64482319  0.34358238  0.69582534  1
  In  In10  1  0.33473524  0.17395854  0.49239922  1
  In  In11  1  0.31769367  0.30198344  0.27558610  1
  In  In12  1  0.35249745  -0.01066121  0.00911281  1
  In  In13  1  0.15232790  0.84835097  0.65023703  1
  In  In14  1  0.01331927  0.64666748  0.65717043  1
  In  In15  1  0.84110320  0.32286022  0.49024154  1
  In  In16  1  0.34190739  0.00331837  0.63869879  1
  In  In17  1  0.47408985  0.34612632  0.48797986  1
  In  In18  1  0.30440802  0.49459391  0.86148691  1
  In  In19  1  0.66381690  0.66568153  0.68320860  1
  In  In20  1  0.00962033  0.18368426  0.82230244  1
  In  In21  1  0.50111719  0.18172568  0.00428692  1
  In  In22  1  0.48362366  0.01644260  0.87995841  1
  In  In23  1  0.66928299  0.33683881  0.02085361  1
  In  In24  1  0.86428516  0.18998873  0.32475690  1
  In  In25  1  0.20220311  0.16529458  0.06918222  1
  In  In26  1  -0.01213426  0.49384415  0.16857270  1
  In  In27  1  0.01025309  -0.00725340  0.00839734  1
  In  In28  1  0.84465969  0.83319780  0.66670841  1
  In  In29  1  0.42974508  0.50320390  0.66386601  1
  In  In30  1  0.13724774  0.64953814  0.86876173  1
  In  In31  1  0.66661378  0.50975130  0.85503724  1
  In  In32  1  0.51802788  0.83435987  0.32499061  1
  In  In33  1  0.00978418  0.33185727  0.00328150  1
  In  In34  1  0.69109501  0.15169188  0.49475275  1
  In  In35  1  0.84548824  0.65955615  0.83302306  1
  In  In36  1  0.31726212  0.18138220  0.81678106  1
  In  In37  1  0.15307049  0.65756586  0.17752658  1
  In  In38  1  0.15273803  0.02588061  0.83582733  1
  In  In39  1  0.02549636  0.47840298  0.49062771  1
  In  In40  1  0.15988842  -0.00558970  0.47883996  1
  In  In41  1  0.84653657  0.81262304  0.02257359  1
  In  In42  1  0.33067097  0.87286791  0.86408441  1
  In  In43  1  0.14524586  0.83089029  0.31850050  1
  In  In44  1  0.16328817  0.79441303  0.01978614  1
  In  In45  1  0.32809747  0.65150067  0.68515275  1
  In  In46  1  0.47482869  0.51975925  0.13047338  1
  In  In47  1  0.66450185  0.65319990  0.30428339  1
  In  In48  1  0.02132165  0.34527241  0.65631816  1
  In  In49  1  0.85723344  -0.00167314  0.49186770  1
  In  In50  1  0.34627529  0.82812877  0.15259227  1
  In  In51  1  0.82526024  0.15156556  0.66380102  1
  In  In52  1  0.52909363  0.83260641  0.65522782  1
  In  In53  1  0.14901132  0.34706438  0.82772606  1
  In  In54  1  0.64739645  0.83750410  0.87070679  1
  In  In55  1  0.49200194  0.65503437  0.52308818  1
  In  In56  1  0.80714705  0.14887263  0.01317390  1
  In  In57  1  0.50218959  0.32819877  0.84550818  1
  In  In58  1  0.69145277  -0.01780617  0.68293328  1
  In  In59  1  0.34117445  0.65633845  0.02137817  1
  In  In60  1  0.32223248  0.81993399  0.47712940  1
  In  In61  1  -0.03165523  -0.01797452  0.30188874  1
  In  In62  1  0.52293789  -0.00871706  0.15603861  1
  In  In63  1  0.81688993  0.67681200  0.48955257  1
  In  In64  1  0.50486769  0.17983215  0.65293498  1
  In  In65  1  0.69309537  -0.03051868  0.29391226  1
  In  In66  1  0.83174099  0.34052036  0.16495972  1
  In  In67  1  0.49592698  0.16814912  0.33122209  1
  In  In68  1  0.51130942  0.68231579  0.84138927  1
  In  In69  1  0.16339485  0.15407870  0.29201057  1
  In  In70  1  0.50361412  0.02364829  0.46787143  1
  In  In71  1  0.82447177  0.52772391  0.32586100  1
  Te  Te72  1  0.07974415  0.08749709  0.09748169  1
  Te  Te73  1  0.07472017  0.06881523  0.37938160  1
  Te  Te74  1  0.07948869  0.09265749  0.72961939  1
  Te  Te75  1  0.08155999  0.38653637  0.12389371  1
  Te  Te76  1  0.13903183  0.42008634  0.41823989  1
  Te  Te77  1  0.04957616  0.43949623  0.76812745  1
  Te  Te78  1  0.05376425  0.75616147  0.11422048  1
  Te  Te79  1  0.07355647  0.74251675  0.41784722  1
  Te  Te80  1  0.08689469  0.75282179  0.75268763  1
  Te  Te81  1  0.42154185  0.09110491  0.09892716  1
  Te  Te82  1  0.38833452  0.07609598  0.38710994  1
  Te  Te83  1  0.41626575  0.08286416  0.74784223  1
  Te  Te84  1  0.37203386  0.42036861  0.09045235  1
  Te  Te85  1  0.37562911  0.40007717  0.39193878  1
  Te  Te86  1  0.39097182  0.40184718  0.77396343  1
  Te  Te87  1  0.44730063  0.73153380  0.09733779  1
  Te  Te88  1  0.43086871  0.73986648  0.41058901  1
  Te  Te89  1  0.42543385  0.76077229  0.74110981  1
  Te  Te90  1  0.69690903  0.07672032  0.07668810  1
  Te  Te91  1  0.76447693  0.07831660  0.38711586  1
  Te  Te92  1  0.75352898  0.08064244  0.77758758  1
  Te  Te93  1  0.76412917  0.43621546  0.07623866  1
  Te  Te94  1  0.73813987  0.41902400  0.41867983  1
  Te  Te95  1  0.75236630  0.42573183  0.76101229  1
  Te  Te96  1  0.77542749  0.72909154  0.12404255  1
  Te  Te97  1  0.75034118  0.75088208  0.38029230  1
  Te  Te98  1  0.74484284  0.76963825  0.76511808  1
  Te  Te99  1  0.07541598  0.25735929  0.22605857  1
  Te  Te100  1  0.14175438  0.29068371  0.59942776  1
  Te  Te101  1  0.10250700  0.23461532  0.93045556  1
  Te  Te102  1  0.07475074  0.56809922  0.27201218  1
  Te  Te103  1  0.11589015  0.57192487  0.57298736  1
  Te  Te104  1  0.08198920  0.57378600  0.98332213  1
  Te  Te105  1  0.05923819  0.89625369  0.21882769  1
  Te  Te106  1  0.06302344  0.91665396  0.55863954  1
  Te  Te107  1  0.09836725  0.90529966  0.91300404  1
  Te  Te108  1  0.46225854  0.27475265  0.23533413  1
  Te  Te109  1  0.39703534  0.26652132  0.59643142  1
  Te  Te110  1  0.39393712  0.25628369  0.92529812  1
  Te  Te111  1  0.39063109  0.58829531  0.24146004  1
  Te  Te112  1  0.36528243  0.56480967  0.53401527  1
  Te  Te113  1  0.41777099  0.58319963  0.91215674  1
  Te  Te114  1  0.42121535  0.92068818  0.24704845  1
  Te  Te115  1  0.43096018  0.90994384  0.55886719  1
  Te  Te116  1  0.45539887  0.87902268  0.95618365  1
  Te  Te117  1  0.74040911  0.25458003  0.25309255  1
  Te  Te118  1  0.73567982  0.26525792  0.59424098  1
  Te  Te119  1  0.74316650  0.25210015  0.91923444  1
  Te  Te120  1  0.75322033  0.57885118  0.20685394  1
  Te  Te121  1  0.76839120  0.58522960  0.60796423  1
  Te  Te122  1  0.76549919  0.58556621  0.93285966  1
  Te  Te123  1  0.77353793  0.88373647  0.20308206  1
  Te  Te124  1  0.75516198  0.90756567  0.56974129  1
  Te  Te125  1  0.75304544  0.91214082  0.94749723  1
  Te  Te126  1  0.28212423  0.28503277  0.12282079  1
  Te  Te127  1  0.24009693  0.23913153  0.39465634  1
  Te  Te128  1  0.21706237  0.25312340  0.72972291  1
  Te  Te129  1  0.22071913  0.57916246  0.06739498  1
  Te  Te130  1  0.27792501  0.60515214  0.35056922  1
  Te  Te131  1  0.21988271  0.57648629  0.76457612  1
  Te  Te132  1  0.23939483  0.90977814  0.08126194  1
  Te  Te133  1  0.25262058  0.91791206  0.38624582  1
  Te  Te134  1  0.25565014  0.92558110  0.74097232  1
  Te  Te135  1  0.57059040  0.26449597  0.10656269  1
  Te  Te136  1  0.58465180  0.24696012  0.43641890  1
  Te  Te137  1  0.58764088  0.22486999  0.77268967  1
  Te  Te138  1  0.56484339  0.61490702  0.06241806  1
  Te  Te139  1  0.57252993  0.57094527  0.41639815  1
  Te  Te140  1  0.56369579  0.57115707  0.74512388  1
  Te  Te141  1  0.57720082  0.90879299  0.04805709  1
  Te  Te142  1  0.60290933  0.92525037  0.41383119  1
  Te  Te143  1  0.57333694  0.92974239  0.77000312  1
  Te  Te144  1  0.90717099  0.24200465  0.07801407  1
  Te  Te145  1  0.95687789  0.24478863  0.43347599  1
  Te  Te146  1  0.90506532  0.25934048  0.74024197  1
  Te  Te147  1  0.97111081  0.61604164  0.08625928  1
  Te  Te148  1  0.92242290  0.58347628  0.42834066  1
  Te  Te149  1  0.94183887  0.57061972  0.76301242  1
  Te  Te150  1  0.89974661  0.93523398  0.09132693  1
  Te  Te151  1  0.91337113  0.89425740  0.40706922  1
  Te  Te152  1  0.93065845  0.94541933  0.72151177  1
  Te  Te153  1  0.25034725  0.09068657  0.19053633  1
  Te  Te154  1  0.23669819  0.08827512  0.57389399  1
  Te  Te155  1  0.26147193  0.08390287  0.92385033  1
  Te  Te156  1  0.26916126  0.42597578  0.20437313  1
  Te  Te157  1  0.30308070  0.44970832  0.60779253  1
  Te  Te158  1  0.21735204  0.40845687  0.94261149  1
  Te  Te159  1  0.25504917  0.74955441  0.24740429  1
  Te  Te160  1  0.25055560  0.74795059  0.58968016  1
  Te  Te161  1  0.26223069  0.74403940  0.90808423  1
  Te  Te162  1  0.59636516  0.08306118  0.25487438  1
  Te  Te163  1  0.59457244  0.06991957  0.59221534  1
  Te  Te164  1  0.60138070  0.07880410  0.95538441  1
  Te  Te165  1  0.58415062  0.44930662  0.22196238  1
  Te  Te166  1  0.56615251  0.42080402  0.58886137  1
  Te  Te167  1  0.57211907  0.42400973  0.93869796  1
  Te  Te168  1  0.58288116  0.74750565  0.22539884  1
  Te  Te169  1  0.60955292  0.74446080  0.56299581  1
  Te  Te170  1  0.61778379  0.71074243  0.94629837  1
  Te  Te171  1  0.89563854  0.08697921  0.22639486  1
  Te  Te172  1  0.92401752  0.10594667  0.56649620  1
  Te  Te173  1  0.92341865  0.08806264  0.91387175  1
  Te  Te174  1  0.91122745  0.41036069  0.28172342  1
  Te  Te175  1  0.91322659  0.42230156  0.57833200  1
  Te  Te176  1  0.92721109  0.43620280  0.94061380  1
  Te  Te177  1  0.86212788  0.75821811  0.25149243  1
  Te  Te178  1  0.92591284  0.74225382  0.57865406  1
  Te  Te179  1  0.93736113  0.74175399  0.92318955  1
