# generated using pymatgen
data_In2Te3
_symmetry_space_group_name_H-M   'P 1'
_cell_length_a   18.98045775
_cell_length_b   19.01272839
_cell_length_c   18.99817947
_cell_angle_alpha   89.76357100
_cell_angle_beta   90.03752153
_cell_angle_gamma   90.07717212
_symmetry_Int_Tables_number   1
_chemical_formula_structural   In2Te3
_chemical_formula_sum   'In72 Te108'
_cell_volume   6855.81245838
_cell_formula_units_Z   36
loop_
 _symmetry_equiv_pos_site_id
 _symmetry_equiv_pos_as_xyz
  1  'x, y, z'
loop_
 _atom_site_type_symbol
 _atom_site_label
 _atom_site_symmetry_multiplicity
 _atom_site_fract_x
 _atom_site_fract_y
 _atom_site_fract_z
 _atom_site_occupancy
  In  In0  1  0.33735674  0.14243645  0.81107149  1
  In  In1  1  0.34587657  0.33686454  0.34467148  1
  In  In2  1  0.84315021  0.68210696  0.13056681  1
  In  In3  1  0.67841992  0.82150936  0.82069320  1
  In  In4  1  0.83172783  0.14735990  0.66986498  1
  In  In5  1  -0.02949054  0.50204147  0.17487269  1
  In  In6  1  0.17199512  0.30871603  0.82054221  1
  In  In7  1  0.50955584  0.85040956  0.35310182  1
  In  In8  1  0.22805151  0.15898296  0.63286739  1
  In  In9  1  0.33488105  0.83751716  0.12614469  1
  In  In10  1  0.64607215  0.17459910  0.50665988  1
  In  In11  1  0.52005709  0.67575836  0.49981834  1
  In  In12  1  0.78619182  0.43963477  -0.03079387  1
  In  In13  1  0.35449015  0.70062891  0.30972564  1
  In  In14  1  -0.00792365  0.86524565  0.18296501  1
  In  In15  1  0.52709917  0.65909979  0.17715649  1
  In  In16  1  0.65217462  0.48814828  0.18076599  1
  In  In17  1  0.33005622  0.02586662  0.00094452  1
  In  In18  1  0.65589754  0.02379406  0.66000352  1
  In  In19  1  0.65123207  0.15489680  0.16529573  1
  In  In20  1  0.66992776  0.85896823  0.50292518  1
  In  In21  1  0.01716171  0.00844151  0.68138805  1
  In  In22  1  0.16658313  0.48031753  0.01034270  1
  In  In23  1  0.19840763  0.13235579  0.32568532  1
  In  In24  1  0.80705796  0.33078717  0.17200771  1
  In  In25  1  0.46102218  0.15944505  0.37235243  1
  In  In26  1  0.65307958  0.65637929  -0.02097020  1
  In  In27  1  0.14527069  0.64821721  0.14203053  1
  In  In28  1  0.37892882  0.66090834  -0.11253164  1
  In  In29  1  0.19064700  0.53305573  0.68883153  1
  In  In30  1  0.14454258  0.16031719  0.01130129  1
  In  In31  1  0.50992728  0.49993718  0.66491190  1
  In  In32  1  0.16410150  -0.08769359  0.80197986  1
  In  In33  1  0.01560125  0.17892821  0.46409559  1
  In  In34  1  0.84888773  -0.00800168  0.49355486  1
  In  In35  1  0.47363682  0.01277192  0.17507954  1
  In  In36  1  0.00234638  0.13281333  0.19039890  1
  In  In37  1  0.83213507  0.83450111  0.33845186  1
  In  In38  1  0.85380963  0.65737066  0.52221571  1
  In  In39  1  0.49211191  -0.00008499  0.82703169  1
  In  In40  1  0.19934375  -0.01351863  0.52699777  1
  In  In41  1  0.65246963  0.01795970  0.00609945  1
  In  In42  1  0.82911901  0.01415853  0.83932021  1
  In  In43  1  0.66732301  -0.01426524  0.34374269  1
  In  In44  1  0.50057074  0.30865747  0.18844836  1
  In  In45  1  0.17710572  0.84147857  0.33169149  1
  In  In46  1  -0.00689706  0.49950010  0.51555008  1
  In  In47  1  0.33717720  0.49078373  0.18648899  1
  In  In48  1  0.02879562  0.51174914  0.82048324  1
  In  In49  1  0.16302168  0.85321594  -0.02085769  1
  In  In50  1  0.35159990  0.52591065  0.50397377  1
  In  In51  1  0.20943230  0.69561082  0.51064737  1
  In  In52  1  -0.01615861  0.32101485  0.65441621  1
  In  In53  1  0.68204269  0.64501902  0.33498296  1
  In  In54  1  0.03804839  0.68962101  0.66655425  1
  In  In55  1  0.51591290  0.84000873  -0.00111297  1
  In  In56  1  0.84106896  0.18295451  0.33028675  1
  In  In57  1  0.62152621  0.31025406  0.69355806  1
  In  In58  1  0.02296861  0.66812379  0.34961048  1
  In  In59  1  -0.07809653  0.30660793  -0.01809940  1
  In  In60  1  0.00982480  0.14652626  0.83450089  1
  In  In61  1  0.68540055  0.68061171  0.65414051  1
  In  In62  1  0.81841083  0.50269770  0.68203049  1
  In  In63  1  0.20134288  0.46804229  0.37918010  1
  In  In64  1  0.83915170  0.81806111  0.00452085  1
  In  In65  1  0.25097476  0.75277450  0.77459598  1
  In  In66  1  0.14639687  0.29656300  0.15620342  1
  In  In67  1  0.65745317  0.49822233  0.82577137  1
  In  In68  1  0.18425366  0.35587504  0.51859086  1
  In  In69  1  0.01363590  0.69107194  -0.03539548  1
  In  In70  1  0.77538193  0.44517599  0.35661217  1
  In  In71  1  0.35650088  0.33798072  -0.02169737  1
  Te  Te72  1  0.04556682  0.06786853  0.06587936  1
  Te  Te73  1  0.10848348  0.06713441  0.42926231  1
  Te  Te74  1  0.11555082  0.10956959  0.73313230  1
  Te  Te75  1  0.06364035  0.40876040  0.09482598  1
  Te  Te76  1  0.07099645  0.40633231  0.42474431  1
  Te  Te77  1  0.09190648  0.41078364  0.72548748  1
  Te  Te78  1  0.07139152  0.76903676  0.08398818  1
  Te  Te79  1  0.09618133  0.76688763  0.43685951  1
  Te  Te80  1  0.09692356  0.77493353  0.77373332  1
  Te  Te81  1  0.42844686  0.10949965  0.07279728  1
  Te  Te82  1  0.35588431  0.05459554  0.38665228  1
  Te  Te83  1  0.43720263  0.08606602  0.71599402  1
  Te  Te84  1  0.42386376  0.40877665  0.09489045  1
  Te  Te85  1  0.42237774  0.41551620  0.44082725  1
  Te  Te86  1  0.44928495  0.42722240  0.78163902  1
  Te  Te87  1  0.43703296  0.73620685  0.08024779  1
  Te  Te88  1  0.41352942  0.76391461  0.43281884  1
  Te  Te89  1  0.38962653  0.81539301  0.75396427  1
  Te  Te90  1  0.75271094  0.09380898  0.08172592  1
  Te  Te91  1  0.74530373  0.08438766  0.42981523  1
  Te  Te92  1  0.72624261  0.10203492  0.76896462  1
  Te  Te93  1  0.69736034  0.38357839  0.08167541  1
  Te  Te94  1  0.68138713  0.37696807  0.44246199  1
  Te  Te95  1  0.73908267  0.39558853  0.75150303  1
  Te  Te96  1  0.71944953  0.75041236  0.07713333  1
  Te  Te97  1  0.74927091  0.74904958  0.43540815  1
  Te  Te98  1  0.77843882  0.74483365  0.74630978  1
  Te  Te99  1  0.08332490  0.22965813  0.27403500  1
  Te  Te100  1  0.09605490  0.24565932  0.58490576  1
  Te  Te101  1  0.06666037  0.26814349  0.92179359  1
  Te  Te102  1  0.08588179  0.56648131  0.25531307  1
  Te  Te103  1  0.10905800  0.58513863  0.56611729  1
  Te  Te104  1  0.11505800  0.59070599  0.91454530  1
  Te  Te105  1  0.10017529  0.94155276  0.25230864  1
  Te  Te106  1  0.09157147  0.91518337  0.59611757  1
  Te  Te107  1  0.06554299  0.93577123  0.90773066  1
  Te  Te108  1  0.39008707  0.22586906  0.25340999  1
  Te  Te109  1  0.33584506  0.22497543  0.54623691  1
  Te  Te110  1  0.42531267  0.23389991  0.89451018  1
  Te  Te111  1  0.43186992  0.57906919  0.26560932  1
  Te  Te112  1  0.42254888  0.61425694  0.60094675  1
  Te  Te113  1  0.45069291  0.53011451  0.89899704  1
  Te  Te114  1  0.40774711  0.89511827  0.24400454  1
  Te  Te115  1  0.37628104  0.88139118  0.62064243  1
  Te  Te116  1  0.40862402  0.91988825  0.92798142  1
  Te  Te117  1  0.72175369  0.24656685  0.26427566  1
  Te  Te118  1  0.73463321  0.24402890  0.60715122  1
  Te  Te119  1  0.78031056  0.29365450  0.94263918  1
  Te  Te120  1  0.76162612  0.58486357  0.22124495  1
  Te  Te121  1  0.74060069  0.56852032  0.56932150  1
  Te  Te122  1  0.75926967  0.57934321  0.90672086  1
  Te  Te123  1  0.74621435  0.91006545  0.24828487  1
  Te  Te124  1  0.76127755  0.92907858  0.60005861  1
  Te  Te125  1  0.73703673  0.91469616  0.92421122  1
  Te  Te126  1  0.25405123  0.25339615  0.06136782  1
  Te  Te127  1  0.24115138  0.25052887  0.41892279  1
  Te  Te128  1  0.28526680  0.26434730  0.73402016  1
  Te  Te129  1  0.26392126  0.57385005  0.08224748  1
  Te  Te130  1  0.25915209  0.60715807  0.39339866  1
  Te  Te131  1  0.28941246  0.60100173  0.77480102  1
  Te  Te132  1  0.23215259  0.94495773  0.09030142  1
  Te  Te133  1  0.27451494  0.91797529  0.41403832  1
  Te  Te134  1  0.29170333  0.94599953  0.73320267  1
  Te  Te135  1  0.55474226  0.22587592  0.07796289  1
  Te  Te136  1  0.56269533  0.25986616  0.41694079  1
  Te  Te137  1  0.55398817  0.24312779  0.80666068  1
  Te  Te138  1  0.57549373  0.56433851  0.07035012  1
  Te  Te139  1  0.58449684  0.57491109  0.41728585  1
  Te  Te140  1  0.58829639  0.60363067  0.74234406  1
  Te  Te141  1  0.57820383  0.92768835  0.10448575  1
  Te  Te142  1  0.55939343  0.94980200  0.45381509  1
  Te  Te143  1  0.58742516  0.91634084  0.74293478  1
  Te  Te144  1  0.91840749  0.24554842  0.11935808  1
  Te  Te145  1  0.89926554  0.26256397  0.43753809  1
  Te  Te146  1  0.91256822  0.24080977  0.75819357  1
  Te  Te147  1  0.93819621  0.59119216  0.05689286  1
  Te  Te148  1  0.91530567  0.57779071  0.40946024  1
  Te  Te149  1  0.93787868  0.58637752  0.72549051  1
  Te  Te150  1  0.89947484  0.92279308  0.08636293  1
  Te  Te151  1  0.93443964  0.90721622  0.41211505  1
  Te  Te152  1  0.90554139  0.93622458  0.74293558  1
  Te  Te153  1  0.22177009  0.04901988  0.20844289  1
  Te  Te154  1  0.32842300  0.07424580  0.54251015  1
  Te  Te155  1  0.23088037  0.08939262  0.90737200  1
  Te  Te156  1  0.23262258  0.39646675  0.24367199  1
  Te  Te157  1  0.27635049  0.43996345  0.60597133  1
  Te  Te158  1  0.24819657  0.41323342  0.90111094  1
  Te  Te159  1  0.23882720  0.74832074  0.21914019  1
  Te  Te160  1  0.25120589  0.78367770  0.62045793  1
  Te  Te161  1  0.26190845  0.75200785  0.93456401  1
  Te  Te162  1  0.56480748  0.08030345  0.27946230  1
  Te  Te163  1  0.54948604  0.11083467  0.60089129  1
  Te  Te164  1  0.57802113  0.09453279  0.90321490  1
  Te  Te165  1  0.56442034  0.41252381  0.26946406  1
  Te  Te166  1  0.58698258  0.40387349  0.58197410  1
  Te  Te167  1  0.55626681  0.41235031  0.89496672  1
  Te  Te168  1  0.59572353  0.75469467  0.27194245  1
  Te  Te169  1  0.58258495  0.77552503  0.59450978  1
  Te  Te170  1  0.56570323  0.74498518  0.89211270  1
  Te  Te171  1  0.90790067  0.06452386  0.28008515  1
  Te  Te172  1  0.93490672  0.09491907  0.57086753  1
  Te  Te173  1  0.90280559  0.10677376  0.92648819  1
  Te  Te174  1  0.89663383  0.40831461  0.26740803  1
  Te  Te175  1  0.88793944  0.41131392  0.58011107  1
  Te  Te176  1  0.92316205  0.43590364  0.89410723  1
  Te  Te177  1  0.92870801  0.73502025  0.24966084  1
  Te  Te178  1  0.93557587  0.75811161  0.58706098  1
  Te  Te179  1  0.90502583  0.75386828  0.89062572  1
