# generated using pymatgen
data_In2Te3
_symmetry_space_group_name_H-M   'P 1'
_cell_length_a   18.98699628
_cell_length_b   18.97914617
_cell_length_c   18.96688819
_cell_angle_alpha   89.95669759
_cell_angle_beta   89.94130282
_cell_angle_gamma   90.08261331
_symmetry_Int_Tables_number   1
_chemical_formula_structural   In2Te3
_chemical_formula_sum   'In72 Te108'
_cell_volume   6834.83785483
_cell_formula_units_Z   36
loop_
 _symmetry_equiv_pos_site_id
 _symmetry_equiv_pos_as_xyz
  1  'x, y, z'
loop_
 _atom_site_type_symbol
 _atom_site_label
 _atom_site_symmetry_multiplicity
 _atom_site_fract_x
 _atom_site_fract_y
 _atom_site_fract_z
 _atom_site_occupancy
  In  In0  1  -0.01179962  0.82750556  0.83491760  1
  In  In1  1  0.81013471  -0.02822181  0.85260999  1
  In  In2  1  0.50617216  0.66805613  0.51468432  1
  In  In3  1  0.33753771  0.33594340  0.35014642  1
  In  In4  1  0.51210568  -0.01974970  0.85983128  1
  In  In5  1  0.66229806  -0.02127400  0.67386498  1
  In  In6  1  -0.01860225  0.12034521  0.16764988  1
  In  In7  1  0.82715319  0.33260426  0.48507830  1
  In  In8  1  0.66893138  0.66292472  0.34186488  1
  In  In9  1  0.16551111  0.85315429  0.00147118  1
  In  In10  1  0.35438721  0.86642339  0.50841879  1
  In  In11  1  -0.03245670  0.65193605  0.00796994  1
  In  In12  1  0.66900883  0.16768130  0.16042119  1
  In  In13  1  0.01152264  0.14293444  0.52871922  1
  In  In14  1  -0.01594556  0.32562356  0.67890811  1
  In  In15  1  0.48743901  0.33587163  0.51549245  1
  In  In16  1  0.53614511  0.35055356  0.14638186  1
  In  In17  1  0.33217876  0.50749184  0.16159758  1
  In  In18  1  0.33967131  0.32462287  0.00190461  1
  In  In19  1  -0.03902647  0.35856384  0.30916322  1
  In  In20  1  0.65879342  0.15292339  0.84332460  1
  In  In21  1  0.13663925  -0.01633433  0.63310610  1
  In  In22  1  0.52079509  0.83549187  0.31619122  1
  In  In23  1  0.15367633  0.48226535  0.67828311  1
  In  In24  1  0.35255974  0.14543054  0.16610846  1
  In  In25  1  0.69280142  0.34935662  0.67699268  1
  In  In26  1  0.68029404  0.16786382  0.46831464  1
  In  In27  1  0.17482943  0.00551984  0.15824128  1
  In  In28  1  0.49592085  0.80199869  -0.00310567  1
  In  In29  1  0.68224352  0.79327961  0.14710542  1
  In  In30  1  0.15339278  0.33112808  0.82663886  1
  In  In31  1  0.33554431  0.01504054  0.67849355  1
  In  In32  1  0.18377396  0.69336802  0.48622310  1
  In  In33  1  0.13721447  0.18317763  0.34467687  1
  In  In34  1  0.34277095  0.67723988  0.66720585  1
  In  In35  1  -0.00914951  -0.00778988  0.30417352  1
  In  In36  1  0.13871997  0.35123839  0.14547734  1
  In  In37  1  0.52353827  0.49067026  0.70382516  1
  In  In38  1  0.15811459  0.67340730  0.14425770  1
  In  In39  1  0.84463582  0.83582782  0.30353479  1
  In  In40  1  0.79983813  0.78281893  0.68962887  1
  In  In41  1  0.32545645  0.67471050  0.00011037  1
  In  In42  1  0.81931444  0.49016563  0.30147456  1
  In  In43  1  0.49439522  0.16685115  0.32570782  1
  In  In44  1  0.81502734  0.53961443  0.73010768  1
  In  In45  1  0.67311846  0.35859633  0.30529153  1
  In  In46  1  -0.01603228  0.67360261  0.28106235  1
  In  In47  1  0.31600159  0.49577635  0.81994517  1
  In  In48  1  0.53694914  0.80736543  0.69140709  1
  In  In49  1  0.12726977  0.67653546  0.85142694  1
  In  In50  1  0.68564146  0.54041960  0.12203027  1
  In  In51  1  0.15687811  0.35910568  0.50541726  1
  In  In52  1  0.16739224  0.00426402  0.83161945  1
  In  In53  1  0.16717736  0.19100081  -0.02670020  1
  In  In54  1  0.33569877  0.18507869  0.83654143  1
  In  In55  1  0.00498226  0.67282054  0.66898688  1
  In  In56  1  0.83715271  0.66018909  0.51246024  1
  In  In57  1  0.33652068  0.66574204  0.32613967  1
  In  In58  1  -0.00635156  0.50906090  0.49705701  1
  In  In59  1  0.50631834  0.17991948  0.66047223  1
  In  In60  1  0.51956719  0.00072481  0.16459103  1
  In  In61  1  0.50670588  -0.00730501  0.48742711  1
  In  In62  1  0.34816064  0.00222149  0.33879230  1
  In  In63  1  0.80356616  0.33351196  0.13684990  1
  In  In64  1  0.91972997  0.11852752  0.72922074  1
  In  In65  1  -0.03458119  0.32976356  -0.02623734  1
  In  In66  1  0.50350438  0.65003249  0.83365782  1
  In  In67  1  0.52216918  0.36430040  0.86884358  1
  In  In68  1  0.81802012  0.14251939  -0.00997543  1
  In  In69  1  0.18144760  0.53501580  0.32971807  1
  In  In70  1  0.85875821  0.15239302  0.35591856  1
  In  In71  1  0.16887143  0.82468973  0.33013244  1
  Te  Te72  1  0.09432657  0.09385340  0.06580568  1
  Te  Te73  1  0.07357678  0.06579365  0.41422049  1
  Te  Te74  1  0.06696841  0.06695671  0.73747931  1
  Te  Te75  1  0.06458823  0.41929423  0.04008817  1
  Te  Te76  1  0.07922969  0.43093249  0.39237695  1
  Te  Te77  1  0.04856617  0.43012654  0.76993169  1
  Te  Te78  1  0.06453612  0.76031819  0.06604356  1
  Te  Te79  1  0.06916557  0.73290345  0.39683593  1
  Te  Te80  1  0.09387635  0.77887562  0.73414026  1
  Te  Te81  1  0.44332452  0.08573100  0.07148810  1
  Te  Te82  1  0.41302119  0.10046043  0.43452516  1
  Te  Te83  1  0.44271015  0.08678757  0.76516594  1
  Te  Te84  1  0.42629253  0.42590292  0.07311286  1
  Te  Te85  1  0.43187687  0.42591686  0.41330520  1
  Te  Te86  1  0.41742681  0.39907608  0.76349567  1
  Te  Te87  1  0.41785574  0.72862060  0.09849100  1
  Te  Te88  1  0.41831042  0.76368095  0.41673628  1
  Te  Te89  1  0.41702953  0.75827538  0.77053733  1
  Te  Te90  1  0.71991229  0.06190438  0.06879645  1
  Te  Te91  1  0.77556035  0.06147872  0.43601090  1
  Te  Te92  1  0.74822300  0.07820405  0.74771366  1
  Te  Te93  1  0.73599965  0.42471935  0.03805124  1
  Te  Te94  1  0.73929581  0.43587831  0.41910841  1
  Te  Te95  1  0.73958026  0.42720084  0.79279957  1
  Te  Te96  1  0.76501714  0.74136149  0.03339465  1
  Te  Te97  1  0.76947578  0.74842120  0.41089590  1
  Te  Te98  1  0.71250066  0.71771509  0.78985802  1
  Te  Te99  1  0.05964409  0.25724497  0.23756110  1
  Te  Te100  1  0.08820667  0.25544668  0.59583496  1
  Te  Te101  1  0.05160081  0.23634380  0.88871670  1
  Te  Te102  1  0.07922811  0.57007175  0.22390634  1
  Te  Te103  1  0.09737944  0.59096845  0.57163037  1
  Te  Te104  1  0.06787910  0.57145252  0.93361282  1
  Te  Te105  1  0.08820275  0.90355824  0.22956963  1
  Te  Te106  1  0.06811783  0.86363958  0.58904784  1
  Te  Te107  1  0.06543145  0.92933448  0.91701995  1
  Te  Te108  1  0.42854364  0.26725776  0.23333581  1
  Te  Te109  1  0.39869893  0.25143693  0.59380732  1
  Te  Te110  1  0.44185446  0.24371839  0.92721731  1
  Te  Te111  1  0.42409979  0.57768108  0.24985176  1
  Te  Te112  1  0.43237542  0.57356878  0.60871428  1
  Te  Te113  1  0.40281352  0.57292818  0.91573915  1
  Te  Te114  1  0.41547082  0.91472424  0.23913082  1
  Te  Te115  1  0.45125339  0.91796836  0.61346505  1
  Te  Te116  1  0.41108336  0.90054927  0.92732502  1
  Te  Te117  1  0.76989464  0.24902914  0.26498612  1
  Te  Te118  1  0.75016943  0.24465003  0.57993193  1
  Te  Te119  1  0.73122835  0.24749991  0.93126169  1
  Te  Te120  1  0.77546227  0.61396711  0.22180837  1
  Te  Te121  1  0.75634920  0.57592113  0.59920037  1
  Te  Te122  1  0.80902374  0.56928044  0.88266545  1
  Te  Te123  1  0.73097527  0.90018960  0.23509291  1
  Te  Te124  1  0.73391143  0.87720435  0.59362628  1
  Te  Te125  1  0.77801133  0.88082853  0.96536280  1
  Te  Te126  1  0.24788847  0.24668472  0.09811334  1
  Te  Te127  1  0.24011830  0.25258985  0.43106321  1
  Te  Te128  1  0.23766863  0.24282550  0.74633036  1
  Te  Te129  1  0.23452060  0.56980933  0.06528430  1
  Te  Te130  1  0.27507929  0.58121731  0.43819838  1
  Te  Te131  1  0.23229175  0.60240659  0.75028522  1
  Te  Te132  1  0.26675398  0.92167885  0.08292463  1
  Te  Te133  1  0.24483286  0.92244445  0.41732344  1
  Te  Te134  1  0.25439457  0.91536167  0.75082589  1
  Te  Te135  1  0.60878715  0.25722728  0.05877756  1
  Te  Te136  1  0.58642514  0.26738800  0.39884438  1
  Te  Te137  1  0.58723018  0.26546992  0.75730346  1
  Te  Te138  1  0.58683908  0.59850098  0.02774096  1
  Te  Te139  1  0.58364768  0.58038071  0.42653908  1
  Te  Te140  1  0.61491143  0.60448307  0.74189127  1
  Te  Te141  1  0.58479433  0.89281501  0.08217263  1
  Te  Te142  1  0.60046902  0.91483515  0.40888131  1
  Te  Te143  1  0.61419379  0.89319976  0.78952522  1
  Te  Te144  1  0.90935657  0.23480563  0.08628057  1
  Te  Te145  1  0.94629907  0.25783720  0.42915054  1
  Te  Te146  1  0.88273740  0.25685157  0.75755280  1
  Te  Te147  1  0.88018530  0.58717546  0.10845333  1
  Te  Te148  1  0.91227732  0.57911249  0.39067482  1
  Te  Te149  1  0.92847910  0.61946483  0.78599141  1
  Te  Te150  1  0.92909791  0.99001049  0.12106363  1
  Te  Te151  1  0.92315606  0.91065864  0.40389201  1
  Te  Te152  1  0.88638394  0.89451923  0.74570133  1
  Te  Te153  1  0.24551813  0.09792776  0.26973500  1
  Te  Te154  1  0.24388972  0.06589539  0.57742025  1
  Te  Te155  1  0.26186221  0.08442256  0.92276837  1
  Te  Te156  1  0.24210406  0.41176559  0.25087490  1
  Te  Te157  1  0.25460090  0.42674237  0.59008217  1
  Te  Te158  1  0.24297513  0.40916384  0.92148717  1
  Te  Te159  1  0.25559117  0.75124428  0.23052582  1
  Te  Te160  1  0.26079506  0.77562153  0.58702387  1
  Te  Te161  1  0.23953669  0.75922977  0.90770918  1
  Te  Te162  1  0.60134392  0.07992006  0.26700622  1
  Te  Te163  1  0.59559442  0.08936954  0.57745147  1
  Te  Te164  1  0.60932891  0.05518167  0.94430197  1
  Te  Te165  1  0.59790200  0.46245658  0.22698160  1
  Te  Te166  1  0.59247633  0.41942488  0.58889604  1
  Te  Te167  1  0.59463946  0.47117400  0.93878579  1
  Te  Te168  1  0.57790265  0.72110198  0.23669183  1
  Te  Te169  1  0.60730669  0.76085505  0.57060147  1
  Te  Te170  1  0.60438719  0.72088643  0.92363312  1
  Te  Te171  1  0.85365607  0.05492495  0.23411329  1
  Te  Te172  1  0.89834619  0.07579064  0.58923067  1
  Te  Te173  1  0.90974731  0.07220212  0.89760939  1
  Te  Te174  1  0.90842781  0.43506105  0.18802598  1
  Te  Te175  1  0.90870563  0.41860319  0.58187553  1
  Te  Te176  1  0.86996670  0.44217761  0.94743012  1
  Te  Te177  1  0.91986645  0.77101320  0.19377255  1
  Te  Te178  1  0.92776635  0.76214857  0.57718536  1
  Te  Te179  1  0.89031160  0.76829504  0.93554211  1
