# generated using pymatgen
data_In2Te3
_symmetry_space_group_name_H-M   'P 1'
_cell_length_a   18.77464693
_cell_length_b   18.77504455
_cell_length_c   18.77081591
_cell_angle_alpha   89.95835701
_cell_angle_beta   90.01672630
_cell_angle_gamma   90.04394267
_symmetry_Int_Tables_number   1
_chemical_formula_structural   In2Te3
_chemical_formula_sum   'In72 Te108'
_cell_volume   6616.61163729
_cell_formula_units_Z   36
loop_
 _symmetry_equiv_pos_site_id
 _symmetry_equiv_pos_as_xyz
  1  'x, y, z'
loop_
 _atom_site_type_symbol
 _atom_site_label
 _atom_site_symmetry_multiplicity
 _atom_site_fract_x
 _atom_site_fract_y
 _atom_site_fract_z
 _atom_site_occupancy
  In  In0  1  0.50136770  0.18022841  0.64722802  1
  In  In1  1  0.84770455  0.02452490  0.17127823  1
  In  In2  1  0.33271581  0.00292452  0.34474006  1
  In  In3  1  0.63903888  0.66609645  0.01712326  1
  In  In4  1  0.64712397  0.16039480  0.50524489  1
  In  In5  1  0.82783054  0.84308617  0.32779626  1
  In  In6  1  0.17184483  -0.01194178  0.18225316  1
  In  In7  1  0.48132299  0.68157203  0.17102012  1
  In  In8  1  0.00484749  0.84497307  0.17097764  1
  In  In9  1  0.00861509  0.01007097  0.31816746  1
  In  In10  1  0.82871116  0.78812471  -0.00355544  1
  In  In11  1  0.86764979  0.83590539  0.64995205  1
  In  In12  1  0.00460764  0.31155430  0.66302073  1
  In  In13  1  0.85110423  0.01989608  0.50245299  1
  In  In14  1  0.02339212  0.49942455  0.85972687  1
  In  In15  1  0.83135565  -0.00724318  0.81415376  1
  In  In16  1  0.64918844  0.50172267  0.82715403  1
  In  In17  1  0.86336299  0.30273093  0.47591407  1
  In  In18  1  0.03867534  0.84141281  0.51736715  1
  In  In19  1  0.31515364  0.83549685  0.49484190  1
  In  In20  1  0.50711287  -0.01144026  0.84458057  1
  In  In21  1  0.33918560  0.00338071  0.01090234  1
  In  In22  1  0.46460400  0.67527681  0.49948085  1
  In  In23  1  0.02189783  0.16985648  0.16458695  1
  In  In24  1  0.20834556  0.48645106  0.64514037  1
  In  In25  1  0.33428479  0.50333710  0.84760952  1
  In  In26  1  0.30765439  0.84792839  0.85222810  1
  In  In27  1  0.16655303  -0.00569758  0.80795993  1
  In  In28  1  0.02670551  0.49143269  0.51128260  1
  In  In29  1  0.82213817  0.48306386  -0.00421532  1
  In  In30  1  -0.00451423  0.67177800  -0.00753336  1
  In  In31  1  0.68141980  0.32291200  0.00345551  1
  In  In32  1  0.66609100  0.85592302  0.49113993  1
  In  In33  1  0.01691919  0.45018057  0.17054892  1
  In  In34  1  0.65649851  0.32992372  0.66926804  1
  In  In35  1  0.48940600  0.35125025  0.16408420  1
  In  In36  1  0.83717594  0.50735646  0.68286738  1
  In  In37  1  0.00873901  0.67359133  0.35652031  1
  In  In38  1  0.47257015  0.48060462  0.33332404  1
  In  In39  1  0.67134440  0.50133680  0.15269704  1
  In  In40  1  0.63890443  -0.01779140  0.02222878  1
  In  In41  1  0.33776095  0.82958082  0.17410235  1
  In  In42  1  0.85906248  0.65868679  0.82943501  1
  In  In43  1  0.49739257  0.16066638  0.00376700  1
  In  In44  1  0.02004153  0.32974814  -0.00330909  1
  In  In45  1  0.85073701  0.15426015  0.67015726  1
  In  In46  1  0.17087643  0.16326766  0.65135918  1
  In  In47  1  0.17651943  0.50396056  0.34025035  1
  In  In48  1  0.83046473  0.15293443  -0.00814920  1
  In  In49  1  0.16276172  0.16854322  0.34946539  1
  In  In50  1  0.48740024  0.83404976  0.67224672  1
  In  In51  1  0.69985280  0.29521699  0.31327435  1
  In  In52  1  0.33943833  0.34462144  0.34152571  1
  In  In53  1  0.83396061  0.69817259  0.51087643  1
  In  In54  1  0.32144318  0.18028132  0.83003699  1
  In  In55  1  0.18833966  0.19343312  0.03307420  1
  In  In56  1  0.18901743  0.65744562  0.17539189  1
  In  In57  1  0.01027478  -0.02631942  -0.03171245  1
  In  In58  1  0.47602580  0.34851395  0.49935437  1
  In  In59  1  0.64911986  0.66395190  0.69629661  1
  In  In60  1  0.61388990  0.67934265  0.30317151  1
  In  In61  1  0.65855374  0.48221840  0.50164946  1
  In  In62  1  0.48482185  0.34331499  0.83728226  1
  In  In63  1  0.85660467  0.49251886  0.31252530  1
  In  In64  1  0.34178387  0.50555709  0.16727928  1
  In  In65  1  0.32668074  0.67404082  0.67071247  1
  In  In66  1  0.66427760  0.82325107  0.85517382  1
  In  In67  1  0.17247519  0.34442899  0.84209639  1
  In  In68  1  0.82136302  0.66607467  0.13451968  1
  In  In69  1  0.32180209  0.00115134  0.66366806  1
  In  In70  1  0.64301593  0.00763897  0.34032636  1
  In  In71  1  0.49071315  0.16144411  0.33299991  1
  Te  Te72  1  0.08264821  0.06240484  0.07614422  1
  Te  Te73  1  0.08080626  0.07231425  0.43128640  1
  Te  Te74  1  0.07948864  0.09793947  0.74948319  1
  Te  Te75  1  0.11012739  0.43424873  0.05601767  1
  Te  Te76  1  0.08379449  0.40810159  0.40455577  1
  Te  Te77  1  0.08789396  0.42201939  0.73652313  1
  Te  Te78  1  0.08574389  0.74576736  0.09189976  1
  Te  Te79  1  0.11534994  0.74163886  0.43419718  1
  Te  Te80  1  0.03600747  0.80713872  0.72279774  1
  Te  Te81  1  0.42979939  0.07376692  0.10655772  1
  Te  Te82  1  0.40859327  0.09484764  0.43471763  1
  Te  Te83  1  0.41450368  0.07975962  0.75976317  1
  Te  Te84  1  0.40908756  0.42316553  0.06340721  1
  Te  Te85  1  0.36497652  0.46228924  0.45420624  1
  Te  Te86  1  0.39045393  0.40908023  0.74510846  1
  Te  Te87  1  0.38246791  0.72979041  0.06618120  1
  Te  Te88  1  0.41626771  0.77431050  0.40220599  1
  Te  Te89  1  0.40572727  0.75719171  0.77244607  1
  Te  Te90  1  0.73229339  0.08725506  0.09059637  1
  Te  Te91  1  0.74850714  0.09163998  0.41490165  1
  Te  Te92  1  0.74142354  0.07826771  0.73486394  1
  Te  Te93  1  0.77073843  0.39483947  0.10912326  1
  Te  Te94  1  0.75768688  0.41136799  0.40841289  1
  Te  Te95  1  0.75122194  0.40859985  0.76170345  1
  Te  Te96  1  0.71582572  0.77175228  0.09901574  1
  Te  Te97  1  0.73337254  0.74420013  0.40015524  1
  Te  Te98  1  0.76711066  0.75601287  0.74585327  1
  Te  Te99  1  0.09568242  0.26238911  0.25210166  1
  Te  Te100  1  0.09954271  0.26143226  0.56262532  1
  Te  Te101  1  0.09877138  0.23018688  0.91291720  1
  Te  Te102  1  0.06742668  0.58098001  0.24726557  1
  Te  Te103  1  0.12361913  0.58662932  0.57128956  1
  Te  Te104  1  0.10826899  0.60998121  0.91477488  1
  Te  Te105  1  0.09994250  0.89281476  0.27924572  1
  Te  Te106  1  0.09798815  0.91574792  0.63359943  1
  Te  Te107  1  0.12259401  0.88877770  0.91287362  1
  Te  Te108  1  0.40269600  0.24857591  0.23900534  1
  Te  Te109  1  0.39458847  0.25078046  0.57499726  1
  Te  Te110  1  0.39988729  0.25706999  0.93517008  1
  Te  Te111  1  0.39459502  0.60293144  0.27629911  1
  Te  Te112  1  0.42192902  0.58056893  0.60378717  1
  Te  Te113  1  0.44449852  0.59479811  0.88841237  1
  Te  Te114  1  0.41020430  0.95162509  0.22616282  1
  Te  Te115  1  0.41801254  0.92284873  0.57258072  1
  Te  Te116  1  0.42556099  0.90049342  0.93730301  1
  Te  Te117  1  0.76495965  0.19665835  0.22862513  1
  Te  Te118  1  0.74925337  0.25516642  0.57344473  1
  Te  Te119  1  0.75326921  0.24312667  0.90300535  1
  Te  Te120  1  0.74581484  0.58991119  0.25355932  1
  Te  Te121  1  0.74050388  0.58502806  0.59056520  1
  Te  Te122  1  0.74526485  0.59338827  0.91826521  1
  Te  Te123  1  0.74569300  0.93349596  0.24239605  1
  Te  Te124  1  0.75982014  0.92845850  0.58634763  1
  Te  Te125  1  0.75785728  0.91950356  0.93002822  1
  Te  Te126  1  0.26635715  0.27109499  0.12698699  1
  Te  Te127  1  0.24662828  0.26620698  0.43332033  1
  Te  Te128  1  0.25284764  0.27251296  0.73371325  1
  Te  Te129  1  0.28109823  0.60608065  0.06773937  1
  Te  Te130  1  0.28253255  0.58623197  0.40085660  1
  Te  Te131  1  0.23709969  0.58616647  0.75800484  1
  Te  Te132  1  0.24221660  0.90457053  0.07681506  1
  Te  Te133  1  0.22904225  0.94589793  0.43882532  1
  Te  Te134  1  0.23875745  0.88415370  0.71665518  1
  Te  Te135  1  0.58241615  0.25090498  0.09502945  1
  Te  Te136  1  0.57901846  0.27153120  0.41580220  1
  Te  Te137  1  0.57654703  0.24191742  0.76488255  1
  Te  Te138  1  0.55019910  0.56690034  0.09026997  1
  Te  Te139  1  0.57148678  0.57809015  0.41819814  1
  Te  Te140  1  0.53869669  0.58295058  0.76269285  1
  Te  Te141  1  0.56091103  0.87802668  0.08899226  1
  Te  Te142  1  0.55604708  0.90760887  0.40844222  1
  Te  Te143  1  0.59720229  0.91114643  0.74811386  1
  Te  Te144  1  0.92212695  0.24483271  0.07754533  1
  Te  Te145  1  0.95238338  0.22950362  0.38665355  1
  Te  Te146  1  0.91037867  0.25571091  0.76078645  1
  Te  Te147  1  0.92279522  0.56166044  0.08181460  1
  Te  Te148  1  0.90990588  0.57982735  0.42868951  1
  Te  Te149  1  0.95612260  0.58196878  0.74258285  1
  Te  Te150  1  0.90746425  0.91285577  0.07519542  1
  Te  Te151  1  0.92820862  0.90501018  0.42366687  1
  Te  Te152  1  0.95246321  0.93597626  0.73174341  1
  Te  Te153  1  0.25201594  0.09746562  0.24614150  1
  Te  Te154  1  0.24416716  0.07121935  0.55675643  1
  Te  Te155  1  0.24531297  0.08074440  0.91815253  1
  Te  Te156  1  0.24626046  0.40600129  0.23372950  1
  Te  Te157  1  0.25110600  0.39027258  0.53847451  1
  Te  Te158  1  0.24435108  0.42549920  0.94281818  1
  Te  Te159  1  0.24288829  0.76081932  0.26610505  1
  Te  Te160  1  0.23297306  0.73131080  0.56742174  1
  Te  Te161  1  0.20330765  0.75292814  0.89783810  1
  Te  Te162  1  0.57700924  0.09017417  0.23653716  1
  Te  Te163  1  0.56914045  0.06495040  0.58509469  1
  Te  Te164  1  0.59957380  0.08621941  0.91640492  1
  Te  Te165  1  0.59440106  0.41666293  0.25966068  1
  Te  Te166  1  0.55898393  0.42710502  0.60392561  1
  Te  Te167  1  0.58135956  0.41712688  0.93322722  1
  Te  Te168  1  0.56299966  0.79923869  0.22596069  1
  Te  Te169  1  0.58853564  0.74882506  0.58276923  1
  Te  Te170  1  0.55953637  0.73173489  0.90912481  1
  Te  Te171  1  0.90371455  0.12338669  0.28106749  1
  Te  Te172  1  0.95176202  0.09738402  0.57722322  1
  Te  Te173  1  0.92757138  0.08040014  0.89751371  1
  Te  Te174  1  0.92993611  0.37300758  0.26377277  1
  Te  Te175  1  0.90489921  0.41619192  0.57978689  1
  Te  Te176  1  0.91538916  0.40248330  0.90715756  1
  Te  Te177  1  0.90991919  0.74172389  0.24563245  1
  Te  Te178  1  0.95853804  0.72392466  0.59257787  1
  Te  Te179  1  0.93811265  0.77384224  0.89180666  1
