# generated using pymatgen
data_In2Te3
_symmetry_space_group_name_H-M   'P 1'
_cell_length_a   18.79368583
_cell_length_b   18.79336759
_cell_length_c   18.78399609
_cell_angle_alpha   89.94379100
_cell_angle_beta   90.00138995
_cell_angle_gamma   90.01579681
_symmetry_Int_Tables_number   1
_chemical_formula_structural   In2Te3
_chemical_formula_sum   'In72 Te108'
_cell_volume   6634.44097467
_cell_formula_units_Z   36
loop_
 _symmetry_equiv_pos_site_id
 _symmetry_equiv_pos_as_xyz
  1  'x, y, z'
loop_
 _atom_site_type_symbol
 _atom_site_label
 _atom_site_symmetry_multiplicity
 _atom_site_fract_x
 _atom_site_fract_y
 _atom_site_fract_z
 _atom_site_occupancy
  In  In0  1  0.17689036  0.15474286  0.36282644  1
  In  In1  1  0.67791705  0.16530620  0.81467352  1
  In  In2  1  0.82397137  -0.00041056  0.15228843  1
  In  In3  1  0.66552831  0.83332687  0.16555409  1
  In  In4  1  0.68229601  0.48992287  0.17894222  1
  In  In5  1  0.84798908  -0.01902328  0.53775657  1
  In  In6  1  0.66972766  -0.01040985  0.66853572  1
  In  In7  1  0.83309232  0.66963311  0.51019302  1
  In  In8  1  0.16053967  0.69247401  0.82568241  1
  In  In9  1  0.64904038  0.51620926  0.81934352  1
  In  In10  1  0.18245148  -0.03347365  0.79643645  1
  In  In11  1  0.49638420  0.48209365  -0.01488669  1
  In  In12  1  0.16943357  0.67391393  0.50374283  1
  In  In13  1  0.82829568  0.83951150  -0.02187427  1
  In  In14  1  -0.00191929  0.51911633  0.82677386  1
  In  In15  1  -0.02774862  0.16114016  0.81767327  1
  In  In16  1  0.34758530  0.34572181  0.66297081  1
  In  In17  1  0.16912025  0.67558217  0.14701735  1
  In  In18  1  -0.01260642  0.67784758  0.34603701  1
  In  In19  1  0.33659443  0.34266639  -0.01233347  1
  In  In20  1  -0.01382105  0.30794135  0.66203533  1
  In  In21  1  0.50771085  0.32206381  0.15578122  1
  In  In22  1  0.51555689  0.48574482  0.65155530  1
  In  In23  1  0.15963483  0.82608215  0.34145369  1
  In  In24  1  0.20116038  -0.04512699  0.13609225  1
  In  In25  1  0.35410157  0.15859672  0.16409098  1
  In  In26  1  -0.01773210  0.35413136  0.00213888  1
  In  In27  1  0.49815114  0.66580830  0.80407467  1
  In  In28  1  0.82236565  0.34110511  0.49750083  1
  In  In29  1  0.50033116  0.65960361  0.17654889  1
  In  In30  1  0.16495155  0.49469156  0.34554464  1
  In  In31  1  0.48681912  0.84034606  0.36147447  1
  In  In32  1  -0.02068308  0.68705083  -0.02286472  1
  In  In33  1  0.15174840  -0.02654993  0.53946215  1
  In  In34  1  0.67931990  0.17669916  0.50256881  1
  In  In35  1  -0.00404699  0.48692809  0.17614606  1
  In  In36  1  0.32041413  0.67606099  -0.00163088  1
  In  In37  1  0.00387642  0.81882868  0.17522331  1
  In  In38  1  0.18382110  0.16887134  -0.02112653  1
  In  In39  1  0.84028735  0.51085247  -0.00279791  1
  In  In40  1  0.81991569  0.50285636  0.65921282  1
  In  In41  1  0.49818777  0.17401617  0.68582138  1
  In  In42  1  0.50499849  0.00273809  0.16763115  1
  In  In43  1  0.51822868  0.34159891  0.81837733  1
  In  In44  1  0.33458033  0.34177983  0.35594651  1
  In  In45  1  0.69429427  0.82277989  0.80649304  1
  In  In46  1  0.14219438  0.33917532  0.17400902  1
  In  In47  1  0.82093528  0.17545105  0.33815797  1
  In  In48  1  0.50883694  0.15798146  0.01585749  1
  In  In49  1  0.81485608  0.49456757  0.34546332  1
  In  In50  1  0.50590429  -0.01685781  0.81287520  1
  In  In51  1  0.34272286  0.68386560  0.34846834  1
  In  In52  1  -0.01646680  0.34434027  0.35776164  1
  In  In53  1  0.84152772  0.15535690  -0.01618374  1
  In  In54  1  0.64183624  -0.00613731  0.33033487  1
  In  In55  1  0.16286230  0.15798540  0.65437965  1
  In  In56  1  0.33507291  0.14272572  0.83267917  1
  In  In57  1  0.49883435  0.51769495  0.36537916  1
  In  In58  1  0.01995328  0.00751490  -0.02664772  1
  In  In59  1  0.17929310  0.51210568  0.65981418  1
  In  In60  1  0.49360108  0.84709571  -0.00546056  1
  In  In61  1  0.67700410  0.67680158  0.00241332  1
  In  In62  1  0.16842670  0.34450493  0.84624931  1
  In  In63  1  0.33474485  0.67082906  0.65829498  1
  In  In64  1  0.01481932  0.67941150  0.66627626  1
  In  In65  1  0.33185406  -0.00479855  0.34045567  1
  In  In66  1  -0.00459632  0.16575701  0.15512868  1
  In  In67  1  0.47175686  -0.01921282  0.52279217  1
  In  In68  1  0.67571654  0.32961976  0.34910200  1
  In  In69  1  -0.00713583  -0.01468854  0.36485451  1
  In  In70  1  0.52837632  0.15145411  0.35767954  1
  In  In71  1  0.66433561  0.64619410  0.36535843  1
  Te  Te72  1  0.09968474  0.08038023  0.08386100  1
  Te  Te73  1  0.07618725  0.07886787  0.44946243  1
  Te  Te74  1  0.08102874  0.07595273  0.75242982  1
  Te  Te75  1  0.09314250  0.43637283  0.06719691  1
  Te  Te76  1  0.08997500  0.40694722  0.43716454  1
  Te  Te77  1  0.07840817  0.41707539  0.74430216  1
  Te  Te78  1  0.08535533  0.76669025  0.05813046  1
  Te  Te79  1  0.06355070  0.76742356  0.44267051  1
  Te  Te80  1  0.08432131  0.79224545  0.74027889  1
  Te  Te81  1  0.40342841  0.05656611  0.06375135  1
  Te  Te82  1  0.40961961  0.08869702  0.43166244  1
  Te  Te83  1  0.40393100  0.06082477  0.72624985  1
  Te  Te84  1  0.40986926  0.42288154  0.09621434  1
  Te  Te85  1  0.42246890  0.42010098  0.44636362  1
  Te  Te86  1  0.41725531  0.43895761  0.76226002  1
  Te  Te87  1  0.41786659  0.75473301  0.09192287  1
  Te  Te88  1  0.41436010  0.75456288  0.45851149  1
  Te  Te89  1  0.41114715  0.77003485  0.74246108  1
  Te  Te90  1  0.74096577  0.08680471  0.06953140  1
  Te  Te91  1  0.74913925  0.06759437  0.42057792  1
  Te  Te92  1  0.76951310  0.08025457  0.73107099  1
  Te  Te93  1  0.75500265  0.41755390  0.07394321  1
  Te  Te94  1  0.71126139  0.44431839  0.45028864  1
  Te  Te95  1  0.73317100  0.42013083  0.74527426  1
  Te  Te96  1  0.77311623  0.75262719  0.09215268  1
  Te  Te97  1  0.74637076  0.76006062  0.42062415  1
  Te  Te98  1  0.78200719  0.71348116  0.76413551  1
  Te  Te99  1  0.07433930  0.23940721  0.26793591  1
  Te  Te100  1  0.08986823  0.25634272  0.57144527  1
  Te  Te101  1  0.06391743  0.24526632  0.92127809  1
  Te  Te102  1  0.08303766  0.59379573  0.25700598  1
  Te  Te103  1  0.07267044  0.57577484  0.57112963  1
  Te  Te104  1  0.08922961  0.59432871  0.92129251  1
  Te  Te105  1  0.08771549  0.92989913  0.25284590  1
  Te  Te106  1  0.04733888  0.89658273  0.61457661  1
  Te  Te107  1  0.07951378  0.90333163  0.88677711  1
  Te  Te108  1  0.42758984  0.24292665  0.26746404  1
  Te  Te109  1  0.41498413  0.24103574  0.58461831  1
  Te  Te110  1  0.42489571  0.24551258  0.90784254  1
  Te  Te111  1  0.40413923  0.57624935  0.25773129  1
  Te  Te112  1  0.42857690  0.58517807  0.57830811  1
  Te  Te113  1  0.42122879  0.59227086  0.91348546  1
  Te  Te114  1  0.41261578  0.90859041  0.24451601  1
  Te  Te115  1  0.40152573  0.88309278  0.60932756  1
  Te  Te116  1  0.40476722  0.91212833  0.89589397  1
  Te  Te117  1  0.74071496  0.25254151  0.24210328  1
  Te  Te118  1  0.77276912  0.24165922  0.59612573  1
  Te  Te119  1  0.76111608  0.25086125  0.90330408  1
  Te  Te120  1  0.75824439  0.60047097  0.25046226  1
  Te  Te121  1  0.72774204  0.59435963  0.58489827  1
  Te  Te122  1  0.75706014  0.59729544  0.90109895  1
  Te  Te123  1  0.75319059  0.91563382  0.25995716  1
  Te  Te124  1  0.74648684  0.87095416  0.60543758  1
  Te  Te125  1  0.73225355  0.92458580  0.90567850  1
  Te  Te126  1  0.25005869  0.25288861  0.09067816  1
  Te  Te127  1  0.25097149  0.25372132  0.44186133  1
  Te  Te128  1  0.25152799  0.24918122  0.75992179  1
  Te  Te129  1  0.25829003  0.57514516  0.08781184  1
  Te  Te130  1  0.26173349  0.57986359  0.42850974  1
  Te  Te131  1  0.25653007  0.58999405  0.76406857  1
  Te  Te132  1  0.26250046  0.86644485  0.03868583  1
  Te  Te133  1  0.25018309  0.90722491  0.43251461  1
  Te  Te134  1  0.26781688  0.90230745  0.69001461  1
  Te  Te135  1  0.60614370  0.25257859  0.07249235  1
  Te  Te136  1  0.57023012  0.27107285  0.44750288  1
  Te  Te137  1  0.60961852  0.27117783  0.72099268  1
  Te  Te138  1  0.58705673  0.57727478  0.07922120  1
  Te  Te139  1  0.54921340  0.62372582  0.45970310  1
  Te  Te140  1  0.60017906  0.61067954  0.70724303  1
  Te  Te141  1  0.59903396  0.93069429  0.06982191  1
  Te  Te142  1  0.59139105  0.91109409  0.45002776  1
  Te  Te143  1  0.57721015  0.87995055  0.72574050  1
  Te  Te144  1  0.89974928  0.26058433  0.08925144  1
  Te  Te145  1  0.91865237  0.23213534  0.43861250  1
  Te  Te146  1  0.87916635  0.25668756  0.75097944  1
  Te  Te147  1  0.92609217  0.59360856  0.09259202  1
  Te  Te148  1  0.91900699  0.56844394  0.42749607  1
  Te  Te149  1  0.90228186  0.60927430  0.74923337  1
  Te  Te150  1  0.93189738  0.92194187  0.07688520  1
  Te  Te151  1  0.89779528  0.89363471  0.42792920  1
  Te  Te152  1  0.91028863  0.93946797  0.67888032  1
  Te  Te153  1  0.24693862  0.08095622  0.24370683  1
  Te  Te154  1  0.25616444  0.07043361  0.58083863  1
  Te  Te155  1  0.24774631  0.04866531  0.91456030  1
  Te  Te156  1  0.25108071  0.41549918  0.24729175  1
  Te  Te157  1  0.25509187  0.41969288  0.57418361  1
  Te  Te158  1  0.25455653  0.44105516  0.91559844  1
  Te  Te159  1  0.25480395  0.75736377  0.24548765  1
  Te  Te160  1  0.23083591  0.76720433  0.60371981  1
  Te  Te161  1  0.25679538  0.77896754  0.90694385  1
  Te  Te162  1  0.60058459  0.10326114  0.23194765  1
  Te  Te163  1  0.58043493  0.08218432  0.58099476  1
  Te  Te164  1  0.57966493  0.08397121  0.90094769  1
  Te  Te165  1  0.57454808  0.42072047  0.26333955  1
  Te  Te166  1  0.59103149  0.40398928  0.55504387  1
  Te  Te167  1  0.60895616  0.40381599  0.92352418  1
  Te  Te168  1  0.58193609  0.75268578  0.26817426  1
  Te  Te169  1  0.64768017  0.77626763  0.54361931  1
  Te  Te170  1  0.58087911  0.75009117  0.91045370  1
  Te  Te171  1  0.91839956  0.07900013  0.25610337  1
  Te  Te172  1  0.92344412  0.07783725  0.61996252  1
  Te  Te173  1  0.89910940  0.04754440  0.88958182  1
  Te  Te174  1  0.89261438  0.40220289  0.25030268  1
  Te  Te175  1  0.92222526  0.42254974  0.57985773  1
  Te  Te176  1  0.90248038  0.41824661  0.88957654  1
  Te  Te177  1  0.90010766  0.76005089  0.26056026  1
  Te  Te178  1  0.91372461  0.76460563  0.59418807  1
  Te  Te179  1  0.91784545  0.77799609  0.87618739  1
