# generated using pymatgen
data_In2Te3
_symmetry_space_group_name_H-M   'P 1'
_cell_length_a   18.90562132
_cell_length_b   18.89848459
_cell_length_c   18.89092857
_cell_angle_alpha   90.00243514
_cell_angle_beta   90.00044154
_cell_angle_gamma   90.00291302
_symmetry_Int_Tables_number   1
_chemical_formula_structural   In2Te3
_chemical_formula_sum   'In72 Te108'
_cell_volume   6749.49438621
_cell_formula_units_Z   36
loop_
 _symmetry_equiv_pos_site_id
 _symmetry_equiv_pos_as_xyz
  1  'x, y, z'
loop_
 _atom_site_type_symbol
 _atom_site_label
 _atom_site_symmetry_multiplicity
 _atom_site_fract_x
 _atom_site_fract_y
 _atom_site_fract_z
 _atom_site_occupancy
  In  In0  1  0.44503071  -0.00647459  0.50285195  1
  In  In1  1  0.66622015  0.83459718  0.47934939  1
  In  In2  1  0.34652152  0.34519985  0.00229292  1
  In  In3  1  0.51019141  0.34005261  0.48022992  1
  In  In4  1  0.65500192  0.64614010  0.01216570  1
  In  In5  1  0.34530703  0.33098253  0.33430279  1
  In  In6  1  0.03836317  0.78173328  0.46845905  1
  In  In7  1  0.48181497  0.52004007  0.64096820  1
  In  In8  1  0.04303621  0.67866187  0.00895482  1
  In  In9  1  0.48251651  0.00206731  0.85158474  1
  In  In10  1  0.86794195  -0.02029118  0.50518188  1
  In  In11  1  0.49090003  0.15675531  0.34972755  1
  In  In12  1  0.00615226  0.66713795  0.65048927  1
  In  In13  1  0.66870659  0.18039990  0.19031076  1
  In  In14  1  0.32965854  -0.01564248  0.67702754  1
  In  In15  1  0.13917250  0.49399712  0.00559572  1
  In  In16  1  0.18641174  0.80439247  0.62741850  1
  In  In17  1  -0.03133580  0.16812927  0.81955486  1
  In  In18  1  0.15531005  0.68220564  0.83632315  1
  In  In19  1  0.66448473  -0.01519492  0.00116870  1
  In  In20  1  0.65115470  0.63914375  0.32459726  1
  In  In21  1  0.20309289  -0.02998056  0.17668299  1
  In  In22  1  0.65589303  0.83124804  0.14640325  1
  In  In23  1  0.15078445  0.54356028  0.31964263  1
  In  In24  1  0.65481160  0.49841907  0.83128596  1
  In  In25  1  0.01633801  0.00359720  0.32948020  1
  In  In26  1  0.46003597  0.86906804  0.28919243  1
  In  In27  1  0.47842083  0.81895307  -0.00191765  1
  In  In28  1  0.33610703  0.53233497  0.83784084  1
  In  In29  1  0.64815631  0.38391619  0.33004441  1
  In  In30  1  0.47299243  0.68407609  0.48497774  1
  In  In31  1  0.36040473  0.15377222  0.50150359  1
  In  In32  1  0.50588646  0.64787569  0.16371942  1
  In  In33  1  0.65731444  0.01172592  0.34977663  1
  In  In34  1  0.68915828  0.19264463  0.84315750  1
  In  In35  1  0.81375581  0.02635794  0.84565244  1
  In  In36  1  0.85115831  -0.02861214  0.14977660  1
  In  In37  1  0.32141059  0.66313732  0.00483652  1
  In  In38  1  0.85844574  0.50941556  0.36803322  1
  In  In39  1  0.16858264  0.31935530  0.17253989  1
  In  In40  1  0.00447633  0.16720663  0.49727132  1
  In  In41  1  0.86340783  0.85240003  0.00523055  1
  In  In42  1  0.81158295  0.18082703  0.33000528  1
  In  In43  1  0.14994724  0.17000444  0.66424925  1
  In  In44  1  0.81887536  0.66608832  0.82744177  1
  In  In45  1  0.84426077  0.50753524  0.63952957  1
  In  In46  1  0.29936278  0.67543099  0.30630134  1
  In  In47  1  0.32382920  0.16104917  0.16309372  1
  In  In48  1  0.17474550  0.33810454  0.48867030  1
  In  In49  1  0.69133090  0.19383982  0.53756609  1
  In  In50  1  0.03432304  -0.02264320  0.66108867  1
  In  In51  1  0.69520096  0.35592774  0.00162449  1
  In  In52  1  0.15139091  0.48964870  0.66450946  1
  In  In53  1  0.48538171  0.16782175  0.02277207  1
  In  In54  1  0.13951409  0.32720476  0.84513376  1
  In  In55  1  0.85195832  0.81974518  0.69358725  1
  In  In56  1  0.84815974  0.66156163  0.18020419  1
  In  In57  1  0.49753647  0.81234034  0.68594628  1
  In  In58  1  0.82818419  0.80274056  0.30639722  1
  In  In59  1  0.53066152  0.18540920  0.66159489  1
  In  In60  1  0.68325923  0.51507331  0.50754265  1
  In  In61  1  0.13917086  0.14212460  -0.01315014  1
  In  In62  1  0.34770007  0.49337585  0.16035371  1
  In  In63  1  0.70380443  0.33127105  0.66641524  1
  In  In64  1  0.83392315  0.17935806  0.01216141  1
  In  In65  1  0.65027506  -0.00094193  0.66140342  1
  In  In66  1  0.00840125  0.34865373  0.31732620  1
  In  In67  1  0.01670811  0.85812598  0.86302227  1
  In  In68  1  0.33335797  0.14367208  0.85677460  1
  In  In69  1  0.31697399  0.35316306  0.68151731  1
  In  In70  1  -0.00052442  0.17695311  0.16666476  1
  In  In71  1  0.49398740  0.66446189  0.84194348  1
  Te  Te72  1  0.07940819  0.06920585  0.10308811  1
  Te  Te73  1  0.09271242  0.06513435  0.43968850  1
  Te  Te74  1  0.08221099  0.07990032  0.76463347  1
  Te  Te75  1  0.06551832  0.39127849  0.09177736  1
  Te  Te76  1  0.08664592  0.43485589  0.41371583  1
  Te  Te77  1  0.06270390  0.40830285  0.75091855  1
  Te  Te78  1  0.13357260  0.74322386  0.10847626  1
  Te  Te79  1  0.04790266  0.67129061  0.36252607  1
  Te  Te80  1  0.07057460  0.77007357  0.74374063  1
  Te  Te81  1  0.39371415  0.06610464  0.07298505  1
  Te  Te82  1  0.37255085  0.05900871  0.37274361  1
  Te  Te83  1  0.43107820  0.09368460  0.73416145  1
  Te  Te84  1  0.44434453  0.39583715  0.10318586  1
  Te  Te85  1  0.41468383  0.43084237  0.41718910  1
  Te  Te86  1  0.42130558  0.43560316  0.75444071  1
  Te  Te87  1  0.40298699  0.74490418  0.10718756  1
  Te  Te88  1  0.39518074  0.76801444  0.38338695  1
  Te  Te89  1  0.39606851  0.75549448  0.77817438  1
  Te  Te90  1  0.74528418  0.07661678  0.09323420  1
  Te  Te91  1  0.76444696  0.07794828  0.43797908  1
  Te  Te92  1  0.74182783  0.09862660  0.73260668  1
  Te  Te93  1  0.81535957  0.40045583  0.07053697  1
  Te  Te94  1  0.75944534  0.40946079  0.43049348  1
  Te  Te95  1  0.76889694  0.43179599  0.75685796  1
  Te  Te96  1  0.76155006  0.75125700  0.07483164  1
  Te  Te97  1  0.74629614  0.72619716  0.40912325  1
  Te  Te98  1  0.73313860  0.75207269  0.74445162  1
  Te  Te99  1  0.09581790  0.23068541  0.27409740  1
  Te  Te100  1  0.07589108  0.27409046  0.58511747  1
  Te  Te101  1  0.04390215  0.24768662  0.93069592  1
  Te  Te102  1  0.04352552  0.57394864  0.22178546  1
  Te  Te103  1  0.06632058  0.56295182  0.56438918  1
  Te  Te104  1  0.07174762  0.56618725  0.88533705  1
  Te  Te105  1  0.11824349  0.90178221  0.28664721  1
  Te  Te106  1  0.09919317  0.90213790  0.54612926  1
  Te  Te107  1  0.11131233  0.93042838  0.94746565  1
  Te  Te108  1  0.42730092  0.24381210  0.24117557  1
  Te  Te109  1  0.41713388  0.26908664  0.58955834  1
  Te  Te110  1  0.42656298  0.25166486  0.91017061  1
  Te  Te111  1  0.41407951  0.58110393  0.26425296  1
  Te  Te112  1  0.38777936  0.62444269  0.59276987  1
  Te  Te113  1  0.43290542  0.57422361  0.94856794  1
  Te  Te114  1  0.34820514  0.93588938  0.22363845  1
  Te  Te115  1  0.39475318  0.87392044  0.58864011  1
  Te  Te116  1  0.39673753  0.89046172  0.89528178  1
  Te  Te117  1  0.74859292  0.29446157  0.25071930  1
  Te  Te118  1  0.82218460  0.26301511  0.59088968  1
  Te  Te119  1  0.79559528  0.27913421  0.90475004  1
  Te  Te120  1  0.76105681  0.56167603  0.25663652  1
  Te  Te121  1  0.74891723  0.61095846  0.59590344  1
  Te  Te122  1  0.75463792  0.57060111  0.92653385  1
  Te  Te123  1  0.73536640  0.91890042  0.25208037  1
  Te  Te124  1  0.74986771  0.91202896  0.58358453  1
  Te  Te125  1  0.75295072  0.90240179  0.91001886  1
  Te  Te126  1  0.24008186  0.24733467  0.05354803  1
  Te  Te127  1  0.26084141  0.23576281  0.41758993  1
  Te  Te128  1  0.25192107  0.24174621  0.76378340  1
  Te  Te129  1  0.23787439  0.57360811  0.09527638  1
  Te  Te130  1  0.24857632  0.59417371  0.42361883  1
  Te  Te131  1  0.23610337  0.59321498  0.74206884  1
  Te  Te132  1  0.20642732  0.87346673  0.05744242  1
  Te  Te133  1  0.31322483  0.94114328  0.45255826  1
  Te  Te134  1  0.22231888  0.90165365  0.73287727  1
  Te  Te135  1  0.60406748  0.24753123  0.07117801  1
  Te  Te136  1  0.60426992  0.23980531  0.41511513  1
  Te  Te137  1  0.59266129  0.27863273  0.76258794  1
  Te  Te138  1  0.60885207  0.54952839  0.11673159  1
  Te  Te139  1  0.56528020  0.57328096  0.42918268  1
  Te  Te140  1  0.57669005  0.59094961  0.73760042  1
  Te  Te141  1  0.55312950  0.92418650  0.08454019  1
  Te  Te142  1  0.55367378  0.91616087  0.41329077  1
  Te  Te143  1  0.57818061  0.91619996  0.76378861  1
  Te  Te144  1  0.89716644  0.27422913  0.11252083  1
  Te  Te145  1  0.92164639  0.25572244  0.40299765  1
  Te  Te146  1  0.90331670  0.25789954  0.72564802  1
  Te  Te147  1  0.92640751  0.60143939  0.06626404  1
  Te  Te148  1  0.93972923  0.60522834  0.44752806  1
  Te  Te149  1  0.92122395  0.58656389  0.74786020  1
  Te  Te150  1  0.96749172  0.89004424  0.10533542  1
  Te  Te151  1  0.92032544  0.89441908  0.39313990  1
  Te  Te152  1  0.91650790  0.93751766  0.76405839  1
  Te  Te153  1  0.21733688  0.10258890  0.24647658  1
  Te  Te154  1  0.25328188  0.08732971  0.59116537  1
  Te  Te155  1  0.23660682  0.05109215  0.91713336  1
  Te  Te156  1  0.24214240  0.42122256  0.25778931  1
  Te  Te157  1  0.26292422  0.43388518  0.56752811  1
  Te  Te158  1  0.25028509  0.42245253  0.90772672  1
  Te  Te159  1  0.19201816  0.76341241  0.25345018  1
  Te  Te160  1  0.23732587  0.69821309  0.54097649  1
  Te  Te161  1  0.24660464  0.76095332  0.92142367  1
  Te  Te162  1  0.56972551  0.07612557  0.24342304  1
  Te  Te163  1  0.57268683  0.07975623  0.55753814  1
  Te  Te164  1  0.59490082  0.08887756  0.91285944  1
  Te  Te165  1  0.56211439  0.42956537  0.22317263  1
  Te  Te166  1  0.59235955  0.41148755  0.58847766  1
  Te  Te167  1  0.58305453  0.41946164  0.93128961  1
  Te  Te168  1  0.57853466  0.75861660  0.25581526  1
  Te  Te169  1  0.58075747  0.74994383  0.57226064  1
  Te  Te170  1  0.59152199  0.75078526  0.92264586  1
  Te  Te171  1  0.90062369  0.08266038  0.25318101  1
  Te  Te172  1  0.93401825  0.07504160  0.60073360  1
  Te  Te173  1  0.91864186  0.07574045  0.94115718  1
  Te  Te174  1  0.93982088  0.46282348  0.24657893  1
  Te  Te175  1  0.90378841  0.39349603  0.57142927  1
  Te  Te176  1  0.98961299  0.46522184  0.97466450  1
  Te  Te177  1  0.94344209  0.77093888  0.21790616  1
  Te  Te178  1  0.92079115  0.76711571  0.57088563  1
  Te  Te179  1  0.93062210  0.74244481  0.91316698  1
