# generated using pymatgen
data_In2Te3
_symmetry_space_group_name_H-M   'P 1'
_cell_length_a   18.94062231
_cell_length_b   18.95974160
_cell_length_c   18.93858962
_cell_angle_alpha   90.00062951
_cell_angle_beta   89.86635689
_cell_angle_gamma   89.97743302
_symmetry_Int_Tables_number   1
_chemical_formula_structural   In2Te3
_chemical_formula_sum   'In72 Te108'
_cell_volume   6801.00472308
_cell_formula_units_Z   36
loop_
 _symmetry_equiv_pos_site_id
 _symmetry_equiv_pos_as_xyz
  1  'x, y, z'
loop_
 _atom_site_type_symbol
 _atom_site_label
 _atom_site_symmetry_multiplicity
 _atom_site_fract_x
 _atom_site_fract_y
 _atom_site_fract_z
 _atom_site_occupancy
  In  In0  1  0.51935588  0.67319534  0.84766773  1
  In  In1  1  -0.00022133  0.18972149  0.17483305  1
  In  In2  1  0.34598550  0.17345900  0.49138510  1
  In  In3  1  0.49816487  -0.02404442  0.48438543  1
  In  In4  1  0.82508263  0.51597899  0.68564249  1
  In  In5  1  0.00468053  0.66365909  -0.00795244  1
  In  In6  1  0.51649258  0.83076689  0.67493789  1
  In  In7  1  -0.03582329  0.84957688  0.17513358  1
  In  In8  1  0.50142162  0.15462765  0.01408475  1
  In  In9  1  0.36550077  0.79645709  0.45954072  1
  In  In10  1  0.16039517  0.83451093  -0.00544734  1
  In  In11  1  -0.01119171  0.16488731  0.49090111  1
  In  In12  1  0.80845956  0.13544768  0.33925490  1
  In  In13  1  0.33499864  0.51854576  0.48968169  1
  In  In14  1  -0.01761076  0.70569191  0.33269019  1
  In  In15  1  0.17474469  0.83352693  0.31520137  1
  In  In16  1  0.33970163  0.31250659  0.30935807  1
  In  In17  1  0.81835841  0.68320819  0.81354069  1
  In  In18  1  0.00420056  0.83279178  0.82887675  1
  In  In19  1  0.65902573  -0.00791235  0.66242757  1
  In  In20  1  0.14893849  0.00764726  0.16452073  1
  In  In21  1  0.67836207  0.68594712  0.64714124  1
  In  In22  1  0.17207038  0.33125182  0.48847891  1
  In  In23  1  0.00366677  0.18412375  0.84460593  1
  In  In24  1  0.51904098  0.31607143  0.49640049  1
  In  In25  1  0.31768236  0.47554944  0.85865877  1
  In  In26  1  0.36042386  0.84168009  0.85948245  1
  In  In27  1  0.65147070  0.30758201  0.67953283  1
  In  In28  1  0.50551359  0.14696591  0.68960316  1
  In  In29  1  0.81245981  -0.00250943  0.84781572  1
  In  In30  1  0.81495532  0.14405318  0.65525484  1
  In  In31  1  0.35019587  0.52569493  0.16198815  1
  In  In32  1  0.00404175  0.50333353  0.17983334  1
  In  In33  1  0.84270827  0.50046353  -0.00062107  1
  In  In34  1  0.34015584  0.15591178  0.84690293  1
  In  In35  1  -0.01396198  0.35510819  0.68036627  1
  In  In36  1  -0.00220420  0.50302659  0.84624378  1
  In  In37  1  0.49941307  0.32102736  0.15649610  1
  In  In38  1  0.18269131  0.66210123  0.15609610  1
  In  In39  1  0.19588467  0.67562663  0.82856945  1
  In  In40  1  0.66413189  0.69224697  0.02327276  1
  In  In41  1  -0.02128538  0.01383773  0.02912294  1
  In  In42  1  0.82397202  0.35171053  0.15066556  1
  In  In43  1  0.66864827  0.48852484  0.83346506  1
  In  In44  1  0.80053611  -0.00546751  0.17007177  1
  In  In45  1  0.00056225  0.03087671  0.67802219  1
  In  In46  1  0.18653090  0.32275621  0.13809709  1
  In  In47  1  0.84422880  0.67004774  0.50809139  1
  In  In48  1  0.81531387  0.52353849  0.32285232  1
  In  In49  1  0.48622722  0.49720283  0.66617479  1
  In  In50  1  0.18824904  0.83029911  0.65688088  1
  In  In51  1  0.64807473  -0.02204126  0.00884733  1
  In  In52  1  0.64190738  0.66174572  0.32026366  1
  In  In53  1  0.51924713  0.50903430  -0.00050477  1
  In  In54  1  0.48845013  0.49129566  0.33241165  1
  In  In55  1  0.30350204  0.01059492  0.31863582  1
  In  In56  1  0.16271465  0.49199853  0.34858061  1
  In  In57  1  0.65390764  0.33378614  0.32929621  1
  In  In58  1  0.14066534  0.00950111  0.48459109  1
  In  In59  1  0.51968101  -0.01845426  0.17139342  1
  In  In60  1  0.34690201  0.00913245  0.00504320  1
  In  In61  1  0.32577433  -0.01303158  0.68637326  1
  In  In62  1  0.17349132  0.17033298  0.66851724  1
  In  In63  1  0.17288095  0.65730076  0.50246167  1
  In  In64  1  0.34450760  0.36094262  0.68182711  1
  In  In65  1  0.15511780  0.52549805  0.67738777  1
  In  In66  1  0.65072134  0.14714860  0.16911044  1
  In  In67  1  0.82400752  0.33105706  0.50734635  1
  In  In68  1  0.37662520  0.82023165  0.13177076  1
  In  In69  1  -0.04512420  0.84263121  0.47439996  1
  In  In70  1  0.01195375  0.33935565  0.01954067  1
  In  In71  1  0.67781894  0.85468112  0.47613254  1
  Te  Te72  1  0.08518316  0.11203627  0.07342534  1
  Te  Te73  1  0.06787494  0.09163682  0.39008250  1
  Te  Te74  1  0.10374749  0.08656679  0.77319239  1
  Te  Te75  1  0.10163420  0.44333620  0.08323507  1
  Te  Te76  1  0.06811184  0.41177948  0.42509545  1
  Te  Te77  1  0.09586707  0.41594075  0.76385074  1
  Te  Te78  1  0.07006490  0.76052343  0.09824820  1
  Te  Te79  1  0.08743195  0.76890797  0.43000982  1
  Te  Te80  1  0.09329661  0.74461335  0.74122284  1
  Te  Te81  1  0.41710817  0.08281506  0.11649104  1
  Te  Te82  1  0.41604883  0.07551240  0.40148159  1
  Te  Te83  1  0.42968419  0.04799424  0.77722442  1
  Te  Te84  1  0.41945573  0.42181545  0.07635311  1
  Te  Te85  1  0.40266308  0.39323645  0.43131371  1
  Te  Te86  1  0.44061484  0.41446284  0.78481344  1
  Te  Te87  1  0.44443151  0.71078523  0.06531339  1
  Te  Te88  1  0.46409195  0.72971661  0.36922105  1
  Te  Te89  1  0.41977924  0.74657831  0.75672274  1
  Te  Te90  1  0.74370520  0.08807093  0.06592563  1
  Te  Te91  1  0.74772996  0.01968285  0.41023140  1
  Te  Te92  1  0.72579328  0.08983249  0.76361765  1
  Te  Te93  1  0.73186846  0.43118448  0.06796176  1
  Te  Te94  1  0.74392477  0.42120730  0.41373431  1
  Te  Te95  1  0.76639817  0.38985414  0.75363423  1
  Te  Te96  1  0.75171535  0.72544549  0.13692665  1
  Te  Te97  1  0.74437720  0.73269643  0.41460267  1
  Te  Te98  1  0.74763467  0.78493485  0.73203842  1
  Te  Te99  1  0.08831318  0.28704855  0.23914894  1
  Te  Te100  1  0.07130133  0.25067919  0.58981813  1
  Te  Te101  1  0.09720793  0.27314359  0.91758238  1
  Te  Te102  1  0.08374189  0.60659030  0.26136579  1
  Te  Te103  1  0.07021963  0.58323078  0.57456880  1
  Te  Te104  1  0.10699825  0.58409980  0.91470185  1
  Te  Te105  1  0.06524788  0.92343377  0.26105729  1
  Te  Te106  1  0.08554308  0.92860503  0.60024189  1
  Te  Te107  1  0.06368361  0.92932497  0.92992384  1
  Te  Te108  1  0.44708071  0.22840057  0.25807789  1
  Te  Te109  1  0.41753902  0.24870054  0.60301128  1
  Te  Te110  1  0.41218133  0.24910124  0.93861537  1
  Te  Te111  1  0.41747888  0.60603750  0.26771577  1
  Te  Te112  1  0.42723631  0.59366407  0.57398365  1
  Te  Te113  1  0.41805539  0.58159502  0.91279834  1
  Te  Te114  1  0.40115414  0.91693227  0.24489668  1
  Te  Te115  1  0.40824731  0.90604350  0.58586625  1
  Te  Te116  1  0.43946903  0.89932603  0.96937547  1
  Te  Te117  1  0.74972517  0.24735761  0.24287254  1
  Te  Te118  1  0.72691915  0.23201136  0.56929446  1
  Te  Te119  1  0.79534900  0.29584374  0.87027338  1
  Te  Te120  1  0.73304949  0.59177407  0.21816590  1
  Te  Te121  1  0.74392651  0.57255788  0.57165115  1
  Te  Te122  1  0.74861889  0.59221760  0.91424648  1
  Te  Te123  1  0.76967213  0.90022721  0.28075530  1
  Te  Te124  1  0.75187342  0.89463610  0.59947852  1
  Te  Te125  1  0.73289992  0.89370429  0.91756692  1
  Te  Te126  1  0.28632307  0.26543156  0.04546799  1
  Te  Te127  1  0.24121409  0.23187366  0.39869765  1
  Te  Te128  1  0.26314438  0.25475752  0.75505318  1
  Te  Te129  1  0.25856571  0.58225093  0.06102904  1
  Te  Te130  1  0.25863055  0.60314463  0.38998099  1
  Te  Te131  1  0.27765064  0.57751533  0.74696150  1
  Te  Te132  1  0.24469840  0.91432140  0.09169509  1
  Te  Te133  1  0.24881491  0.91021684  0.42579852  1
  Te  Te134  1  0.24166399  0.90252427  0.77903604  1
  Te  Te135  1  0.60467389  0.25347585  0.07132007  1
  Te  Te136  1  0.58985286  0.22594386  0.40646414  1
  Te  Te137  1  0.56570496  0.24511059  0.77966386  1
  Te  Te138  1  0.56033280  0.61407394  0.10074165  1
  Te  Te139  1  0.58661316  0.56144122  0.41446062  1
  Te  Te140  1  0.59810781  0.58874122  0.74097755  1
  Te  Te141  1  0.61291824  0.88021898  0.11650804  1
  Te  Te142  1  0.56669598  0.89296986  0.37972965  1
  Te  Te143  1  0.56952442  0.93322499  0.76441097  1
  Te  Te144  1  0.90260843  0.24854038  0.07279108  1
  Te  Te145  1  0.89628555  0.24644915  0.40360701  1
  Te  Te146  1  0.91125262  0.23408142  0.73331927  1
  Te  Te147  1  0.91663073  0.59361549  0.09471975  1
  Te  Te148  1  0.92474783  0.58725172  0.40782264  1
  Te  Te149  1  0.93164936  0.60065787  0.75096592  1
  Te  Te150  1  0.87837691  0.90667798  0.06607125  1
  Te  Te151  1  0.87642259  0.93228723  0.38795113  1
  Te  Te152  1  0.91555951  0.93150521  0.75474687  1
  Te  Te153  1  0.23652141  0.10555904  0.23081807  1
  Te  Te154  1  0.25760323  0.07907322  0.57827923  1
  Te  Te155  1  0.24605052  0.06802518  0.91764286  1
  Te  Te156  1  0.26039139  0.42765321  0.24977352  1
  Te  Te157  1  0.24346223  0.42486887  0.58443920  1
  Te  Te158  1  0.24792713  0.37356119  0.94018639  1
  Te  Te159  1  0.27316121  0.75539933  0.23308681  1
  Te  Te160  1  0.27657671  0.73814941  0.57683422  1
  Te  Te161  1  0.26996488  0.74638089  0.93945712  1
  Te  Te162  1  0.60230206  0.05388336  0.27066206  1
  Te  Te163  1  0.57220085  0.07703468  0.57088342  1
  Te  Te164  1  0.59481156  0.08577375  0.92432487  1
  Te  Te165  1  0.58150787  0.42501165  0.23254058  1
  Te  Te166  1  0.58820912  0.41324999  0.58953497  1
  Te  Te167  1  0.60483528  0.40522085  0.93609957  1
  Te  Te168  1  0.56839927  0.78039967  0.26340460  1
  Te  Te169  1  0.58158985  0.76035167  0.55906385  1
  Te  Te170  1  0.61350274  0.77000395  0.90825728  1
  Te  Te171  1  0.90669324  0.08355497  0.23498793  1
  Te  Te172  1  0.90489090  0.06220287  0.56409971  1
  Te  Te173  1  0.90776667  0.09337702  0.92045016  1
  Te  Te174  1  0.90774677  0.41787498  0.25784044  1
  Te  Te175  1  0.90755021  0.43471154  0.58035022  1
  Te  Te176  1  0.90666666  0.39120777  0.90562891  1
  Te  Te177  1  0.86894345  0.76059914  0.25165065  1
  Te  Te178  1  0.91783862  0.76544596  0.59216012  1
  Te  Te179  1  0.90941458  0.75342875  0.91753854  1
