# generated using pymatgen
data_In2Te3
_symmetry_space_group_name_H-M   'P 1'
_cell_length_a   18.85224095
_cell_length_b   18.86515435
_cell_length_c   18.85500029
_cell_angle_alpha   89.94081630
_cell_angle_beta   89.96113347
_cell_angle_gamma   90.06813876
_symmetry_Int_Tables_number   1
_chemical_formula_structural   In2Te3
_chemical_formula_sum   'In72 Te108'
_cell_volume   6705.77919256
_cell_formula_units_Z   36
loop_
 _symmetry_equiv_pos_site_id
 _symmetry_equiv_pos_as_xyz
  1  'x, y, z'
loop_
 _atom_site_type_symbol
 _atom_site_label
 _atom_site_symmetry_multiplicity
 _atom_site_fract_x
 _atom_site_fract_y
 _atom_site_fract_z
 _atom_site_occupancy
  In  In0  1  0.00422383  0.17233144  0.48814270  1
  In  In1  1  0.18163407  0.84170585  0.33717759  1
  In  In2  1  0.69258659  0.20280019  0.84586500  1
  In  In3  1  0.80859537  0.83710652  0.33214766  1
  In  In4  1  0.64816025  0.49483102  0.18654298  1
  In  In5  1  0.85367357  0.50864350  0.65141516  1
  In  In6  1  0.34833634  0.83179876  0.50886225  1
  In  In7  1  0.49378395  0.82274738  -0.02010125  1
  In  In8  1  0.49377420  0.00605546  0.18579871  1
  In  In9  1  0.84496016  -0.02363231  0.17039554  1
  In  In10  1  0.15306285  0.18011085  -0.00131342  1
  In  In11  1  0.34995981  0.83715188  0.82961396  1
  In  In12  1  0.03546608  0.45985595  0.47965697  1
  In  In13  1  0.82978262  0.49626899  -0.00824881  1
  In  In14  1  0.01325224  0.17141957  0.84406697  1
  In  In15  1  -0.01483198  0.45935339  0.20193386  1
  In  In16  1  -0.01720650  0.81751127  0.15434162  1
  In  In17  1  -0.00343189  0.33883751  0.65969750  1
  In  In18  1  0.13204600  -0.00759081  0.86347879  1
  In  In19  1  0.00900766  0.50984963  0.81491742  1
  In  In20  1  0.87434821  -0.00949554  0.81704039  1
  In  In21  1  0.65745384  0.65980202  0.33251119  1
  In  In22  1  0.16366538  0.69097336  0.80746218  1
  In  In23  1  0.84278065  0.66870415  0.48074484  1
  In  In24  1  0.13148587  0.65008455  0.16608253  1
  In  In25  1  0.34943850  0.63283056  -0.03656775  1
  In  In26  1  0.66970294  0.32009978  0.63231990  1
  In  In27  1  0.01597597  0.83342534  0.52629716  1
  In  In28  1  0.17241719  0.01969364  0.18156601  1
  In  In29  1  0.00534430  0.67740579  0.68828074  1
  In  In30  1  0.65551303  0.32933295  0.32703544  1
  In  In31  1  0.33593881  0.02223351  0.34023333  1
  In  In32  1  0.65207668  0.67080670  0.66931725  1
  In  In33  1  0.32902684  0.48205610  0.17062311  1
  In  In34  1  0.82752667  0.35036368  0.84497032  1
  In  In35  1  0.33299762  0.84591754  0.16469379  1
  In  In36  1  0.80813285  0.65051869  0.13973907  1
  In  In37  1  0.83360210  0.17317542  0.33471146  1
  In  In38  1  0.65537922  0.81334896  0.83190790  1
  In  In39  1  0.66838440  -0.01042477  0.01040611  1
  In  In40  1  0.68716810  0.33103958  0.01068490  1
  In  In41  1  0.33859273  -0.01285264  0.65240929  1
  In  In42  1  0.51079972  0.00653944  0.85276245  1
  In  In43  1  0.32382490  0.18022697  0.83737657  1
  In  In44  1  0.18552596  0.48843861  0.63056115  1
  In  In45  1  0.32865790  0.64670000  0.34559059  1
  In  In46  1  0.01973235  0.00905642  0.35544464  1
  In  In47  1  0.16584720  0.48522392  -0.00199280  1
  In  In48  1  0.33355884  0.20521017  0.49079531  1
  In  In49  1  0.65575975  0.14826749  0.17045835  1
  In  In50  1  0.34546134  0.34823099  0.01723468  1
  In  In51  1  0.17769486  0.64237486  0.49258342  1
  In  In52  1  0.81965635  0.83027019  0.01069972  1
  In  In53  1  0.18362994  0.33766415  0.19306677  1
  In  In54  1  0.49429687  0.35095452  0.81486107  1
  In  In55  1  0.66371914  0.47456627  0.48529138  1
  In  In56  1  0.82785818  -0.00261120  0.50652748  1
  In  In57  1  0.63045147  -0.03272540  0.35686122  1
  In  In58  1  0.65557051  0.00186668  0.65416826  1
  In  In59  1  -0.01503548  0.20661416  0.15736782  1
  In  In60  1  0.66780493  0.51830574  0.83019062  1
  In  In61  1  0.51550483  0.66530675  0.16305394  1
  In  In62  1  0.34821524  0.66092770  0.68208815  1
  In  In63  1  0.49929939  0.15330125  0.63546067  1
  In  In64  1  0.50170486  0.65428991  0.50748728  1
  In  In65  1  0.81669710  0.16828025  0.64970570  1
  In  In66  1  0.48472595  0.34813899  0.49240489  1
  In  In67  1  -0.01981607  0.68125913  -0.00291001  1
  In  In68  1  0.01257333  0.64309370  0.31184476  1
  In  In69  1  0.14175863  0.84925509  0.65787175  1
  In  In70  1  0.18382909  0.17471860  0.68427998  1
  In  In71  1  0.48678321  0.16107631  0.04452999  1
  Te  Te72  1  0.07023565  0.09575762  0.09416831  1
  Te  Te73  1  0.11457354  0.10925869  0.40822400  1
  Te  Te74  1  0.08289838  0.07753922  0.74698647  1
  Te  Te75  1  0.08381351  0.40459833  0.09597479  1
  Te  Te76  1  0.09776233  0.36281355  0.38525532  1
  Te  Te77  1  0.10016889  0.41626656  0.73879201  1
  Te  Te78  1  0.09496852  0.75983454  0.06654068  1
  Te  Te79  1  0.08289631  0.74231644  0.41245818  1
  Te  Te80  1  0.05069607  0.79676289  0.77907851  1
  Te  Te81  1  0.38018317  0.07230417  0.11176993  1
  Te  Te82  1  0.42102357  0.10226151  0.43049024  1
  Te  Te83  1  0.41887802  0.08180299  0.75282415  1
  Te  Te84  1  0.43642944  0.45214472  0.07137872  1
  Te  Te85  1  0.38264041  0.45351075  0.45780037  1
  Te  Te86  1  0.40063828  0.45368513  0.76568481  1
  Te  Te87  1  0.40280031  0.73994197  0.07537175  1
  Te  Te88  1  0.42391707  0.74596749  0.40844007  1
  Te  Te89  1  0.43398051  0.76968391  0.72962126  1
  Te  Te90  1  0.76531194  0.07788825  0.08717703  1
  Te  Te91  1  0.74865272  0.06313899  0.39561370  1
  Te  Te92  1  0.74644750  0.08778683  0.75891515  1
  Te  Te93  1  0.76222785  0.42301495  0.10499701  1
  Te  Te94  1  0.76222944  0.41674789  0.38941842  1
  Te  Te95  1  0.75069854  0.41748213  0.73167960  1
  Te  Te96  1  0.72335885  0.76241356  0.09876869  1
  Te  Te97  1  0.72795681  0.75544000  0.43108666  1
  Te  Te98  1  0.75314052  0.75263535  0.73949084  1
  Te  Te99  1  0.07819573  0.25473330  0.26318062  1
  Te  Te100  1  0.09342594  0.25074307  0.58460507  1
  Te  Te101  1  0.09358270  0.27730920  0.90498543  1
  Te  Te102  1  0.10840191  0.53585834  0.26208261  1
  Te  Te103  1  0.06378628  0.58016096  0.58468273  1
  Te  Te104  1  0.08820052  0.59805719  0.91220667  1
  Te  Te105  1  0.07245482  0.90372596  0.24828597  1
  Te  Te106  1  0.09663631  0.95116308  0.56099892  1
  Te  Te107  1  0.06112884  0.90448926  0.95508831  1
  Te  Te108  1  0.43190850  0.19965228  0.17837308  1
  Te  Te109  1  0.41084370  0.27073483  0.60741800  1
  Te  Te110  1  0.43340925  0.24742375  0.92115846  1
  Te  Te111  1  0.42056778  0.57756613  0.24835033  1
  Te  Te112  1  0.39068563  0.57149633  0.56851702  1
  Te  Te113  1  0.43622002  0.56804648  0.86086332  1
  Te  Te114  1  0.41545541  0.90787314  0.27528245  1
  Te  Te115  1  0.44572477  0.93787928  0.55755480  1
  Te  Te116  1  0.40259903  0.93669089  0.93384933  1
  Te  Te117  1  0.75261056  0.24837051  0.23250781  1
  Te  Te118  1  0.75877492  0.24809126  0.54036067  1
  Te  Te119  1  0.80237604  0.23857327  0.95408565  1
  Te  Te120  1  0.76245068  0.57571328  0.26246464  1
  Te  Te121  1  0.74542608  0.57994207  0.56933872  1
  Te  Te122  1  0.74537590  0.59756509  0.92723115  1
  Te  Te123  1  0.72240042  0.91860450  0.23886050  1
  Te  Te124  1  0.75633416  0.90966218  0.59908669  1
  Te  Te125  1  0.75130868  0.92420426  0.90164794  1
  Te  Te126  1  0.25362006  0.24898763  0.08911941  1
  Te  Te127  1  0.23870456  0.29825358  0.41773311  1
  Te  Te128  1  0.25893497  0.28141910  0.75330933  1
  Te  Te129  1  0.24733888  0.58791105  0.07854947  1
  Te  Te130  1  0.23913486  0.54149310  0.40255767  1
  Te  Te131  1  0.23934794  0.57584122  0.74708577  1
  Te  Te132  1  0.23345216  0.92185428  0.08877679  1
  Te  Te133  1  0.25305386  0.92745299  0.43645072  1
  Te  Te134  1  0.24345189  0.92124112  0.75518201  1
  Te  Te135  1  0.58315897  0.26954558  0.10470450  1
  Te  Te136  1  0.58340407  0.25373445  0.43413534  1
  Te  Te137  1  0.58672042  0.24279897  0.74252500  1
  Te  Te138  1  0.58313272  0.56788585  0.07485680  1
  Te  Te139  1  0.56747617  0.56127036  0.40609050  1
  Te  Te140  1  0.55952288  0.58113267  0.74722143  1
  Te  Te141  1  0.56248666  0.91209247  0.08541046  1
  Te  Te142  1  0.57350824  0.89690220  0.47305664  1
  Te  Te143  1  0.57187788  0.91438863  0.75028407  1
  Te  Te144  1  0.90498874  0.28451143  0.06517895  1
  Te  Te145  1  0.92841013  0.27044860  0.39978553  1
  Te  Te146  1  0.90499795  0.25368392  0.74799452  1
  Te  Te147  1  0.93535398  0.57417839  0.09871122  1
  Te  Te148  1  0.93662520  0.56686949  0.42011680  1
  Te  Te149  1  0.89627834  0.59841663  0.76624252  1
  Te  Te150  1  0.94027875  0.92788329  0.05372467  1
  Te  Te151  1  0.92026111  0.90126256  0.41432931  1
  Te  Te152  1  0.95678703  0.91104044  0.72748687  1
  Te  Te153  1  0.23397489  0.11294418  0.27926687  1
  Te  Te154  1  0.26387407  0.09722040  0.58046446  1
  Te  Te155  1  0.24200451  0.08223378  0.92156397  1
  Te  Te156  1  0.31139381  0.36728755  0.26389200  1
  Te  Te157  1  0.25832522  0.39562740  0.54028723  1
  Te  Te158  1  0.26047449  0.41154429  0.91355979  1
  Te  Te159  1  0.23952552  0.73421265  0.24577395  1
  Te  Te160  1  0.23643610  0.74937185  0.58597511  1
  Te  Te161  1  0.25903893  0.74658790  0.91283265  1
  Te  Te162  1  0.57241662  0.09009628  0.28558660  1
  Te  Te163  1  0.61171844  0.10359506  0.55492652  1
  Te  Te164  1  0.59995662  0.10370260  0.93047902  1
  Te  Te165  1  0.55216640  0.41473897  0.26481875  1
  Te  Te166  1  0.57120527  0.42869680  0.59693017  1
  Te  Te167  1  0.59967667  0.40730043  0.91176277  1
  Te  Te168  1  0.58056752  0.75891483  0.25590139  1
  Te  Te169  1  0.57681778  0.76300100  0.57717849  1
  Te  Te170  1  0.57361237  0.72061573  0.91193949  1
  Te  Te171  1  0.92636264  0.07731775  0.25305487  1
  Te  Te172  1  0.92542880  0.08300645  0.58608233  1
  Te  Te173  1  0.92458230  0.08156406  0.92043926  1
  Te  Te174  1  0.89923047  0.38984364  0.29957532  1
  Te  Te175  1  0.90860343  0.40533302  0.55591219  1
  Te  Te176  1  0.94077386  0.42081305  0.91890213  1
  Te  Te177  1  0.89930225  0.73812449  0.25572391  1
  Te  Te178  1  0.90773086  0.74901448  0.59236503  1
  Te  Te179  1  0.88713500  0.74977936  0.90725334  1
