# generated using pymatgen
data_In2Te3
_symmetry_space_group_name_H-M   'P 1'
_cell_length_a   19.02561776
_cell_length_b   19.07297843
_cell_length_c   19.01044908
_cell_angle_alpha   90.18055798
_cell_angle_beta   89.86121572
_cell_angle_gamma   89.90344314
_symmetry_Int_Tables_number   1
_chemical_formula_structural   In2Te3
_chemical_formula_sum   'In72 Te108'
_cell_volume   6898.35608116
_cell_formula_units_Z   36
loop_
 _symmetry_equiv_pos_site_id
 _symmetry_equiv_pos_as_xyz
  1  'x, y, z'
loop_
 _atom_site_type_symbol
 _atom_site_label
 _atom_site_symmetry_multiplicity
 _atom_site_fract_x
 _atom_site_fract_y
 _atom_site_fract_z
 _atom_site_occupancy
  In  In0  1  0.51882216  0.00892357  0.79780408  1
  In  In1  1  0.68075016  -0.01113450  0.67063015  1
  In  In2  1  0.51253342  0.86685967  -0.02493129  1
  In  In3  1  0.53066615  0.17760534  0.65773320  1
  In  In4  1  0.32160925  0.33989035  0.35889425  1
  In  In5  1  0.31645111  0.32478712  0.00312927  1
  In  In6  1  0.00041152  0.82729671  0.82184199  1
  In  In7  1  -0.03546411  0.19350770  0.83223510  1
  In  In8  1  0.51888958  0.50008249  0.01644392  1
  In  In9  1  -0.03193712  0.19785855  0.50052465  1
  In  In10  1  0.66310431  0.02276973  0.32643688  1
  In  In11  1  0.46968172  0.69358548  0.78160338  1
  In  In12  1  0.81578546  0.82621221  0.34471635  1
  In  In13  1  0.31546524  0.86384710  0.18673120  1
  In  In14  1  0.64539020  0.83219178  0.16071049  1
  In  In15  1  0.48998374  0.17958405  0.35712780  1
  In  In16  1  0.50321589  0.50463476  0.66995344  1
  In  In17  1  -0.03540018  0.64075035  0.62093780  1
  In  In18  1  0.81407611  0.67269406  0.16942176  1
  In  In19  1  0.83322412  0.01772412  0.48905069  1
  In  In20  1  0.86652672  -0.00689770  0.16581973  1
  In  In21  1  0.70756130  0.18320853  0.80937288  1
  In  In22  1  0.51275363  -0.00451688  0.51303576  1
  In  In23  1  0.67214792  0.35649047  0.32953824  1
  In  In24  1  0.79066127  0.36022029  0.64452762  1
  In  In25  1  -0.01942579  0.80409342  0.51364172  1
  In  In26  1  0.15173937  0.84975418  0.36810487  1
  In  In27  1  0.48933710  0.34735709  0.85808468  1
  In  In28  1  0.34177077  -0.00890572  0.65301662  1
  In  In29  1  0.00587986  0.00254589  0.69547750  1
  In  In30  1  0.32490499  0.16649146  0.55358142  1
  In  In31  1  0.14766628  0.33211147  0.50995088  1
  In  In32  1  0.64591818  0.81109657  0.50955449  1
  In  In33  1  0.67423170  0.69000110  -0.02095333  1
  In  In34  1  0.35256149  0.50717320  0.82725516  1
  In  In35  1  0.30044776  0.14194776  0.15649502  1
  In  In36  1  0.02364937  0.17124049  0.17343427  1
  In  In37  1  0.01798489  0.66544748  -0.03010789  1
  In  In38  1  -0.02556087  0.48499314  0.17604915  1
  In  In39  1  0.68115516  0.33918327  -0.02381548  1
  In  In40  1  0.50034005  0.66840465  0.53837805  1
  In  In41  1  0.49514019  0.81330939  0.31182953  1
  In  In42  1  0.83446197  0.50672699  -0.00325341  1
  In  In43  1  0.15633148  0.15187638  -0.00613434  1
  In  In44  1  0.32827375  0.68782726  0.00290408  1
  In  In45  1  0.15679198  0.62751298  0.18743085  1
  In  In46  1  0.49850098  0.16423792  -0.02704384  1
  In  In47  1  0.35192111  0.49094798  0.20209325  1
  In  In48  1  0.52742241  0.36360011  0.49313878  1
  In  In49  1  0.69585904  -0.02396870  -0.02541253  1
  In  In50  1  0.16749289  0.00505929  0.50547648  1
  In  In51  1  0.68082808  0.50505705  0.52575322  1
  In  In52  1  0.16563793  0.50367570  0.00125738  1
  In  In53  1  0.83352939  0.32600433  0.14086138  1
  In  In54  1  0.15090640  0.48829462  0.35005777  1
  In  In55  1  0.17119355  0.29105699  0.78488889  1
  In  In56  1  0.00099585  0.81371500  0.14554679  1
  In  In57  1  0.16567880  0.64781310  0.84399937  1
  In  In58  1  0.16030608  0.16906322  0.32341022  1
  In  In59  1  0.82618153  0.68819449  0.80771468  1
  In  In60  1  0.17261539  0.66491955  0.51958451  1
  In  In61  1  0.69613639  0.63000158  0.35935237  1
  In  In62  1  0.32392246  0.68723262  0.36013870  1
  In  In63  1  -0.01102302  0.34094026  0.00588617  1
  In  In64  1  0.15302117  0.84191054  -0.03124823  1
  In  In65  1  0.33503063  0.00485720  -0.02106383  1
  In  In66  1  0.01214545  0.00222957  0.31721331  1
  In  In67  1  0.17620765  0.83638800  0.67278989  1
  In  In68  1  0.66556179  0.15996457  0.14557978  1
  In  In69  1  0.50880848  0.32051390  0.19619029  1
  In  In70  1  0.17203253  0.47162748  0.67677627  1
  In  In71  1  0.48521202  0.67192447  0.14905196  1
  Te  Te72  1  0.07891340  0.06886574  0.08520639  1
  Te  Te73  1  0.06703557  0.09172406  0.42783723  1
  Te  Te74  1  0.06910924  0.11481288  0.76457803  1
  Te  Te75  1  0.08425595  0.41758346  0.09475916  1
  Te  Te76  1  0.05878252  0.38836917  0.40665519  1
  Te  Te77  1  0.06767720  0.38151420  0.73287088  1
  Te  Te78  1  0.11212818  0.72526512  0.07313457  1
  Te  Te79  1  0.07798320  0.73115883  0.42035037  1
  Te  Te80  1  0.09040700  0.73317455  0.74412379  1
  Te  Te81  1  0.41709541  0.08832891  0.07598060  1
  Te  Te82  1  0.41350658  0.08666133  0.44713541  1
  Te  Te83  1  0.42117027  0.09903656  0.72781460  1
  Te  Te84  1  0.41563861  0.40907939  0.08339477  1
  Te  Te85  1  0.43166434  0.42489836  0.40068705  1
  Te  Te86  1  0.41230247  0.40003313  0.74088444  1
  Te  Te87  1  0.41920016  0.78560262  0.07867299  1
  Te  Te88  1  0.42897942  0.76256880  0.43572158  1
  Te  Te89  1  0.38945688  0.77347370  0.69200337  1
  Te  Te90  1  0.76342474  0.06608018  0.07971059  1
  Te  Te91  1  0.75903347  0.10476451  0.39853788  1
  Te  Te92  1  0.78013980  0.06480231  0.75414076  1
  Te  Te93  1  0.73812645  0.42912326  0.08344510  1
  Te  Te94  1  0.75979240  0.41286779  0.43599232  1
  Te  Te95  1  0.79614238  0.36886939  0.79190747  1
  Te  Te96  1  0.75578940  0.77550006  0.07374773  1
  Te  Te97  1  0.76414766  0.73081170  0.44808228  1
  Te  Te98  1  0.72562461  0.79875698  0.79563798  1
  Te  Te99  1  0.06440243  0.26924230  0.27652509  1
  Te  Te100  1  0.04510442  0.27459037  0.60062359  1
  Te  Te101  1  0.08650619  0.26899492  0.91386466  1
  Te  Te102  1  0.04817047  0.57562510  0.27577014  1
  Te  Te103  1  0.08925444  0.55806792  0.58273910  1
  Te  Te104  1  0.06604923  0.54392007  0.89417002  1
  Te  Te105  1  0.09020874  0.89857636  0.24015216  1
  Te  Te106  1  0.07211911  0.90710963  0.57868536  1
  Te  Te107  1  0.06631926  0.93411067  0.89872355  1
  Te  Te108  1  0.39263331  0.24408934  0.25255285  1
  Te  Te109  1  0.44424685  0.26156149  0.56875707  1
  Te  Te110  1  0.38980225  0.24041528  0.90076268  1
  Te  Te111  1  0.42239319  0.60653137  0.26758437  1
  Te  Te112  1  0.40429841  0.57195422  0.58812477  1
  Te  Te113  1  0.42105943  0.58626884  0.93567795  1
  Te  Te114  1  0.42603258  0.92711267  0.25527599  1
  Te  Te115  1  0.44833806  0.89814506  0.60606695  1
  Te  Te116  1  0.41664363  0.92590473  0.87728090  1
  Te  Te117  1  0.73975581  0.25187976  0.23649648  1
  Te  Te118  1  0.77051056  0.22238899  0.59721480  1
  Te  Te119  1  0.76799846  0.22492615  0.93812089  1
  Te  Te120  1  0.78463163  0.56519246  0.26247444  1
  Te  Te121  1  0.78369556  0.55953186  0.62260742  1
  Te  Te122  1  0.75196662  0.58754806  0.90022448  1
  Te  Te123  1  0.74978317  0.91812696  0.24392900  1
  Te  Te124  1  0.74848754  0.91275325  0.55884050  1
  Te  Te125  1  0.78272477  0.90592847  0.88025235  1
  Te  Te126  1  0.22216466  0.25271007  0.09479029  1
  Te  Te127  1  0.24949277  0.22852046  0.43143447  1
  Te  Te128  1  0.26039805  0.23791069  0.67967940  1
  Te  Te129  1  0.27131594  0.57241043  0.09305614  1
  Te  Te130  1  0.25170988  0.57232157  0.42535248  1
  Te  Te131  1  0.25739060  0.58511270  0.74185129  1
  Te  Te132  1  0.24493482  0.91857217  0.06587039  1
  Te  Te133  1  0.26091091  0.91934280  0.43211219  1
  Te  Te134  1  0.24202497  0.94293331  0.74704987  1
  Te  Te135  1  0.57352051  0.26199793  0.06380386  1
  Te  Te136  1  0.60281338  0.25321941  0.42123734  1
  Te  Te137  1  0.58562188  0.26050882  0.77159885  1
  Te  Te138  1  0.60315660  0.60371714  0.08770424  1
  Te  Te139  1  0.58133449  0.57900209  0.43992766  1
  Te  Te140  1  0.58204430  0.60634761  0.74441439  1
  Te  Te141  1  0.58547523  0.94431302  0.08092919  1
  Te  Te142  1  0.59229801  0.91557381  0.40674217  1
  Te  Te143  1  0.59736232  0.89339754  0.74758537  1
  Te  Te144  1  0.92278470  0.22449768  0.07296098  1
  Te  Te145  1  0.83975841  0.26841136  0.47120507  1
  Te  Te146  1  0.88090530  0.25609933  0.72098447  1
  Te  Te147  1  0.92675922  0.59762437  0.07839828  1
  Te  Te148  1  0.88594214  0.58249610  0.50617781  1
  Te  Te149  1  0.91208650  0.58388261  0.74839229  1
  Te  Te150  1  0.94072505  0.91785337  0.06433461  1
  Te  Te151  1  0.92515200  0.91120211  0.40927839  1
  Te  Te152  1  0.90947231  0.89418647  0.72445688  1
  Te  Te153  1  0.23854451  0.06281275  0.26061906  1
  Te  Te154  1  0.19925131  0.10369985  0.61245601  1
  Te  Te155  1  0.25112519  0.09325122  0.89966696  1
  Te  Te156  1  0.23765989  0.40860790  0.25209630  1
  Te  Te157  1  0.25706398  0.39482605  0.58381974  1
  Te  Te158  1  0.25144093  0.42168002  0.90667465  1
  Te  Te159  1  0.24680989  0.74004194  0.24150771  1
  Te  Te160  1  0.26682703  0.76161137  0.58047742  1
  Te  Te161  1  0.25729159  0.76029765  0.89270502  1
  Te  Te162  1  0.56575342  0.10366764  0.24509359  1
  Te  Te163  1  0.61603397  0.08659131  0.57293430  1
  Te  Te164  1  0.60274076  0.08012335  0.90245135  1
  Te  Te165  1  0.57694853  0.43536957  0.25009168  1
  Te  Te166  1  0.60700627  0.40722778  0.61626751  1
  Te  Te167  1  0.59831644  0.44268640  0.90037692  1
  Te  Te168  1  0.61414817  0.73192787  0.26908788  1
  Te  Te169  1  0.61701511  0.71531147  0.61758062  1
  Te  Te170  1  0.55201492  0.74015812  0.90607130  1
  Te  Te171  1  0.91394592  0.09978726  0.26072981  1
  Te  Te172  1  0.92790371  0.07969786  0.58733763  1
  Te  Te173  1  0.86255754  0.09780475  0.88265519  1
  Te  Te174  1  0.89901155  0.38995613  0.25551862  1
  Te  Te175  1  0.89133961  0.44614481  0.57716561  1
  Te  Te176  1  0.89750909  0.40463191  0.90655505  1
  Te  Te177  1  0.91252517  0.75222478  0.25318756  1
  Te  Te178  1  0.88368216  0.76751408  0.61912508  1
  Te  Te179  1  0.91068066  0.75366662  0.92036945  1
