# generated using pymatgen
data_In2Te3
_symmetry_space_group_name_H-M   'P 1'
_cell_length_a   18.80392423
_cell_length_b   18.80539277
_cell_length_c   18.79712349
_cell_angle_alpha   89.98810958
_cell_angle_beta   90.18075261
_cell_angle_gamma   89.92220340
_symmetry_Int_Tables_number   1
_chemical_formula_structural   In2Te3
_chemical_formula_sum   'In72 Te108'
_cell_volume   6646.90886713
_cell_formula_units_Z   36
loop_
 _symmetry_equiv_pos_site_id
 _symmetry_equiv_pos_as_xyz
  1  'x, y, z'
loop_
 _atom_site_type_symbol
 _atom_site_label
 _atom_site_symmetry_multiplicity
 _atom_site_fract_x
 _atom_site_fract_y
 _atom_site_fract_z
 _atom_site_occupancy
  In  In0  1  0.32443077  -0.00807779  -0.00095819  1
  In  In1  1  0.51186226  0.01314300  0.18034984  1
  In  In2  1  0.67930260  0.00645557  0.33424857  1
  In  In3  1  -0.01306565  0.00671309  0.32550916  1
  In  In4  1  0.16470637  0.32169910  0.51186794  1
  In  In5  1  0.67315085  0.82730790  0.16228871  1
  In  In6  1  0.31709522  0.81700576  0.49213132  1
  In  In7  1  0.50523255  0.65178645  0.47162495  1
  In  In8  1  -0.00177927  0.14370819  0.14867922  1
  In  In9  1  0.18483796  0.32074029  0.82876389  1
  In  In10  1  0.50012150  -0.00014278  0.47230177  1
  In  In11  1  0.65160789  0.47332367  0.86653775  1
  In  In12  1  -0.00859237  0.33209597  0.01467576  1
  In  In13  1  -0.02297235  0.86164655  0.15148199  1
  In  In14  1  0.67041454  0.17534881  0.83675377  1
  In  In15  1  0.79201609  0.31848744  0.18786533  1
  In  In16  1  0.85110951  0.15296297  0.66455680  1
  In  In17  1  0.36030405  0.49451425  0.85855404  1
  In  In18  1  0.68926022  0.03875552  0.01905393  1
  In  In19  1  0.00821862  0.87117029  0.86618493  1
  In  In20  1  0.68134234  -0.00713225  0.67722081  1
  In  In21  1  0.17413597  0.52786862  -0.01398141  1
  In  In22  1  0.50439788  0.84047602  0.66966444  1
  In  In23  1  0.34203893  0.14339164  0.49665933  1
  In  In24  1  0.50162932  0.32260454  0.47957180  1
  In  In25  1  0.33922340  0.00536166  0.32461314  1
  In  In26  1  0.00213786  0.66296075  0.00151623  1
  In  In27  1  0.16150505  0.51424247  0.67968626  1
  In  In28  1  0.30829320  0.00409409  0.67039147  1
  In  In29  1  0.82014178  0.33510451  0.84477996  1
  In  In30  1  0.47527759  0.82971537  0.02780833  1
  In  In31  1  0.17141018  0.82835853  0.33589778  1
  In  In32  1  -0.00530442  0.51050711  0.16894586  1
  In  In33  1  0.83276373  0.67310006  0.82924437  1
  In  In34  1  -0.00089109  0.32593291  0.65906572  1
  In  In35  1  0.18396712  0.31469452  0.15722712  1
  In  In36  1  0.30450852  0.66528853  0.64241332  1
  In  In37  1  0.85273506  0.83914955  0.66566186  1
  In  In38  1  0.30975311  0.84188125  0.84070505  1
  In  In39  1  0.82643776  0.83464375  0.32944254  1
  In  In40  1  0.64585403  0.65517448  0.04565969  1
  In  In41  1  0.15934749  0.69408785  0.50933219  1
  In  In42  1  0.48712325  0.48859682  0.68571084  1
  In  In43  1  0.33678470  0.16900507  0.18262859  1
  In  In44  1  0.16792828  0.47013122  0.35442842  1
  In  In45  1  0.52948860  0.19191340  0.01553049  1
  In  In46  1  0.69237081  0.50296559  0.49385492  1
  In  In47  1  -0.00918466  0.67823527  0.67182543  1
  In  In48  1  0.31912954  0.47650582  0.48697255  1
  In  In49  1  0.83353272  0.33129585  0.48977539  1
  In  In50  1  0.83003844  0.51158546  0.31858976  1
  In  In51  1  -0.00835247  0.31449964  0.35658341  1
  In  In52  1  0.37872762  0.49259503  0.15245104  1
  In  In53  1  0.67778746  0.85393416  0.85784393  1
  In  In54  1  0.67656527  0.84495560  0.48568008  1
  In  In55  1  0.66623621  0.67776894  0.30397888  1
  In  In56  1  0.16632467  0.69844883  0.85525773  1
  In  In57  1  0.48728345  0.66988229  0.84425534  1
  In  In58  1  0.49455655  0.16876560  0.66634917  1
  In  In59  1  0.17222811  0.15250085  0.02029887  1
  In  In60  1  0.02174210  -0.01301999  0.66742394  1
  In  In61  1  0.36353860  0.32866718  0.31942788  1
  In  In62  1  0.16791359  0.68528695  0.17521026  1
  In  In63  1  0.17026649  0.14338428  0.33432590  1
  In  In64  1  0.68113834  0.64845214  0.64971044  1
  In  In65  1  0.33798605  0.65442570  0.30688246  1
  In  In66  1  0.34584376  0.17830281  0.83587535  1
  In  In67  1  0.67281335  0.34539998  0.67914283  1
  In  In68  1  -0.01142532  0.68021096  0.33883524  1
  In  In69  1  0.82353052  0.48681309  0.00615530  1
  In  In70  1  -0.00616155  0.12549319  0.86040324  1
  In  In71  1  0.66176932  0.16919547  0.47225371  1
  Te  Te72  1  0.07416800  0.04619067  0.06282610  1
  Te  Te73  1  0.07036081  0.08461435  0.42275552  1
  Te  Te74  1  0.09241602  0.07930136  0.76240919  1
  Te  Te75  1  0.09257197  0.42489739  0.08560591  1
  Te  Te76  1  0.06100134  0.41662495  0.44694542  1
  Te  Te77  1  0.08244239  0.41049705  0.75814963  1
  Te  Te78  1  0.08140399  0.76590900  0.08028830  1
  Te  Te79  1  0.06022422  0.78060383  0.42955375  1
  Te  Te80  1  0.07078813  0.77208284  0.76452916  1
  Te  Te81  1  0.42178689  0.08707888  0.07530672  1
  Te  Te82  1  0.43823537  0.10744045  0.38418866  1
  Te  Te83  1  0.41963024  0.06931077  0.75273619  1
  Te  Te84  1  0.44565840  0.39630368  0.05939947  1
  Te  Te85  1  0.43542741  0.43821273  0.39770058  1
  Te  Te86  1  0.39436025  0.39773850  0.75198895  1
  Te  Te87  1  0.39323376  0.71318544  0.05930589  1
  Te  Te88  1  0.41855310  0.75397716  0.39889483  1
  Te  Te89  1  0.40393164  0.74995486  0.74056163  1
  Te  Te90  1  0.79619787  0.11276223  0.09376998  1
  Te  Te91  1  0.76792630  0.07538747  0.43106332  1
  Te  Te92  1  0.76689754  0.07760609  0.76985983  1
  Te  Te93  1  0.72709306  0.40232578  0.08050376  1
  Te  Te94  1  0.74488404  0.40517855  0.38907407  1
  Te  Te95  1  0.75632777  0.44404180  0.75683468  1
  Te  Te96  1  0.75563769  0.75020004  0.06767951  1
  Te  Te97  1  0.75334985  0.73241022  0.41862027  1
  Te  Te98  1  0.73113747  0.76474882  0.74182841  1
  Te  Te99  1  0.07946504  0.24401962  0.24258983  1
  Te  Te100  1  0.07318475  0.22787782  0.57809783  1
  Te  Te101  1  0.08216138  0.24503303  0.92852418  1
  Te  Te102  1  0.09159866  0.58087579  0.26506322  1
  Te  Te103  1  0.07652539  0.58598966  0.57670505  1
  Te  Te104  1  0.06924338  0.58369424  0.89069953  1
  Te  Te105  1  0.08465247  0.91719277  0.24537115  1
  Te  Te106  1  0.09414527  0.88767156  0.58627044  1
  Te  Te107  1  0.11441647  0.93183955  0.95242648  1
  Te  Te108  1  0.45221302  0.25379790  0.22593035  1
  Te  Te109  1  0.40560882  0.25663679  0.57756350  1
  Te  Te110  1  0.44090147  0.26463282  0.91582430  1
  Te  Te111  1  0.45415019  0.59513437  0.23229525  1
  Te  Te112  1  0.41773913  0.57931157  0.57546988  1
  Te  Te113  1  0.43159852  0.58585985  0.95479831  1
  Te  Te114  1  0.41032721  0.91798993  0.22906760  1
  Te  Te115  1  0.41512774  0.91810766  0.57035303  1
  Te  Te116  1  0.42390001  0.91485445  0.91050612  1
  Te  Te117  1  0.72230214  0.21911951  0.27365504  1
  Te  Te118  1  0.73851408  0.23868248  0.59357001  1
  Te  Te119  1  0.73189642  0.26402977  0.93803845  1
  Te  Te120  1  0.73971761  0.57691815  0.22100338  1
  Te  Te121  1  0.78783514  0.57836360  0.57749338  1
  Te  Te122  1  0.73339796  0.59056250  0.92242738  1
  Te  Te123  1  0.76206208  0.93035123  0.22925095  1
  Te  Te124  1  0.76907242  0.93038821  0.57070122  1
  Te  Te125  1  0.76994159  0.93034627  0.94678036  1
  Te  Te126  1  0.28221760  0.25054129  0.06324688  1
  Te  Te127  1  0.25389781  0.25691435  0.40033421  1
  Te  Te128  1  0.24755660  0.22708633  0.73519425  1
  Te  Te129  1  0.25033228  0.57598845  0.10724265  1
  Te  Te130  1  0.24836012  0.59934264  0.42150260  1
  Te  Te131  1  0.25681957  0.59201917  0.77149762  1
  Te  Te132  1  0.22794657  0.89360447  0.05134172  1
  Te  Te133  1  0.24545087  0.93213946  0.42090345  1
  Te  Te134  1  0.21945955  0.93454125  0.76741619  1
  Te  Te135  1  0.60862867  0.27109103  0.11640672  1
  Te  Te136  1  0.59574224  0.26586385  0.37839890  1
  Te  Te137  1  0.57197241  0.26368609  0.75780295  1
  Te  Te138  1  0.57952891  0.55106438  0.12645182  1
  Te  Te139  1  0.59856677  0.56581938  0.39035258  1
  Te  Te140  1  0.58395156  0.58652017  0.75287349  1
  Te  Te141  1  0.58575372  0.92911607  0.07141286  1
  Te  Te142  1  0.57711840  0.90254241  0.38475656  1
  Te  Te143  1  0.57655079  0.93035347  0.76855682  1
  Te  Te144  1  0.89025704  0.24399222  0.08289516  1
  Te  Te145  1  0.89740703  0.21953758  0.41656277  1
  Te  Te146  1  0.91867811  0.24065781  0.77479508  1
  Te  Te147  1  0.89714282  0.59378472  0.08789073  1
  Te  Te148  1  0.92640015  0.56968957  0.41297975  1
  Te  Te149  1  0.91570641  0.57938724  0.75330144  1
  Te  Te150  1  0.89998683  0.94243133  0.05125080  1
  Te  Te151  1  0.91501174  0.91324824  0.41606702  1
  Te  Te152  1  0.90945112  0.93429276  0.76772532  1
  Te  Te153  1  0.23496085  0.06378395  0.22262039  1
  Te  Te154  1  0.23211066  0.08319577  0.57129992  1
  Te  Te155  1  0.24653737  0.08473272  0.90577298  1
  Te  Te156  1  0.26359435  0.42288922  0.24162993  1
  Te  Te157  1  0.24886808  0.41201127  0.60373934  1
  Te  Te158  1  0.25552643  0.41071662  0.93314279  1
  Te  Te159  1  0.27459221  0.77597915  0.23590885  1
  Te  Te160  1  0.21842461  0.79550944  0.61481017  1
  Te  Te161  1  0.27493339  0.74135376  0.95063084  1
  Te  Te162  1  0.62010350  0.10368827  0.23333032  1
  Te  Te163  1  0.58365968  0.07393241  0.58207912  1
  Te  Te164  1  0.58100925  0.08297958  0.91896861  1
  Te  Te165  1  0.54223405  0.39626163  0.18393117  1
  Te  Te166  1  0.58324718  0.41879910  0.57600259  1
  Te  Te167  1  0.54020210  0.40497450  0.93311201  1
  Te  Te168  1  0.56345825  0.75663544  0.23149123  1
  Te  Te169  1  0.58124045  0.74942569  0.57230125  1
  Te  Te170  1  0.58261523  0.75587878  0.92937082  1
  Te  Te171  1  0.89330686  0.08343134  0.23464716  1
  Te  Te172  1  0.93973501  0.07533775  0.57801161  1
  Te  Te173  1  0.89873372  0.07081192  0.96027532  1
  Te  Te174  1  0.92133858  0.39738851  0.24056602  1
  Te  Te175  1  0.89804638  0.41232922  0.59463268  1
  Te  Te176  1  0.92654921  0.42537780  0.91347222  1
  Te  Te177  1  0.90718550  0.74848007  0.23062631  1
  Te  Te178  1  0.91043987  0.74698475  0.56782132  1
  Te  Te179  1  0.91461773  0.76097554  0.92279663  1
