# generated using pymatgen
data_In2Te3
_symmetry_space_group_name_H-M   'P 1'
_cell_length_a   19.03811357
_cell_length_b   19.01833974
_cell_length_c   18.99487827
_cell_angle_alpha   89.92882241
_cell_angle_beta   90.05017061
_cell_angle_gamma   90.12830577
_symmetry_Int_Tables_number   1
_chemical_formula_structural   In2Te3
_chemical_formula_sum   'In72 Te108'
_cell_volume   6877.51331268
_cell_formula_units_Z   36
loop_
 _symmetry_equiv_pos_site_id
 _symmetry_equiv_pos_as_xyz
  1  'x, y, z'
loop_
 _atom_site_type_symbol
 _atom_site_label
 _atom_site_symmetry_multiplicity
 _atom_site_fract_x
 _atom_site_fract_y
 _atom_site_fract_z
 _atom_site_occupancy
  In  In0  1  0.31420981  0.15115011  0.81730856  1
  In  In1  1  0.66146180  0.13744001  0.47187728  1
  In  In2  1  0.20730119  0.68582528  0.17390329  1
  In  In3  1  0.67882691  0.36099758  0.64093479  1
  In  In4  1  0.66132783  0.67972381  0.31833614  1
  In  In5  1  0.66379755  0.29993080  0.00219316  1
  In  In6  1  0.01474725  -0.00655264  0.67011745  1
  In  In7  1  0.65544692  0.51180349  0.48266666  1
  In  In8  1  0.18182230  0.00193194  0.48365283  1
  In  In9  1  0.01992472  0.80813118  0.16137501  1
  In  In10  1  0.02057165  0.34588018  0.65218485  1
  In  In11  1  0.48821635  0.50107646  0.00786066  1
  In  In12  1  0.84153856  0.79637513  -0.02821427  1
  In  In13  1  0.68538056  -0.01855444  0.63315706  1
  In  In14  1  0.66932268  0.83356644  0.83617193  1
  In  In15  1  0.85671911  0.16761776  0.67314086  1
  In  In16  1  0.02093397  0.16913759  0.53869070  1
  In  In17  1  0.34757139  0.50146738  0.49233545  1
  In  In18  1  0.84481095  0.53824454  0.67910911  1
  In  In19  1  0.16743239  0.31380284  0.15393274  1
  In  In20  1  0.47877473  0.17122232  0.69162730  1
  In  In21  1  0.32790143  0.13650740  0.15857619  1
  In  In22  1  0.16305215  -0.02646605  0.14590243  1
  In  In23  1  -0.01528906  0.16859135  0.18256540  1
  In  In24  1  0.48724838  0.87508885  -0.02605711  1
  In  In25  1  0.49060144  0.13976244  -0.00825659  1
  In  In26  1  0.67652312  0.51066969  0.82109480  1
  In  In27  1  0.65420132  0.15975474  0.83026306  1
  In  In28  1  0.00669343  0.83495036  0.84210097  1
  In  In29  1  0.33285155  0.49411830  0.85299520  1
  In  In30  1  0.66386276  0.82182007  0.49098412  1
  In  In31  1  0.49637023  0.83155407  0.66111205  1
  In  In32  1  0.17405845  0.67009381  0.84091912  1
  In  In33  1  0.19893289  0.83206269  -0.02212287  1
  In  In34  1  0.46809671  0.68817466  0.15479174  1
  In  In35  1  0.62710394  0.66202203  0.00433618  1
  In  In36  1  0.49441179  0.34067394  0.84127716  1
  In  In37  1  0.81911201  -0.02126914  0.15605991  1
  In  In38  1  0.16759449  0.01094544  0.83369054  1
  In  In39  1  0.16434487  0.48631007  0.33422777  1
  In  In40  1  0.16651250  0.51300704  0.65021459  1
  In  In41  1  0.81925026  0.49922737  0.35020005  1
  In  In42  1  0.00133110  0.66583916  0.32125507  1
  In  In43  1  0.32269195  0.18035523  0.53745774  1
  In  In44  1  -0.02310064  0.82450976  0.50387677  1
  In  In45  1  -0.02210021  0.01981854  0.01018209  1
  In  In46  1  -0.00781296  0.34763166  0.36046394  1
  In  In47  1  0.34509241  -0.01805510  0.67912935  1
  In  In48  1  0.62867952  0.30710397  0.32054456  1
  In  In49  1  0.35942883  0.70116740  0.36078417  1
  In  In50  1  0.84801722  0.51623294  0.01281880  1
  In  In51  1  0.49486560  -0.01131762  0.51965434  1
  In  In52  1  0.66523664  0.66527969  0.67748164  1
  In  In53  1  0.63713190  0.83878374  0.14344178  1
  In  In54  1  0.01932743  0.53361472  0.50430395  1
  In  In55  1  0.18791279  0.17444164  0.36465694  1
  In  In56  1  0.34496441  -0.01013034  0.32989050  1
  In  In57  1  0.32668598  0.50047493  0.15864807  1
  In  In58  1  0.00977461  0.35746703  -0.01269020  1
  In  In59  1  0.66001006  0.12701733  0.15830346  1
  In  In60  1  0.15828743  0.66414289  0.50491099  1
  In  In61  1  0.64374114  0.45128381  0.19717801  1
  In  In62  1  0.17535356  0.50666872  -0.01139468  1
  In  In63  1  0.82627190  0.13405131  0.34653588  1
  In  In64  1  0.34076811  0.68192279  0.64265813  1
  In  In65  1  0.84804489  0.66946127  0.16987902  1
  In  In66  1  0.86861960  -0.00244770  0.82425114  1
  In  In67  1  0.48814787  0.14698695  0.32110621  1
  In  In68  1  0.47729040  0.34463963  0.17543313  1
  In  In69  1  0.84377876  0.33042872  0.18337037  1
  In  In70  1  0.16422881  0.17244308  -0.03314490  1
  In  In71  1  0.82730080  0.33141221  0.51826083  1
  Te  Te72  1  0.08768885  0.10137258  0.08733575  1
  Te  Te73  1  0.07451531  0.09145478  0.42105425  1
  Te  Te74  1  0.06058126  0.09206661  0.77094678  1
  Te  Te75  1  0.09226468  0.42769949  0.09339758  1
  Te  Te76  1  0.09506059  0.41298456  0.44815657  1
  Te  Te77  1  0.07359509  0.44815862  0.74579526  1
  Te  Te78  1  0.11314089  0.73932264  0.06642127  1
  Te  Te79  1  0.08098518  0.75535017  0.41074908  1
  Te  Te80  1  0.12061934  0.78594722  0.76123195  1
  Te  Te81  1  0.43583375  0.05149479  0.10049735  1
  Te  Te82  1  0.40347698  0.08524648  0.44033753  1
  Te  Te83  1  0.43738851  0.05416635  0.78020707  1
  Te  Te84  1  0.39203832  0.40002592  0.06389380  1
  Te  Te85  1  0.40195401  0.40799131  0.39483035  1
  Te  Te86  1  0.41841029  0.42788084  0.75377328  1
  Te  Te87  1  0.40740715  0.79531977  0.07444220  1
  Te  Te88  1  0.43564987  0.80813695  0.42836324  1
  Te  Te89  1  0.39988533  0.76635472  0.75136988  1
  Te  Te90  1  0.77763483  0.09585489  0.07944284  1
  Te  Te91  1  0.75211301  0.03095317  0.42470976  1
  Te  Te92  1  0.75682609  0.07075673  0.74226935  1
  Te  Te93  1  0.74409763  0.40103841  0.09167745  1
  Te  Te94  1  0.73657602  0.38389821  0.40593751  1
  Te  Te95  1  0.76915238  0.41958942  0.74528581  1
  Te  Te96  1  0.74072193  0.74033874  0.07515529  1
  Te  Te97  1  0.75598440  0.73913793  0.41202341  1
  Te  Te98  1  0.75957447  0.73140168  0.77445902  1
  Te  Te99  1  0.07778373  0.25553355  0.26917333  1
  Te  Te100  1  0.12111752  0.23953826  0.62243483  1
  Te  Te101  1  0.10544146  0.28727523  0.89637623  1
  Te  Te102  1  0.10592399  0.59233066  0.24239851  1
  Te  Te103  1  0.05699440  0.62948317  0.62178561  1
  Te  Te104  1  0.08832290  0.55415454  0.87783850  1
  Te  Te105  1  0.07243987  0.91696050  0.24401708  1
  Te  Te106  1  0.08765458  0.91474562  0.56566311  1
  Te  Te107  1  0.08137725  0.93072412  0.94167575  1
  Te  Te108  1  0.39437079  0.23899316  0.24871155  1
  Te  Te109  1  0.39344926  0.27352894  0.62913599  1
  Te  Te110  1  0.40958070  0.23346250  0.90603640  1
  Te  Te111  1  0.39816005  0.59570830  0.25168669  1
  Te  Te112  1  0.43116837  0.59889048  0.56330975  1
  Te  Te113  1  0.41417823  0.59394932  0.92480022  1
  Te  Te114  1  0.45210766  0.96782236  0.23268044  1
  Te  Te115  1  0.38615707  0.88835258  0.55859545  1
  Te  Te116  1  0.39225274  0.96157832  0.90081859  1
  Te  Te117  1  0.74721268  0.23214853  0.25229996  1
  Te  Te118  1  0.74079797  0.22336524  0.57998043  1
  Te  Te119  1  0.75167151  0.24135785  0.90283508  1
  Te  Te120  1  0.75114064  0.56929536  0.23514987  1
  Te  Te121  1  0.74759854  0.58985525  0.57420469  1
  Te  Te122  1  0.73931517  0.58968924  0.93322457  1
  Te  Te123  1  0.73636952  0.89255215  0.23760314  1
  Te  Te124  1  0.76545703  0.86802264  0.59016846  1
  Te  Te125  1  0.77377606  0.91833678  0.91146201  1
  Te  Te126  1  0.26095132  0.23611473  0.06588206  1
  Te  Te127  1  0.27034990  0.27243789  0.43339344  1
  Te  Te128  1  0.25150715  0.24048967  0.72155211  1
  Te  Te129  1  0.26946230  0.60180024  0.06261556  1
  Te  Te130  1  0.24698236  0.59454203  0.40287216  1
  Te  Te131  1  0.26144642  0.58693453  0.74032940  1
  Te  Te132  1  0.27444329  0.89528341  0.09063180  1
  Te  Te133  1  0.24040931  0.90580973  0.38772510  1
  Te  Te134  1  0.22927006  0.91164228  0.74334368  1
  Te  Te135  1  0.56346308  0.24000309  0.09957892  1
  Te  Te136  1  0.55417125  0.23560875  0.43107924  1
  Te  Te137  1  0.59212260  0.27020258  0.74508705  1
  Te  Te138  1  0.57226395  0.57126925  0.11776464  1
  Te  Te139  1  0.57174008  0.59610990  0.39824107  1
  Te  Te140  1  0.57098307  0.58396727  0.75550743  1
  Te  Te141  1  0.60077685  0.94123298  0.04446228  1
  Te  Te142  1  0.56138609  0.90433078  0.41629781  1
  Te  Te143  1  0.59308699  0.91991365  0.73778013  1
  Te  Te144  1  0.92576601  0.26001014  0.07849181  1
  Te  Te145  1  0.91138275  0.23772714  0.42704141  1
  Te  Te146  1  0.92137676  0.27960655  0.73808899  1
  Te  Te147  1  0.94296508  0.59626510  0.08836585  1
  Te  Te148  1  0.90874908  0.59794290  0.42080222  1
  Te  Te149  1  0.89037753  0.64588275  0.76793341  1
  Te  Te150  1  0.91949986  0.88707897  0.07010574  1
  Te  Te151  1  0.88791204  0.93886589  0.47647196  1
  Te  Te152  1  0.91926144  0.89145396  0.73047295  1
  Te  Te153  1  0.22889186  0.07523683  0.25593052  1
  Te  Te154  1  0.24596851  0.06894013  0.60355996  1
  Te  Te155  1  0.27073451  0.05679113  0.93705090  1
  Te  Te156  1  0.25225467  0.40082871  0.24638402  1
  Te  Te157  1  0.24669182  0.42448590  0.56886641  1
  Te  Te158  1  0.23704006  0.39712803  0.91026038  1
  Te  Te159  1  0.27570790  0.77909178  0.26612621  1
  Te  Te160  1  0.24323040  0.76321609  0.56942349  1
  Te  Te161  1  0.28674056  0.75766896  0.88543629  1
  Te  Te162  1  0.59197687  0.05493706  0.26831919  1
  Te  Te163  1  0.57380169  0.09268582  0.59895205  1
  Te  Te164  1  0.60471394  0.06584802  0.93385081  1
  Te  Te165  1  0.52482562  0.42289649  0.30119055  1
  Te  Te166  1  0.57322023  0.42206186  0.56452846  1
  Te  Te167  1  0.59312982  0.41990575  0.93297997  1
  Te  Te168  1  0.55630496  0.76679910  0.24853126  1
  Te  Te169  1  0.57368658  0.73436073  0.57750158  1
  Te  Te170  1  0.56047348  0.75506317  0.90736012  1
  Te  Te171  1  0.91619458  0.05567842  0.25458625  1
  Te  Te172  1  0.90998755  0.06430022  0.57226500  1
  Te  Te173  1  0.94218650  0.10498786  0.89504995  1
  Te  Te174  1  0.92617819  0.43463612  0.25775107  1
  Te  Te175  1  0.91253842  0.44167335  0.57380625  1
  Te  Te176  1  0.91095544  0.43472879  0.91098448  1
  Te  Te177  1  0.90884119  0.77063263  0.26304891  1
  Te  Te178  1  0.93791577  0.71931583  0.59932454  1
  Te  Te179  1  0.94849663  0.71626551  0.91069991  1
