# generated using pymatgen
data_In2Te3
_symmetry_space_group_name_H-M   'P 1'
_cell_length_a   18.83806748
_cell_length_b   18.83368128
_cell_length_c   18.81950313
_cell_angle_alpha   90.02720636
_cell_angle_beta   89.89900847
_cell_angle_gamma   89.93845181
_symmetry_Int_Tables_number   1
_chemical_formula_structural   In2Te3
_chemical_formula_sum   'In72 Te108'
_cell_volume   6676.95952314
_cell_formula_units_Z   36
loop_
 _symmetry_equiv_pos_site_id
 _symmetry_equiv_pos_as_xyz
  1  'x, y, z'
loop_
 _atom_site_type_symbol
 _atom_site_label
 _atom_site_symmetry_multiplicity
 _atom_site_fract_x
 _atom_site_fract_y
 _atom_site_fract_z
 _atom_site_occupancy
  In  In0  1  0.81241409  0.49024850  0.31740351  1
  In  In1  1  0.83177478  0.82749550  0.34288878  1
  In  In2  1  0.15283101  0.69102415  0.14577204  1
  In  In3  1  0.34112737  0.53347590  0.82761638  1
  In  In4  1  0.16686675  0.84845750  0.34060164  1
  In  In5  1  0.34002140  0.35626744  0.66114100  1
  In  In6  1  -0.00604341  0.32880467  0.66211610  1
  In  In7  1  0.48743521  0.67657784  0.50864363  1
  In  In8  1  0.32429425  0.15241369  0.18029868  1
  In  In9  1  0.01424929  -0.01861537  0.68019753  1
  In  In10  1  0.19082657  0.70357127  0.52820296  1
  In  In11  1  0.32813824  0.16028200  0.85420291  1
  In  In12  1  0.17694333  0.32320741  0.85327763  1
  In  In13  1  0.52909924  0.14892474  0.66529964  1
  In  In14  1  0.83402322  0.15959924  0.65563371  1
  In  In15  1  0.63270705  -0.03107864  0.65089615  1
  In  In16  1  0.17319664  0.86705138  0.00562102  1
  In  In17  1  0.35668677  0.68132279  0.34467846  1
  In  In18  1  0.65240773  0.52214062  0.17727397  1
  In  In19  1  -0.01099841  0.87071230  0.16813686  1
  In  In20  1  0.35705369  0.83091121  0.81149678  1
  In  In21  1  0.33122530  0.16710052  0.51217485  1
  In  In22  1  0.67767316  0.82182782  0.17231738  1
  In  In23  1  0.50287843  0.34327099  0.46707606  1
  In  In24  1  0.83447456  0.50955339  0.00114543  1
  In  In25  1  0.65723577  0.48283568  0.82591457  1
  In  In26  1  0.15959289  0.50492760  0.35149114  1
  In  In27  1  0.48597552  0.01324528  0.16166656  1
  In  In28  1  -0.00004572  0.52272765  0.85008203  1
  In  In29  1  0.13378628  0.53383236  -0.02586669  1
  In  In30  1  0.66534990  0.51520715  0.50927998  1
  In  In31  1  0.49543636  0.48392850  0.32566629  1
  In  In32  1  0.13964832  0.29922821  0.19310898  1
  In  In33  1  -0.00248695  0.84118678  0.52166096  1
  In  In34  1  0.83231179  0.00838638  0.49096096  1
  In  In35  1  0.83476093  0.83978142  0.65922391  1
  In  In36  1  0.01275261  0.69321391  0.67639184  1
  In  In37  1  0.34971725  -0.02524853  0.63666691  1
  In  In38  1  0.66949506  0.66964745  0.65766908  1
  In  In39  1  0.17119815  0.52140000  0.69326088  1
  In  In40  1  -0.00725063  -0.00630188  -0.00670101  1
  In  In41  1  0.82498348  0.32839924  0.17885518  1
  In  In42  1  0.16505747  0.13762446  0.67431295  1
  In  In43  1  0.48990028  0.51355674  0.66574956  1
  In  In44  1  0.68882752  0.67145409  0.31873763  1
  In  In45  1  0.17666671  0.14786582  0.00045076  1
  In  In46  1  0.83875891  -0.01644155  0.84463839  1
  In  In47  1  0.65395478  0.31392007  -0.00262589  1
  In  In48  1  0.81355968  0.32851346  0.83245266  1
  In  In49  1  0.01259008  0.32031817  0.02212268  1
  In  In50  1  -0.02532079  0.49976554  0.13987448  1
  In  In51  1  0.35120179  0.67227453  -0.00605398  1
  In  In52  1  0.33322098  0.48950040  0.16858839  1
  In  In53  1  0.33538283  0.85447431  0.15815117  1
  In  In54  1  0.49320570  0.83637453  -0.00990726  1
  In  In55  1  0.35183450  0.33569659  -0.00291094  1
  In  In56  1  0.49797112  -0.00427370  0.82887515  1
  In  In57  1  0.67385547  0.14808588  0.83069627  1
  In  In58  1  0.85438691  0.67803910  0.82489895  1
  In  In59  1  -0.01435654  0.49812342  0.50861815  1
  In  In60  1  0.67419065  0.32116657  0.32204423  1
  In  In61  1  -0.00767819  0.66093659  0.32561024  1
  In  In62  1  0.68472495  0.30839173  0.65575034  1
  In  In63  1  -0.00569840  0.14013692  0.42126734  1
  In  In64  1  0.49032602  0.16038921  0.31760076  1
  In  In65  1  0.68499952  0.00194188  -0.00701438  1
  In  In66  1  0.68161726  0.15805727  0.17199220  1
  In  In67  1  -0.02933352  0.12766452  0.19625645  1
  In  In68  1  0.16916505  0.32324258  0.51089844  1
  In  In69  1  0.66003100  0.68939530  0.00122696  1
  In  In70  1  0.32720375  -0.00965406  0.33802800  1
  In  In71  1  0.35352935  0.32977577  0.35160209  1
  Te  Te72  1  0.07819801  0.08152086  0.09369202  1
  Te  Te73  1  0.10176829  0.04860225  0.38371818  1
  Te  Te74  1  0.07972475  0.07512050  0.77574297  1
  Te  Te75  1  0.10204208  0.42424139  0.08658397  1
  Te  Te76  1  0.07244511  0.40348175  0.42318756  1
  Te  Te77  1  0.08505349  0.41252491  0.76088486  1
  Te  Te78  1  0.06264872  0.77670586  0.06386636  1
  Te  Te79  1  0.08014239  0.74297169  0.41914882  1
  Te  Te80  1  0.07886975  0.76901216  0.78329890  1
  Te  Te81  1  0.39308234  0.08253110  0.07089867  1
  Te  Te82  1  0.42124411  0.07795568  0.42663433  1
  Te  Te83  1  0.40595252  0.08679622  0.73159127  1
  Te  Te84  1  0.43199996  0.42918525  0.07777413  1
  Te  Te85  1  0.39707138  0.44888129  0.43760861  1
  Te  Te86  1  0.42529084  0.41803617  0.76798245  1
  Te  Te87  1  0.42888448  0.75030174  0.09936207  1
  Te  Te88  1  0.40747242  0.78411904  0.43881767  1
  Te  Te89  1  0.39540103  0.72110118  0.71468129  1
  Te  Te90  1  0.77227822  0.07392571  0.09003326  1
  Te  Te91  1  0.76099770  0.06982852  0.37556859  1
  Te  Te92  1  0.74550064  0.05678225  0.73161699  1
  Te  Te93  1  0.74475832  0.41874080  0.08475378  1
  Te  Te94  1  0.74203472  0.41117105  0.42626498  1
  Te  Te95  1  0.75795203  0.42299998  0.72760599  1
  Te  Te96  1  0.76733462  0.76635455  0.06735935  1
  Te  Te97  1  0.74083835  0.75114221  0.43048093  1
  Te  Te98  1  0.74746454  0.76045052  0.75482285  1
  Te  Te99  1  0.04272406  0.22942506  0.28480531  1
  Te  Te100  1  0.07644369  0.22685205  0.58236304  1
  Te  Te101  1  0.07494479  0.23096454  0.91608815  1
  Te  Te102  1  0.08788983  0.57992939  0.23636527  1
  Te  Te103  1  0.08840267  0.59191414  0.57701795  1
  Te  Te104  1  0.09437456  0.64131560  0.87411324  1
  Te  Te105  1  0.08133024  0.94449790  0.26269712  1
  Te  Te106  1  0.10782454  0.90256462  0.59506679  1
  Te  Te107  1  0.07676584  0.90998084  0.90018371  1
  Te  Te108  1  0.41740836  0.26238333  0.23051142  1
  Te  Te109  1  0.43122973  0.25767553  0.58439357  1
  Te  Te110  1  0.43013407  0.24994848  0.90659523  1
  Te  Te111  1  0.42375109  0.58987420  0.24271364  1
  Te  Te112  1  0.39135292  0.60025831  0.59574116  1
  Te  Te113  1  0.44501177  0.59076988  0.91506217  1
  Te  Te114  1  0.43306143  0.91036843  0.26161948  1
  Te  Te115  1  0.46988738  0.90270033  0.57690058  1
  Te  Te116  1  0.39658548  0.93195074  0.92292869  1
  Te  Te117  1  0.79936172  0.23438366  0.29881173  1
  Te  Te118  1  0.75560162  0.23149293  0.55216395  1
  Te  Te119  1  0.75947228  0.22574743  0.93104974  1
  Te  Te120  1  0.77695470  0.59880619  0.21614586  1
  Te  Te121  1  0.76811754  0.58961691  0.58171189  1
  Te  Te122  1  0.74770756  0.58324416  0.90203108  1
  Te  Te123  1  0.75557676  0.92310411  0.25410813  1
  Te  Te124  1  0.74233043  0.90587069  0.55908219  1
  Te  Te125  1  0.73738099  0.89575017  0.90536128  1
  Te  Te126  1  0.24208819  0.26127852  0.08222104  1
  Te  Te127  1  0.24487234  0.23885607  0.40873155  1
  Te  Te128  1  0.25037911  0.25545228  0.73616474  1
  Te  Te129  1  0.24781248  0.58892860  0.08138905  1
  Te  Te130  1  0.24880528  0.60590692  0.42310090  1
  Te  Te131  1  0.25282831  0.63010203  0.75440765  1
  Te  Te132  1  0.23786235  0.95163230  0.10826074  1
  Te  Te133  1  0.27104311  0.89264248  0.43696785  1
  Te  Te134  1  0.25419430  0.90535207  0.72969375  1
  Te  Te135  1  0.58010378  0.22936201  0.09325636  1
  Te  Te136  1  0.58930258  0.23199541  0.41203594  1
  Te  Te137  1  0.58804404  0.25348352  0.76061497  1
  Te  Te138  1  0.57373871  0.59620310  0.07863204  1
  Te  Te139  1  0.57645139  0.58564173  0.40770047  1
  Te  Te140  1  0.57873049  0.59542953  0.75656790  1
  Te  Te141  1  0.58267845  0.92046315  0.08335867  1
  Te  Te142  1  0.56142741  0.96321843  0.47558767  1
  Te  Te143  1  0.56744187  0.88738848  0.75685747  1
  Te  Te144  1  0.91354034  0.23514555  0.09668811  1
  Te  Te145  1  0.89963635  0.24992266  0.41553888  1
  Te  Te146  1  0.91392193  0.23956353  0.75837742  1
  Te  Te147  1  0.93900816  0.61086430  0.04559027  1
  Te  Te148  1  0.89832683  0.57870220  0.41060279  1
  Te  Te149  1  0.92223853  0.57630956  0.73344465  1
  Te  Te150  1  0.88721508  0.92967383  0.07815319  1
  Te  Te151  1  0.93318261  0.92022013  0.41101139  1
  Te  Te152  1  0.93017324  0.88782822  0.76712235  1
  Te  Te153  1  0.23133222  0.08925137  0.27730596  1
  Te  Te154  1  0.23816623  0.06056747  0.56572767  1
  Te  Te155  1  0.22912246  0.05983341  0.89243911  1
  Te  Te156  1  0.24382189  0.40737977  0.26534827  1
  Te  Te157  1  0.24033311  0.43767787  0.58100279  1
  Te  Te158  1  0.24946079  0.44028259  0.91756113  1
  Te  Te159  1  0.24920398  0.75015666  0.24820634  1
  Te  Te160  1  0.27743911  0.77522243  0.62694995  1
  Te  Te161  1  0.26498415  0.77299086  0.92356802  1
  Te  Te162  1  0.59427070  0.06620788  0.25747856  1
  Te  Te163  1  0.61111613  0.08790738  0.55591212  1
  Te  Te164  1  0.57349765  0.08537152  0.92613116  1
  Te  Te165  1  0.57989819  0.39859682  0.23185561  1
  Te  Te166  1  0.57886172  0.41216109  0.58847303  1
  Te  Te167  1  0.57479561  0.41690501  0.92819404  1
  Te  Te168  1  0.58244768  0.75710924  0.26494491  1
  Te  Te169  1  0.57875691  0.76491464  0.58587481  1
  Te  Te170  1  0.57590804  0.75692254  0.89797834  1
  Te  Te171  1  0.87255290  0.03988060  0.27554998  1
  Te  Te172  1  0.93922790  0.07330001  0.58130410  1
  Te  Te173  1  0.91068116  0.08989716  0.91411808  1
  Te  Te174  1  0.92984795  0.41314058  0.25391063  1
  Te  Te175  1  0.89813818  0.40407562  0.58083185  1
  Te  Te176  1  0.92013707  0.40200286  0.92327602  1
  Te  Te177  1  0.91481151  0.75272044  0.23557514  1
  Te  Te178  1  0.90562508  0.73380431  0.57507302  1
  Te  Te179  1  0.91822871  0.73035224  0.94500862  1
