# generated using pymatgen
data_In2Te3
_symmetry_space_group_name_H-M   'P 1'
_cell_length_a   19.01362451
_cell_length_b   19.02509079
_cell_length_c   19.00004782
_cell_angle_alpha   89.92360710
_cell_angle_beta   89.94520148
_cell_angle_gamma   90.25100118
_symmetry_Int_Tables_number   1
_chemical_formula_structural   In2Te3
_chemical_formula_sum   'In72 Te108'
_cell_volume   6872.92477373
_cell_formula_units_Z   36
loop_
 _symmetry_equiv_pos_site_id
 _symmetry_equiv_pos_as_xyz
  1  'x, y, z'
loop_
 _atom_site_type_symbol
 _atom_site_label
 _atom_site_symmetry_multiplicity
 _atom_site_fract_x
 _atom_site_fract_y
 _atom_site_fract_z
 _atom_site_occupancy
  In  In0  1  0.36496584  0.82440225  0.16530431  1
  In  In1  1  0.25713533  0.00657149  0.13487064  1
  In  In2  1  0.16840087  -0.02262938  0.50218733  1
  In  In3  1  0.81620238  0.67747263  0.13581135  1
  In  In4  1  0.35313829  0.34256075  0.68893372  1
  In  In5  1  0.01281809  0.50548549  0.52401202  1
  In  In6  1  0.79561749  0.84487033  -0.03795577  1
  In  In7  1  0.62100749  0.02051301  -0.02528856  1
  In  In8  1  0.80752300  0.31440629  0.81656175  1
  In  In9  1  0.16346558  0.30978709  0.16866388  1
  In  In10  1  0.64273307  0.68976305  -0.04048319  1
  In  In11  1  0.66395267  0.52970104  0.82399490  1
  In  In12  1  0.18957073  0.81029042  0.35704277  1
  In  In13  1  -0.00197034  0.63550788  -0.01496066  1
  In  In14  1  0.00228045  0.48102787  0.83530022  1
  In  In15  1  0.50945854  -0.01463979  0.49890033  1
  In  In16  1  0.20628525  0.15086471  0.01671182  1
  In  In17  1  0.49584375  0.68752562  0.55601107  1
  In  In18  1  0.15906314  -0.00175774  0.82677467  1
  In  In19  1  -0.01374581  0.85120435  0.16700655  1
  In  In20  1  0.52394943  0.30673782  0.52775968  1
  In  In21  1  0.80906314  -0.00761910  0.16295848  1
  In  In22  1  -0.00717417  0.68131341  0.30971723  1
  In  In23  1  0.68168651  0.33667736  0.31893226  1
  In  In24  1  0.84482407  0.68633713  0.47769322  1
  In  In25  1  0.18358444  0.34420309  0.51713468  1
  In  In26  1  0.79248654  0.31326678  0.54632097  1
  In  In27  1  0.64384585  -0.00317345  0.66968822  1
  In  In28  1  -0.01562889  0.33758384  -0.00944350  1
  In  In29  1  0.64644336  0.14078041  0.16116346  1
  In  In30  1  0.52357498  0.36054560  0.15977018  1
  In  In31  1  0.18210334  0.47874727  -0.01342897  1
  In  In32  1  0.80239311  0.88480136  0.35477438  1
  In  In33  1  0.51445269  0.17100434  0.33400293  1
  In  In34  1  0.36422071  0.01274121  0.70478431  1
  In  In35  1  0.34037748  0.18342126  0.50733751  1
  In  In36  1  0.18516097  0.15468596  0.28347969  1
  In  In37  1  0.67272559  0.49176250  0.16205330  1
  In  In38  1  0.64572935  0.51464276  0.52105071  1
  In  In39  1  0.76423546  0.87597874  0.74899088  1
  In  In40  1  -0.02184757  0.83573830  0.84611303  1
  In  In41  1  0.01679123  -0.00019431  0.31236411  1
  In  In42  1  0.01573533  0.17737350  0.13982134  1
  In  In43  1  0.16808788  0.17123003  0.65619452  1
  In  In44  1  -0.01952024  0.18275483  0.84204225  1
  In  In45  1  0.82468053  0.49723690  0.32363801  1
  In  In46  1  0.77218861  0.07866244  0.55225780  1
  In  In47  1  0.50509206  0.67890984  0.17042068  1
  In  In48  1  -0.00327673  0.02933783  -0.00416708  1
  In  In49  1  0.33345424  0.85124506  0.51947792  1
  In  In50  1  0.41803852  0.54256315  0.41058067  1
  In  In51  1  0.50238127  0.82852189  0.34664412  1
  In  In52  1  0.83848591  0.49673282  0.66859640  1
  In  In53  1  0.17224492  0.78890350  -0.02685105  1
  In  In54  1  0.49875759  0.51194994  -0.02413556  1
  In  In55  1  -0.01923131  0.15435780  0.47947832  1
  In  In56  1  0.16893129  0.32938032  0.84396975  1
  In  In57  1  -0.00226077  0.84309257  0.49558477  1
  In  In58  1  0.33787151  0.50759954  0.16599386  1
  In  In59  1  0.34438111  0.65861074  -0.05854383  1
  In  In60  1  0.49218952  0.85401414  -0.04225765  1
  In  In61  1  -0.00423787  0.66724174  0.66288157  1
  In  In62  1  0.17781401  0.68356706  0.16262555  1
  In  In63  1  0.52649974  0.31704376  0.83610570  1
  In  In64  1  -0.01772569  0.34665552  0.36957105  1
  In  In65  1  0.00359255  0.51017144  0.18836426  1
  In  In66  1  0.80591466  0.13287696  0.33080568  1
  In  In67  1  0.68199158  0.30325803  0.00143100  1
  In  In68  1  0.33531722  0.34707369  0.33604062  1
  In  In69  1  0.27219108  0.60695907  0.57738830  1
  In  In70  1  0.37612680  0.15227283  0.83981918  1
  In  In71  1  0.13971593  0.83883088  0.66145623  1
  Te  Te72  1  0.10619371  0.06086071  0.10402915  1
  Te  Te73  1  0.10403320  0.07892088  0.40794807  1
  Te  Te74  1  0.07675715  0.09835982  0.75285708  1
  Te  Te75  1  0.08052059  0.42073990  0.08562767  1
  Te  Te76  1  0.09659132  0.42943679  0.42282118  1
  Te  Te77  1  0.07140411  0.38538957  0.75075774  1
  Te  Te78  1  0.05945362  0.74031418  0.08487580  1
  Te  Te79  1  0.07617268  0.73551192  0.42551733  1
  Te  Te80  1  0.07322289  0.75133449  0.76458139  1
  Te  Te81  1  0.36489938  0.09419350  0.08881140  1
  Te  Te82  1  0.42147291  0.08905830  0.42475614  1
  Te  Te83  1  0.49251648  0.06081486  0.77567942  1
  Te  Te84  1  0.41811592  0.42393166  0.07002434  1
  Te  Te85  1  0.42343248  0.39297216  0.44907568  1
  Te  Te86  1  0.47067665  0.41731069  0.74124520  1
  Te  Te87  1  0.42238444  0.73168746  0.05384049  1
  Te  Te88  1  0.41089968  0.75126042  0.44134973  1
  Te  Te89  1  0.40773965  0.70739740  0.67922021  1
  Te  Te90  1  0.73910310  0.07582104  0.06088146  1
  Te  Te91  1  0.72058418  0.05290707  0.41672887  1
  Te  Te92  1  0.71697069  0.10993812  0.74629603  1
  Te  Te93  1  0.75459078  0.39561912  0.09064941  1
  Te  Te94  1  0.74397877  0.42566160  0.43025286  1
  Te  Te95  1  0.73024568  0.42035013  0.74013496  1
  Te  Te96  1  0.71949562  0.77160797  0.07017635  1
  Te  Te97  1  0.73818464  0.77128923  0.42480949  1
  Te  Te98  1  0.73010894  0.73187828  0.74800017  1
  Te  Te99  1  0.06157328  0.25073454  0.27294338  1
  Te  Te100  1  0.07739874  0.24476298  0.56062114  1
  Te  Te101  1  0.09422566  0.23698924  0.94121547  1
  Te  Te102  1  0.10707774  0.59234042  0.26170658  1
  Te  Te103  1  0.10504281  0.58319282  0.60909948  1
  Te  Te104  1  0.10547037  0.57619198  0.89807338  1
  Te  Te105  1  0.10237634  0.88970659  0.25602580  1
  Te  Te106  1  0.05420691  0.94396383  0.59615559  1
  Te  Te107  1  0.08608738  0.91442953  0.93465186  1
  Te  Te108  1  0.43672656  0.27403399  0.25250651  1
  Te  Te109  1  0.42888210  0.23013613  0.61992583  1
  Te  Te110  1  0.41651175  0.26709912  0.92075414  1
  Te  Te111  1  0.42890147  0.58069336  0.25832250  1
  Te  Te112  1  0.41958412  0.56116143  0.60947944  1
  Te  Te113  1  0.44163860  0.58396051  0.86130840  1
  Te  Te114  1  0.43623061  0.91974595  0.24989818  1
  Te  Te115  1  0.43494372  0.91097393  0.61557822  1
  Te  Te116  1  0.42946363  0.94363162  0.85699550  1
  Te  Te117  1  0.74669521  0.23146513  0.23304426  1
  Te  Te118  1  0.70833467  0.21596992  0.63040187  1
  Te  Te119  1  0.73047400  0.21226852  0.89390756  1
  Te  Te120  1  0.74567960  0.59911241  0.24697526  1
  Te  Te121  1  0.77088925  0.58705913  0.56861732  1
  Te  Te122  1  0.74511558  0.59158847  0.92828210  1
  Te  Te123  1  0.71347342  0.91956864  0.24473041  1
  Te  Te124  1  0.76821724  0.93661681  0.60489027  1
  Te  Te125  1  0.70499347  0.93225910  0.88278489  1
  Te  Te126  1  0.27126442  0.26463403  0.08221253  1
  Te  Te127  1  0.24274196  0.24597822  0.40814018  1
  Te  Te128  1  0.26071208  0.22996080  0.76052521  1
  Te  Te129  1  0.25405049  0.59284908  0.06868069  1
  Te  Te130  1  0.27737697  0.56768024  0.43531911  1
  Te  Te131  1  0.31413348  0.59734029  0.72233798  1
  Te  Te132  1  0.26375766  0.87502637  0.06364391  1
  Te  Te133  1  0.27046263  0.92985939  0.40157236  1
  Te  Te134  1  0.24657458  0.91708399  0.73499942  1
  Te  Te135  1  0.56753879  0.24045754  0.07895934  1
  Te  Te136  1  0.61360966  0.24650159  0.41990776  1
  Te  Te137  1  0.61339893  0.22665564  0.75517194  1
  Te  Te138  1  0.58668340  0.58570149  0.07811529  1
  Te  Te139  1  0.55830002  0.60321829  0.44017033  1
  Te  Te140  1  0.62314547  0.62330014  0.71597212  1
  Te  Te141  1  0.55729316  0.92556731  0.06645773  1
  Te  Te142  1  0.59665119  0.87742390  0.45135700  1
  Te  Te143  1  0.57459926  0.86502189  0.70078236  1
  Te  Te144  1  0.90783313  0.23703156  0.06429533  1
  Te  Te145  1  0.87639058  0.24630178  0.41655353  1
  Te  Te146  1  0.90861146  0.24811067  0.73253786  1
  Te  Te147  1  0.90724646  0.56638662  0.08579744  1
  Te  Te148  1  0.92827252  0.57378738  0.40578211  1
  Te  Te149  1  0.91619105  0.58550116  0.76215230  1
  Te  Te150  1  0.90298226  0.91721986  0.05936050  1
  Te  Te151  1  0.92174974  0.94937463  0.41969363  1
  Te  Te152  1  0.90190735  0.93207571  0.76840373  1
  Te  Te153  1  0.31589597  0.10394146  0.23754536  1
  Te  Te154  1  0.26155487  0.07229123  0.58477994  1
  Te  Te155  1  0.26638389  0.06482993  0.90934874  1
  Te  Te156  1  0.24110754  0.42037307  0.24372840  1
  Te  Te157  1  0.23899957  0.41579699  0.63173241  1
  Te  Te158  1  0.27237492  0.42449474  0.88688302  1
  Te  Te159  1  0.27930043  0.73725655  0.26014577  1
  Te  Te160  1  0.22795505  0.75747057  0.57321079  1
  Te  Te161  1  0.27100314  0.76280993  0.87004429  1
  Te  Te162  1  0.56063965  0.06041808  0.24910709  1
  Te  Te163  1  0.58034457  0.09085227  0.57336138  1
  Te  Te164  1  0.50589950  0.10383188  0.92301547  1
  Te  Te165  1  0.58273421  0.44003453  0.27511071  1
  Te  Te166  1  0.58248368  0.41476442  0.61101197  1
  Te  Te167  1  0.60960658  0.41879382  0.92778318  1
  Te  Te168  1  0.59321535  0.75783063  0.25410560  1
  Te  Te169  1  0.62605768  0.75105435  0.61869529  1
  Te  Te170  1  0.55938758  0.76198013  0.86403840  1
  Te  Te171  1  0.91856476  0.08108612  0.23153404  1
  Te  Te172  1  0.90758030  0.11509830  0.59945406  1
  Te  Te173  1  0.90302192  0.06573109  0.89093982  1
  Te  Te174  1  0.91286393  0.40215419  0.24601237  1
  Te  Te175  1  0.91636876  0.40325114  0.57926877  1
  Te  Te176  1  0.88710932  0.41392989  0.90707347  1
  Te  Te177  1  0.88712597  0.76866855  0.24725728  1
  Te  Te178  1  0.90791079  0.76601420  0.59072928  1
  Te  Te179  1  0.89889322  0.73629831  0.92748815  1
