# generated using pymatgen
data_In2Te3
_symmetry_space_group_name_H-M   'P 1'
_cell_length_a   18.83075447
_cell_length_b   18.82364773
_cell_length_c   18.82565181
_cell_angle_alpha   90.19093661
_cell_angle_beta   89.93110074
_cell_angle_gamma   89.98334900
_symmetry_Int_Tables_number   1
_chemical_formula_structural   In2Te3
_chemical_formula_sum   'In72 Te108'
_cell_volume   6672.96405245
_cell_formula_units_Z   36
loop_
 _symmetry_equiv_pos_site_id
 _symmetry_equiv_pos_as_xyz
  1  'x, y, z'
loop_
 _atom_site_type_symbol
 _atom_site_label
 _atom_site_symmetry_multiplicity
 _atom_site_fract_x
 _atom_site_fract_y
 _atom_site_fract_z
 _atom_site_occupancy
  In  In0  1  0.84161666  -0.01966095  0.83320455  1
  In  In1  1  0.66298420  0.66664916  0.65460930  1
  In  In2  1  0.87429416  0.53168985  0.35810804  1
  In  In3  1  0.83066215  0.36729283  0.83670427  1
  In  In4  1  0.85889040  0.32209445  0.20776447  1
  In  In5  1  0.65435962  0.31311236  0.01856764  1
  In  In6  1  0.84559471  0.49630090  0.65504724  1
  In  In7  1  0.34004589  0.17166108  0.17961615  1
  In  In8  1  0.33272518  0.82762695  0.49787329  1
  In  In9  1  0.17513576  0.16991897  0.66469428  1
  In  In10  1  0.65224841  0.32553866  0.35367615  1
  In  In11  1  0.68162536  0.48087108  0.18975474  1
  In  In12  1  -0.00422583  0.16898601  0.84521168  1
  In  In13  1  0.62894474  0.67335383  0.00057582  1
  In  In14  1  0.14784820  0.65142166  0.20131362  1
  In  In15  1  0.33166228  0.53066482  0.83464259  1
  In  In16  1  0.14404773  0.31645065  0.83926820  1
  In  In17  1  0.66607130  0.48927752  0.51309878  1
  In  In18  1  -0.03166622  0.48922974  0.84575263  1
  In  In19  1  0.31431581  0.50137519  0.17521614  1
  In  In20  1  0.17680760  0.85444146  0.01448838  1
  In  In21  1  0.65633346  0.15282450  0.82444387  1
  In  In22  1  0.84966360  0.85490698  0.33775117  1
  In  In23  1  0.86762428  0.69379386  0.17740433  1
  In  In24  1  0.14597672  0.00292874  0.17983111  1
  In  In25  1  0.67912485  0.83045793  0.51167846  1
  In  In26  1  0.32021299  0.19221850  0.49879743  1
  In  In27  1  0.47360524  0.51787880  0.62385268  1
  In  In28  1  0.33559890  -0.00197998  0.68012069  1
  In  In29  1  0.15462552  0.49597192  0.61164030  1
  In  In30  1  0.49707827  0.01528502  0.16216240  1
  In  In31  1  0.68759176  0.01767041  -0.00266892  1
  In  In32  1  0.84711396  0.85221496  0.00434141  1
  In  In33  1  -0.00184295  0.33686183  0.64710336  1
  In  In34  1  0.49427137  0.47062593  0.36328592  1
  In  In35  1  0.16485985  0.67244781  0.81527264  1
  In  In36  1  0.65078888  -0.00424702  0.66489566  1
  In  In37  1  0.31542756  0.12756841  0.85891397  1
  In  In38  1  0.49484080  0.83491261  0.00202783  1
  In  In39  1  0.70007487  0.83725183  0.17626898  1
  In  In40  1  0.83552429  0.84505708  0.65680755  1
  In  In41  1  0.33404886  -0.00860418  0.30740207  1
  In  In42  1  0.16159089  0.49075684  0.02879602  1
  In  In43  1  0.00637710  0.82553063  0.50030335  1
  In  In44  1  0.13111565  0.33902867  0.48087580  1
  In  In45  1  0.48913478  0.18245841  0.32783613  1
  In  In46  1  0.83652459  0.17337994  0.63098528  1
  In  In47  1  0.50891796  0.00495906  0.82977596  1
  In  In48  1  0.34321620  0.82286577  0.82875747  1
  In  In49  1  0.48918541  0.66733936  0.15814231  1
  In  In50  1  0.48713052  0.65596505  0.81153411  1
  In  In51  1  0.32241273  0.34839140  0.64900983  1
  In  In52  1  0.18810980  0.81694565  0.65609701  1
  In  In53  1  0.13936794  0.83269195  0.33125037  1
  In  In54  1  0.50547130  0.00244010  0.50470354  1
  In  In55  1  0.31951665  0.32951093  0.00645220  1
  In  In56  1  0.48270375  0.47693871  -0.01927954  1
  In  In57  1  0.16780904  0.33095606  0.18789321  1
  In  In58  1  0.01183174  0.67307672  0.00665674  1
  In  In59  1  -0.00866506  0.01420518  0.65438399  1
  In  In60  1  0.00604048  -0.00574464  0.02361043  1
  In  In61  1  0.84745454  0.31803937  0.45938012  1
  In  In62  1  0.66961137  0.15195732  0.16853930  1
  In  In63  1  0.66599333  0.66591266  0.34535386  1
  In  In64  1  0.85544185  0.49457682  -0.00223097  1
  In  In65  1  0.30483017  0.65504756  0.34029693  1
  In  In66  1  0.49591698  0.85540989  0.34416004  1
  In  In67  1  0.83428468  0.19050652  0.03081420  1
  In  In68  1  0.13058276  0.02734581  0.46083109  1
  In  In69  1  0.49532421  0.31981801  0.82676435  1
  In  In70  1  0.84218137  0.67068887  0.81924759  1
  In  In71  1  0.70861819  0.49002138  0.81347490  1
  Te  Te72  1  0.06039061  0.10354170  0.10855992  1
  Te  Te73  1  0.05817070  0.10742850  0.35711046  1
  Te  Te74  1  0.08523089  0.08444271  0.75315953  1
  Te  Te75  1  0.07171360  0.39784612  0.09498121  1
  Te  Te76  1  0.09051185  0.46024132  0.40169845  1
  Te  Te77  1  0.08676049  0.41787215  0.74077498  1
  Te  Te78  1  0.09288079  0.75897146  0.09980525  1
  Te  Te79  1  0.10247258  0.72832646  0.43335154  1
  Te  Te80  1  0.07681985  0.75032807  0.72836320  1
  Te  Te81  1  0.38657455  0.06991411  0.07899564  1
  Te  Te82  1  0.40302711  0.07523689  0.41604847  1
  Te  Te83  1  0.42186690  0.10197428  0.74965831  1
  Te  Te84  1  0.41354326  0.40938633  0.09589456  1
  Te  Te85  1  0.41312739  0.39509358  0.46015606  1
  Te  Te86  1  0.41465522  0.43020514  0.75249272  1
  Te  Te87  1  0.39989586  0.75393287  0.08060108  1
  Te  Te88  1  0.42027323  0.74116245  0.40603309  1
  Te  Te89  1  0.39334560  0.73047852  0.72099885  1
  Te  Te90  1  0.78136210  0.06819170  0.10515297  1
  Te  Te91  1  0.81651240  0.05281804  0.38271078  1
  Te  Te92  1  0.77066401  0.08329432  0.74599307  1
  Te  Te93  1  0.76561690  0.40138803  0.08890350  1
  Te  Te94  1  0.75373269  0.43608517  0.39699220  1
  Te  Te95  1  0.75032738  0.38964822  0.70528374  1
  Te  Te96  1  0.75466300  0.73658202  0.07119097  1
  Te  Te97  1  0.76862231  0.74856188  0.41846764  1
  Te  Te98  1  0.74351389  0.75952884  0.74617573  1
  Te  Te99  1  0.08293065  0.25367283  0.28574171  1
  Te  Te100  1  0.07142049  0.22815192  0.56937305  1
  Te  Te101  1  0.10054453  0.21803623  0.93816183  1
  Te  Te102  1  0.06899112  0.54740592  0.27049368  1
  Te  Te103  1  0.06043644  0.58754541  0.54717771  1
  Te  Te104  1  0.08105231  0.57186471  0.91393832  1
  Te  Te105  1  0.04524296  0.91822339  0.25291044  1
  Te  Te106  1  0.10109199  0.92656274  0.58060706  1
  Te  Te107  1  0.08762711  0.92757233  0.91722923  1
  Te  Te108  1  0.39394020  0.27686115  0.26837409  1
  Te  Te109  1  0.41771157  0.24970252  0.59261740  1
  Te  Te110  1  0.40904259  0.23920275  0.92191959  1
  Te  Te111  1  0.42562772  0.57498101  0.26181984  1
  Te  Te112  1  0.38604573  0.62988809  0.59316049  1
  Te  Te113  1  0.41501347  0.60510218  0.93894318  1
  Te  Te114  1  0.41757367  0.89721741  0.22176906  1
  Te  Te115  1  0.42303865  0.90809636  0.59212171  1
  Te  Te116  1  0.40960680  0.92803181  0.91707242  1
  Te  Te117  1  0.74633088  0.23972671  0.26825616  1
  Te  Te118  1  0.74584356  0.24186882  0.53636010  1
  Te  Te119  1  0.74839663  0.24970203  0.91102197  1
  Te  Te120  1  0.76410599  0.59650554  0.24695958  1
  Te  Te121  1  0.76522286  0.59167592  0.56831030  1
  Te  Te122  1  0.75620268  0.58958761  0.92129755  1
  Te  Te123  1  0.75172828  0.94425967  0.26617273  1
  Te  Te124  1  0.76081961  0.94542198  0.57185957  1
  Te  Te125  1  0.73609106  0.90241991  0.90997163  1
  Te  Te126  1  0.23476361  0.23383591  0.08494807  1
  Te  Te127  1  0.22477286  0.25232281  0.40400443  1
  Te  Te128  1  0.26169374  0.25315864  0.76049602  1
  Te  Te129  1  0.24549472  0.60131195  0.08613931  1
  Te  Te130  1  0.22768162  0.53903115  0.39717059  1
  Te  Te131  1  0.23330522  0.56934723  0.72648053  1
  Te  Te132  1  0.25692992  0.95728665  0.08798244  1
  Te  Te133  1  0.24370530  0.91876981  0.41238753  1
  Te  Te134  1  0.23906972  0.91677918  0.76416835  1
  Te  Te135  1  0.56511133  0.23279304  0.10151814  1
  Te  Te136  1  0.57247198  0.23567015  0.43842991  1
  Te  Te137  1  0.59365553  0.25458732  0.73926287  1
  Te  Te138  1  0.58727791  0.55770400  0.09170782  1
  Te  Te139  1  0.57425518  0.58308316  0.43272778  1
  Te  Te140  1  0.58802697  0.56342988  0.74270872  1
  Te  Te141  1  0.60088171  0.91697654  0.08583429  1
  Te  Te142  1  0.60644721  0.92693954  0.41589803  1
  Te  Te143  1  0.57321608  0.90228197  0.74598998  1
  Te  Te144  1  0.94295066  0.23257134  0.12165217  1
  Te  Te145  1  0.95636896  0.25041937  0.38054505  1
  Te  Te146  1  0.91473382  0.25653471  0.74700211  1
  Te  Te147  1  0.93435924  0.57929711  0.09800264  1
  Te  Te148  1  0.95915245  0.62622060  0.43409486  1
  Te  Te149  1  0.93792899  0.58813399  0.73344283  1
  Te  Te150  1  0.92503914  0.90912903  0.11573284  1
  Te  Te151  1  0.92330976  0.93768597  0.44056136  1
  Te  Te152  1  0.94257727  0.90468655  0.75034515  1
  Te  Te153  1  0.23639171  0.09668330  0.26436670  1
  Te  Te154  1  0.24996814  0.07094994  0.57510075  1
  Te  Te155  1  0.21178880  0.03535912  0.90332444  1
  Te  Te156  1  0.24761246  0.42191908  0.28145547  1
  Te  Te157  1  0.28096778  0.44036749  0.53267856  1
  Te  Te158  1  0.24657394  0.42320240  0.90912922  1
  Te  Te159  1  0.24692877  0.76227238  0.24869872  1
  Te  Te160  1  0.25029367  0.71782628  0.56076722  1
  Te  Te161  1  0.24392217  0.75014545  0.91865131  1
  Te  Te162  1  0.58341306  0.07541253  0.27090976  1
  Te  Te163  1  0.59390482  0.09759291  0.57604650  1
  Te  Te164  1  0.57225228  0.09555385  0.93817316  1
  Te  Te165  1  0.56931874  0.39739525  0.24869555  1
  Te  Te166  1  0.56180570  0.40882794  0.58020192  1
  Te  Te167  1  0.60421345  0.41837688  0.90997730  1
  Te  Te168  1  0.58849321  0.75442685  0.24535861  1
  Te  Te169  1  0.57368407  0.74650669  0.57019024  1
  Te  Te170  1  0.57137708  0.75816624  0.89033267  1
  Te  Te171  1  0.91008521  0.11479839  0.29319244  1
  Te  Te172  1  0.92839544  0.09375676  0.54571357  1
  Te  Te173  1  0.90069329  0.08283801  0.93033044  1
  Te  Te174  1  0.93848835  0.44002545  0.25721699  1
  Te  Te175  1  0.92331813  0.42043565  0.54659462  1
  Te  Te176  1  0.94092559  0.37762593  0.94451334  1
  Te  Te177  1  0.95284150  0.76351812  0.27539228  1
  Te  Te178  1  0.91369362  0.74431178  0.58315911  1
  Te  Te179  1  0.92761794  0.75792101  0.91246448  1
