# generated using pymatgen
data_In2Te3
_symmetry_space_group_name_H-M   'P 1'
_cell_length_a   18.81370194
_cell_length_b   18.79952466
_cell_length_c   18.80297168
_cell_angle_alpha   89.97236273
_cell_angle_beta   90.11339668
_cell_angle_gamma   90.06827100
_symmetry_Int_Tables_number   1
_chemical_formula_structural   In2Te3
_chemical_formula_sum   'In72 Te108'
_cell_volume   6650.37922266
_cell_formula_units_Z   36
loop_
 _symmetry_equiv_pos_site_id
 _symmetry_equiv_pos_as_xyz
  1  'x, y, z'
loop_
 _atom_site_type_symbol
 _atom_site_label
 _atom_site_symmetry_multiplicity
 _atom_site_fract_x
 _atom_site_fract_y
 _atom_site_fract_z
 _atom_site_occupancy
  In  In0  1  0.67303903  0.69475747  0.01110454  1
  In  In1  1  0.63638753  0.13682098  0.53647712  1
  In  In2  1  0.20743649  0.49981206  0.65315425  1
  In  In3  1  0.49436708  0.65244803  0.18256285  1
  In  In4  1  0.32735941  0.15372350  0.51158248  1
  In  In5  1  0.14229780  0.84352848  0.33968438  1
  In  In6  1  0.03673511  -0.01589488  0.64463552  1
  In  In7  1  0.68237208  0.82006416  0.17882433  1
  In  In8  1  0.47601524  0.81005838  0.67513306  1
  In  In9  1  0.17242743  0.13528133  0.34286156  1
  In  In10  1  0.49960748  0.52294861  0.39240814  1
  In  In11  1  0.02333247  0.51018743  0.18431623  1
  In  In12  1  0.66428759  0.33511493  0.32771640  1
  In  In13  1  0.81898528  0.32635243  0.47839498  1
  In  In14  1  0.82588798  0.67857134  0.51380117  1
  In  In15  1  0.00836667  0.51097717  0.80418958  1
  In  In16  1  0.45379545  0.51341380  0.65196899  1
  In  In17  1  0.84311404  0.68281329  0.18860572  1
  In  In18  1  0.34102385  0.50303750  0.17430273  1
  In  In19  1  0.68900748  0.01500629  -0.02162353  1
  In  In20  1  0.00312564  0.10174728  0.15661529  1
  In  In21  1  0.19705178  0.46615515  -0.01520283  1
  In  In22  1  0.01772256  0.31615658  0.63452373  1
  In  In23  1  0.66276883  0.83658232  0.51299275  1
  In  In24  1  0.65031016  0.68530503  0.66951225  1
  In  In25  1  0.02472350  0.35802220  0.33936271  1
  In  In26  1  0.63897778  0.50278377  0.84836377  1
  In  In27  1  0.50347399  0.33886834  0.16217735  1
  In  In28  1  0.82165624  0.50602582  -0.00354479  1
  In  In29  1  0.16695084  0.31800408  0.16219640  1
  In  In30  1  0.67949539  0.14975293  0.15842833  1
  In  In31  1  0.15191321  0.68574825  0.17147159  1
  In  In32  1  0.51141113  -0.01927853  0.18630472  1
  In  In33  1  0.67707202  -0.01822952  0.34305884  1
  In  In34  1  0.31644167  0.82721092  0.50206120  1
  In  In35  1  0.83323168  0.14748542  0.68059709  1
  In  In36  1  0.86012019  0.14816258  -0.00684771  1
  In  In37  1  0.65724219  0.37101329  -0.02500681  1
  In  In38  1  0.16265538  0.67275904  0.81554629  1
  In  In39  1  0.87085313  0.84535592  0.35744536  1
  In  In40  1  0.64510356  0.33848150  0.66321946  1
  In  In41  1  0.02605415  0.85186224  0.85218162  1
  In  In42  1  0.49638719  0.85353296  -0.01876137  1
  In  In43  1  0.83154138  0.84887160  0.66204881  1
  In  In44  1  0.66345698  0.16376796  0.80854143  1
  In  In45  1  0.30461803  0.13749434  0.17737101  1
  In  In46  1  0.31256218  0.83075000  0.16092457  1
  In  In47  1  0.68405642  0.49702608  0.16477669  1
  In  In48  1  0.48006494  0.16307166  0.36920088  1
  In  In49  1  0.47681742  0.18120093  -0.00635519  1
  In  In50  1  0.83838230  0.15079012  0.33507549  1
  In  In51  1  0.01248026  0.67967849  0.00045222  1
  In  In52  1  0.83985600  0.50732566  0.33946315  1
  In  In53  1  0.48307762  0.83519611  0.34851114  1
  In  In54  1  0.17605914  0.16105566  -0.01875050  1
  In  In55  1  0.19373913  0.52569692  0.37630880  1
  In  In56  1  0.48817705  0.50710037  -0.03344588  1
  In  In57  1  -0.00231929  0.29142968  -0.01151649  1
  In  In58  1  0.35525721  0.34002933  0.33844956  1
  In  In59  1  0.83886323  0.52507020  0.67631973  1
  In  In60  1  0.29147004  -0.03510221  0.67167688  1
  In  In61  1  0.00704274  0.68924864  0.66935674  1
  In  In62  1  0.03145719  0.16594119  0.51796253  1
  In  In63  1  0.65006292  0.85256741  0.83719943  1
  In  In64  1  0.30915784  0.32088425  -0.07572508  1
  In  In65  1  0.48863570  0.00172310  0.79462696  1
  In  In66  1  0.33207626  0.00369043  -0.02540340  1
  In  In67  1  0.46859792  0.33456135  0.51394048  1
  In  In68  1  0.00261038  0.50303474  0.49293936  1
  In  In69  1  0.31949162  0.68196934  -0.01653982  1
  In  In70  1  0.02139550  0.13712754  0.83353809  1
  In  In71  1  0.83289847  0.32514278  0.83963563  1
  Te  Te72  1  0.08136272  0.05198857  0.03206616  1
  Te  Te73  1  0.06931365  0.05417999  0.42064662  1
  Te  Te74  1  0.11594329  0.06163201  0.74732235  1
  Te  Te75  1  0.07624406  0.41008649  0.07946956  1
  Te  Te76  1  0.11654636  0.40743568  0.45103879  1
  Te  Te77  1  0.09329006  0.41560276  0.72636731  1
  Te  Te78  1  0.07398798  0.78297900  0.08956310  1
  Te  Te79  1  0.09529261  0.77179603  0.46591676  1
  Te  Te80  1  0.10374024  0.78898121  0.73254138  1
  Te  Te81  1  0.42407658  0.07023218  0.08905774  1
  Te  Te82  1  0.38740171  0.05933684  0.41241524  1
  Te  Te83  1  0.37883573  0.07530361  0.72890586  1
  Te  Te84  1  0.41166091  0.41824823  0.06918854  1
  Te  Te85  1  0.36849200  0.44328963  0.45563165  1
  Te  Te86  1  0.38062783  0.40966756  0.73125390  1
  Te  Te87  1  0.42894980  0.75150152  0.08430693  1
  Te  Te88  1  0.40120186  0.73403227  0.42020741  1
  Te  Te89  1  0.38989473  0.71973986  0.75467094  1
  Te  Te90  1  0.77967697  0.05737396  0.09494541  1
  Te  Te91  1  0.74339353  0.08586115  0.43410795  1
  Te  Te92  1  0.75516874  0.05737256  0.76640181  1
  Te  Te93  1  0.76417480  0.39582297  0.08528173  1
  Te  Te94  1  0.73177611  0.43681991  0.42167132  1
  Te  Te95  1  0.74826653  0.42198549  0.75627918  1
  Te  Te96  1  0.78806698  0.77254836  0.07755356  1
  Te  Te97  1  0.75017401  0.76287965  0.41175806  1
  Te  Te98  1  0.74913146  0.76104524  0.75513381  1
  Te  Te99  1  0.08416292  0.24011245  0.26137791  1
  Te  Te100  1  0.13433961  0.22768118  0.60757193  1
  Te  Te101  1  0.10342990  0.26204792  0.88843337  1
  Te  Te102  1  0.09155742  0.59851860  0.28682850  1
  Te  Te103  1  0.08303475  0.57979501  0.59629446  1
  Te  Te104  1  0.09244827  0.57297556  0.91886733  1
  Te  Te105  1  0.05951821  0.89082083  0.22191141  1
  Te  Te106  1  0.12230139  0.89785035  0.54736678  1
  Te  Te107  1  0.11789035  0.93198560  0.93811235  1
  Te  Te108  1  0.41670662  0.23787550  0.23798970  1
  Te  Te109  1  0.40986388  0.23594549  0.60479075  1
  Te  Te110  1  0.39965172  0.21231459  0.86956468  1
  Te  Te111  1  0.40248089  0.58633680  0.28430965  1
  Te  Te112  1  0.38723744  0.59700090  0.54674295  1
  Te  Te113  1  0.41371027  0.61246111  0.89003944  1
  Te  Te114  1  0.39239233  0.92138310  0.25772190  1
  Te  Te115  1  0.41008334  0.91414551  0.58621441  1
  Te  Te116  1  0.39599486  0.89531237  0.87364866  1
  Te  Te117  1  0.75933334  0.24854587  0.24676409  1
  Te  Te118  1  0.75253852  0.24853313  0.59206169  1
  Te  Te119  1  0.74474370  0.23780880  0.92617340  1
  Te  Te120  1  0.74027096  0.59788836  0.26341476  1
  Te  Te121  1  0.73123392  0.58288872  0.58536854  1
  Te  Te122  1  0.74203637  0.60018796  0.90986525  1
  Te  Te123  1  0.77570741  0.91718293  0.25026610  1
  Te  Te124  1  0.75446239  0.93636106  0.57148203  1
  Te  Te125  1  0.76380823  0.90521002  0.91586924  1
  Te  Te126  1  0.26917584  0.25119476  0.07108904  1
  Te  Te127  1  0.25646279  0.24541878  0.40786809  1
  Te  Te128  1  0.27974635  0.29772782  0.77574695  1
  Te  Te129  1  0.24622209  0.58953127  0.08973731  1
  Te  Te130  1  0.25172531  0.62691560  0.47288988  1
  Te  Te131  1  0.27158818  0.61869118  0.72588378  1
  Te  Te132  1  0.24344814  0.91863449  0.06132198  1
  Te  Te133  1  0.23497570  0.92782607  0.42388553  1
  Te  Te134  1  0.26857038  0.86874804  0.78474712  1
  Te  Te135  1  0.59262579  0.24858577  0.07607248  1
  Te  Te136  1  0.58509947  0.25664828  0.43310529  1
  Te  Te137  1  0.56164014  0.23764299  0.73128425  1
  Te  Te138  1  0.58572581  0.57700362  0.07556206  1
  Te  Te139  1  0.58875473  0.62288196  0.44772489  1
  Te  Te140  1  0.56442627  0.58143461  0.74123137  1
  Te  Te141  1  0.60079044  0.91176476  0.08257678  1
  Te  Te142  1  0.56650184  0.93106505  0.43370769  1
  Te  Te143  1  0.59005212  0.91828731  0.71152928  1
  Te  Te144  1  0.92791080  0.22891919  0.10568615  1
  Te  Te145  1  0.93581601  0.25033468  0.41829815  1
  Te  Te146  1  0.92980784  0.24924103  0.75014547  1
  Te  Te147  1  0.91667119  0.58197407  0.09133641  1
  Te  Te148  1  0.92404170  0.60842781  0.41605577  1
  Te  Te149  1  0.90932465  0.62224489  0.76919712  1
  Te  Te150  1  0.96425801  0.96009377  0.11761313  1
  Te  Te151  1  0.94507133  0.95572722  0.42354326  1
  Te  Te152  1  0.93711980  0.92194383  0.74419590  1
  Te  Te153  1  0.20208594  0.04595433  0.22739399  1
  Te  Te154  1  0.22523926  0.07753909  0.59168219  1
  Te  Te155  1  0.25195243  0.08428116  0.87750693  1
  Te  Te156  1  0.24053581  0.41750072  0.25533033  1
  Te  Te157  1  0.25788511  0.40040123  0.55656966  1
  Te  Te158  1  0.28267865  0.45797922  0.86072256  1
  Te  Te159  1  0.24872071  0.74804373  0.27067173  1
  Te  Te160  1  0.21697018  0.74301359  0.57665679  1
  Te  Te161  1  0.22055758  0.77174765  0.91642236  1
  Te  Te162  1  0.58544578  0.09175153  0.26559594  1
  Te  Te163  1  0.56409073  0.05760574  0.63515931  1
  Te  Te164  1  0.56442773  0.07368450  0.91466204  1
  Te  Te165  1  0.56902171  0.43618453  0.26053198  1
  Te  Te166  1  0.56758985  0.43331032  0.57618349  1
  Te  Te167  1  0.53875310  0.38871450  0.88145183  1
  Te  Te168  1  0.58039725  0.74790565  0.26566573  1
  Te  Te169  1  0.55319574  0.73090119  0.55811587  1
  Te  Te170  1  0.57089937  0.74216529  0.90651041  1
  Te  Te171  1  0.94202070  0.05263630  0.28997619  1
  Te  Te172  1  0.92453324  0.07655536  0.58397406  1
  Te  Te173  1  0.92007961  0.05247713  0.89959174  1
  Te  Te174  1  0.91756117  0.41522453  0.24644101  1
  Te  Te175  1  0.90350617  0.41967980  0.58293972  1
  Te  Te176  1  0.92337260  0.42600295  0.91126699  1
  Te  Te177  1  0.94837224  0.75945766  0.26139856  1
  Te  Te178  1  0.93010676  0.77528614  0.56965726  1
  Te  Te179  1  0.92597668  0.75930133  0.91241961  1
