# generated using pymatgen
data_In2Te3
_symmetry_space_group_name_H-M   'P 1'
_cell_length_a   19.05282211
_cell_length_b   19.03776078
_cell_length_c   19.04761814
_cell_angle_alpha   90.07503516
_cell_angle_beta   90.08205500
_cell_angle_gamma   89.94859851
_symmetry_Int_Tables_number   1
_chemical_formula_structural   In2Te3
_chemical_formula_sum   'In72 Te108'
_cell_volume   6908.99473749
_cell_formula_units_Z   36
loop_
 _symmetry_equiv_pos_site_id
 _symmetry_equiv_pos_as_xyz
  1  'x, y, z'
loop_
 _atom_site_type_symbol
 _atom_site_label
 _atom_site_symmetry_multiplicity
 _atom_site_fract_x
 _atom_site_fract_y
 _atom_site_fract_z
 _atom_site_occupancy
  In  In0  1  0.16938698  0.49879636  0.65161551  1
  In  In1  1  0.03537453  0.88959122  0.51283145  1
  In  In2  1  0.48904503  0.01526333  0.80143403  1
  In  In3  1  0.62780053  -0.00866055  0.02673095  1
  In  In4  1  0.49377369  0.84593947  0.03692200  1
  In  In5  1  0.65334652  0.31733236  0.35078127  1
  In  In6  1  0.01882309  0.83692694  0.82792033  1
  In  In7  1  -0.00360881  0.13382094  0.51285974  1
  In  In8  1  0.51955929  0.34612213  0.14896233  1
  In  In9  1  0.16871895  0.49835031  0.31655949  1
  In  In10  1  0.18748358  0.43183667  -0.05151274  1
  In  In11  1  0.52758260  0.66049978  0.51400101  1
  In  In12  1  0.67474610  0.51275297  0.17919339  1
  In  In13  1  0.69326983  0.51403664  0.49887175  1
  In  In14  1  0.31909111  0.02020004  -0.01357825  1
  In  In15  1  0.85139202  0.31336538  0.50979939  1
  In  In16  1  0.35005920  0.51988557  0.15315753  1
  In  In17  1  0.81499623  0.83848778  0.31211435  1
  In  In18  1  0.68641343  0.31465761  0.65206022  1
  In  In19  1  0.84496656  0.82794375  0.68155013  1
  In  In20  1  0.19268680  0.17878106  0.63796885  1
  In  In21  1  0.18725650  0.67350102  0.83372190  1
  In  In22  1  0.48181499  -0.01362733  0.18030084  1
  In  In23  1  0.36418196  0.17546342  0.50069609  1
  In  In24  1  0.00768769  0.65476277  0.63017711  1
  In  In25  1  0.51489881  0.49826889  0.65697617  1
  In  In26  1  0.16354755  0.85834075  0.00610758  1
  In  In27  1  0.17572481  0.34695003  0.48237431  1
  In  In28  1  0.33325259  0.49581430  0.47964419  1
  In  In29  1  -0.03125255  0.48864890  0.20861651  1
  In  In30  1  0.82665162  0.49605503  0.65217451  1
  In  In31  1  0.30782110  0.85504378  0.49779426  1
  In  In32  1  0.50030947  0.49923690  -0.02235034  1
  In  In33  1  -0.00169952  0.15437748  0.17079558  1
  In  In34  1  0.35886282  0.34065519  0.32768568  1
  In  In35  1  0.83134503  0.83381547  0.05808903  1
  In  In36  1  0.49041619  0.31513215  0.81074186  1
  In  In37  1  0.67226783  0.66682679  0.67766884  1
  In  In38  1  0.87039429  0.31113680  0.84202659  1
  In  In39  1  0.00395951  0.48928783  0.78187395  1
  In  In40  1  0.32250358  0.69843429  0.65489600  1
  In  In41  1  -0.00282011  0.70849742  0.36333451  1
  In  In42  1  0.50681494  0.69091100  0.20075619  1
  In  In43  1  0.81573371  -0.01388863  0.50704425  1
  In  In44  1  0.62778478  0.13927589  0.50719502  1
  In  In45  1  0.80603901  -0.00438740  0.85850116  1
  In  In46  1  0.63244369  0.85069146  0.84441434  1
  In  In47  1  0.01727461  0.65488216  -0.02944133  1
  In  In48  1  0.31993082  0.00138149  0.65544912  1
  In  In49  1  0.69501894  0.17538169  0.82708338  1
  In  In50  1  0.82687297  0.48754387  0.02668354  1
  In  In51  1  0.32499013  0.69431162  0.33014714  1
  In  In52  1  -0.00929163  0.33786501  0.01526831  1
  In  In53  1  0.17276470  0.02340398  0.17594142  1
  In  In54  1  0.34797826  0.66664906  0.00270952  1
  In  In55  1  0.18197448  0.18147061  -0.03808934  1
  In  In56  1  -0.00285364  -0.00192657  -0.01447710  1
  In  In57  1  0.81942805  0.14705354  0.35212401  1
  In  In58  1  0.17235392  0.66282479  0.17243894  1
  In  In59  1  0.63472004  0.47306213  0.80453220  1
  In  In60  1  0.14905370  0.32044249  0.15974523  1
  In  In61  1  0.64486399  0.12724528  0.18771311  1
  In  In62  1  0.32531788  0.16490958  0.17820828  1
  In  In63  1  0.50104169  0.17792835  -0.02277396  1
  In  In64  1  0.66427320  0.66766144  0.00606570  1
  In  In65  1  0.49747966  0.84936886  0.36461733  1
  In  In66  1  0.83316651  0.66140551  0.87049060  1
  In  In67  1  0.84871135  0.16959113  0.02408468  1
  In  In68  1  0.02757071  0.17312411  0.78736136  1
  In  In69  1  0.34280544  0.85913616  0.80621253  1
  In  In70  1  0.85327026  0.66400991  0.19930276  1
  In  In71  1  0.00049479  0.01555184  0.33315197  1
  Te  Te72  1  0.09157745  0.09919361  0.05937167  1
  Te  Te73  1  0.09751647  0.06520664  0.43154226  1
  Te  Te74  1  0.10346394  0.07524950  0.70742423  1
  Te  Te75  1  0.06635061  0.43471605  0.10392488  1
  Te  Te76  1  0.08114246  0.40668738  0.38660744  1
  Te  Te77  1  0.10357080  0.39078102  0.73492108  1
  Te  Te78  1  0.08890040  0.74469835  0.07001156  1
  Te  Te79  1  0.10313706  0.78045996  0.43753893  1
  Te  Te80  1  0.08309411  0.73174288  0.74278887  1
  Te  Te81  1  0.42367433  0.08555009  0.07923262  1
  Te  Te82  1  0.45071914  0.10304856  0.40376510  1
  Te  Te83  1  0.39099457  0.10967989  0.73554922  1
  Te  Te84  1  0.41208328  0.41263587  0.06561231  1
  Te  Te85  1  0.43822770  0.40944259  0.42818210  1
  Te  Te86  1  0.42027623  0.42289186  0.73966684  1
  Te  Te87  1  0.39933981  0.75565102  0.11334621  1
  Te  Te88  1  0.41139734  0.74682518  0.44345756  1
  Te  Te89  1  0.42447979  0.76095392  0.73806710  1
  Te  Te90  1  0.74243601  0.07770059  0.07922306  1
  Te  Te91  1  0.71743861  0.05689198  0.41495319  1
  Te  Te92  1  0.74564116  0.06550412  0.74600684  1
  Te  Te93  1  0.73526460  0.40427817  0.10117078  1
  Te  Te94  1  0.76051177  0.39917233  0.42293603  1
  Te  Te95  1  0.76020245  0.40386040  0.75615355  1
  Te  Te96  1  0.73985109  0.73100049  0.11943065  1
  Te  Te97  1  0.79042176  0.72783225  0.40456707  1
  Te  Te98  1  0.74612470  0.75404737  0.78736954  1
  Te  Te99  1  0.09169805  0.22790802  0.25499298  1
  Te  Te100  1  0.08724751  0.25208144  0.55917685  1
  Te  Te101  1  0.06577063  0.26247444  0.90867029  1
  Te  Te102  1  0.06146775  0.59597576  0.25993569  1
  Te  Te103  1  0.07618468  0.55443255  0.55204053  1
  Te  Te104  1  0.09876490  0.55727093  0.88860823  1
  Te  Te105  1  0.07969736  0.93339147  0.24084212  1
  Te  Te106  1  0.09792618  0.93305853  0.63853072  1
  Te  Te107  1  0.10485689  0.94228216  0.89505727  1
  Te  Te108  1  0.43577584  0.25105104  0.23390992  1
  Te  Te109  1  0.41401051  0.21825025  0.63130799  1
  Te  Te110  1  0.39528201  0.24840765  0.90432524  1
  Te  Te111  1  0.41673112  0.58756777  0.26855787  1
  Te  Te112  1  0.41052252  0.58517057  0.58271595  1
  Te  Te113  1  0.40452123  0.57867315  0.90213997  1
  Te  Te114  1  0.39440150  0.90458463  0.27030255  1
  Te  Te115  1  0.42356908  0.92277696  0.57887335  1
  Te  Te116  1  0.42551176  0.92589732  0.92176215  1
  Te  Te117  1  0.73365128  0.22941591  0.25745463  1
  Te  Te118  1  0.75178533  0.21395158  0.56377653  1
  Te  Te119  1  0.76421629  0.25870551  0.93343017  1
  Te  Te120  1  0.76421571  0.57607268  0.28457486  1
  Te  Te121  1  0.77482053  0.61603395  0.57869899  1
  Te  Te122  1  0.72986787  0.56162251  0.91889103  1
  Te  Te123  1  0.72388925  0.92008926  0.23598525  1
  Te  Te124  1  0.74705343  0.87988929  0.58491991  1
  Te  Te125  1  0.73347388  0.89605516  0.95803804  1
  Te  Te126  1  0.25398742  0.25222301  0.07526840  1
  Te  Te127  1  0.26717520  0.25375861  0.40703961  1
  Te  Te128  1  0.21206272  0.27624988  0.75039350  1
  Te  Te129  1  0.24009115  0.57948443  0.06509232  1
  Te  Te130  1  0.24151284  0.59149360  0.40889084  1
  Te  Te131  1  0.26104023  0.58428973  0.73894098  1
  Te  Te132  1  0.26314161  0.92945361  0.09265467  1
  Te  Te133  1  0.28199402  0.92826367  0.37397115  1
  Te  Te134  1  0.22893149  0.89904359  0.71840934  1
  Te  Te135  1  0.59278200  0.23044880  0.08404918  1
  Te  Te136  1  0.55237744  0.23834245  0.42582721  1
  Te  Te137  1  0.59022663  0.23078991  0.73215562  1
  Te  Te138  1  0.56508678  0.58687284  0.09183759  1
  Te  Te139  1  0.59486709  0.57989212  0.41372512  1
  Te  Te140  1  0.56746256  0.59924123  0.76209135  1
  Te  Te141  1  0.60232933  0.89187616  0.14313165  1
  Te  Te142  1  0.53837903  0.94494617  0.47264175  1
  Te  Te143  1  0.57860729  0.92372489  0.73141223  1
  Te  Te144  1  0.90943418  0.27011462  0.12029396  1
  Te  Te145  1  0.92829393  0.23152465  0.40942633  1
  Te  Te146  1  0.91656048  0.24247879  0.72365708  1
  Te  Te147  1  0.91842904  0.59641204  0.07392675  1
  Te  Te148  1  0.89182729  0.61973550  0.41106174  1
  Te  Te149  1  0.91062621  0.60466348  0.75256593  1
  Te  Te150  1  0.92687845  0.93663218  0.09725101  1
  Te  Te151  1  0.91383552  0.91757573  0.41391257  1
  Te  Te152  1  0.91388046  0.92890969  0.77024407  1
  Te  Te153  1  0.26735847  0.07439991  0.27859979  1
  Te  Te154  1  0.25550086  0.07721889  0.54265212  1
  Te  Te155  1  0.25184160  0.08653231  0.87558112  1
  Te  Te156  1  0.26235000  0.41820401  0.22753302  1
  Te  Te157  1  0.27058089  0.40698997  0.58373808  1
  Te  Te158  1  0.27917941  0.36732224  0.85662656  1
  Te  Te159  1  0.21810771  0.76830058  0.26200969  1
  Te  Te160  1  0.22264566  0.74937538  0.55879239  1
  Te  Te161  1  0.26157372  0.77274664  0.92085418  1
  Te  Te162  1  0.54715243  0.07051941  0.28535133  1
  Te  Te163  1  0.52407914  0.05859900  0.57741019  1
  Te  Te164  1  0.59233297  0.07811713  0.90512242  1
  Te  Te165  1  0.58444631  0.42160500  0.26149655  1
  Te  Te166  1  0.60427371  0.41113870  0.57216392  1
  Te  Te167  1  0.58218894  0.38826374  0.91474457  1
  Te  Te168  1  0.58864088  0.74907718  0.30630211  1
  Te  Te169  1  0.61147409  0.76023166  0.58107006  1
  Te  Te170  1  0.56108535  0.75285600  0.93594369  1
  Te  Te171  1  0.89282885  0.07336115  0.24235979  1
  Te  Te172  1  0.90536199  0.05814544  0.59687032  1
  Te  Te173  1  0.91430832  0.09735368  0.90767172  1
  Te  Te174  1  0.84496268  0.44490892  0.26929133  1
  Te  Te175  1  0.92568214  0.42255512  0.57630005  1
  Te  Te176  1  0.92370426  0.43574008  0.90961072  1
  Te  Te177  1  0.94166935  0.77691154  0.24145820  1
  Te  Te178  1  0.94539084  0.78088065  0.57958167  1
  Te  Te179  1  0.92131661  0.77197972  0.93127109  1
