# generated using pymatgen
data_In2Te3
_symmetry_space_group_name_H-M   'P 1'
_cell_length_a   18.78876347
_cell_length_b   18.79396167
_cell_length_c   18.78468830
_cell_angle_alpha   90.02758250
_cell_angle_beta   89.92423907
_cell_angle_gamma   90.04288139
_symmetry_Int_Tables_number   1
_chemical_formula_structural   In2Te3
_chemical_formula_sum   'In72 Te108'
_cell_volume   6633.15243069
_cell_formula_units_Z   36
loop_
 _symmetry_equiv_pos_site_id
 _symmetry_equiv_pos_as_xyz
  1  'x, y, z'
loop_
 _atom_site_type_symbol
 _atom_site_label
 _atom_site_symmetry_multiplicity
 _atom_site_fract_x
 _atom_site_fract_y
 _atom_site_fract_z
 _atom_site_occupancy
  In  In0  1  0.14773829  0.33520271  0.87008589  1
  In  In1  1  0.53311751  0.29993136  0.49308860  1
  In  In2  1  -0.03700060  0.84299981  0.46083106  1
  In  In3  1  0.51358030  0.34395094  0.85146506  1
  In  In4  1  0.32210657  0.67616640  0.67538026  1
  In  In5  1  0.35791846  0.84474269  0.84278228  1
  In  In6  1  0.34069191  0.83506553  0.16243110  1
  In  In7  1  0.67952406  0.34097154  0.65794258  1
  In  In8  1  0.83887769  0.49103721  0.67716891  1
  In  In9  1  -0.00652555  -0.00890813  0.02075163  1
  In  In10  1  0.66802917  0.16356944  0.86248824  1
  In  In11  1  0.19040859  0.01405469  0.83526790  1
  In  In12  1  0.18849959  0.14561766  0.66720651  1
  In  In13  1  0.64416666  0.68261179  0.33122188  1
  In  In14  1  0.13943634  0.33402710  0.48622391  1
  In  In15  1  0.47706534  0.66917357  0.49987028  1
  In  In16  1  0.14260520  0.65981436  0.84532762  1
  In  In17  1  0.32533025  0.33671161  0.31041687  1
  In  In18  1  -0.01568214  0.85220757  0.85113096  1
  In  In19  1  0.52048639  0.84079924  0.31670524  1
  In  In20  1  0.33706723  0.16823328  0.83195835  1
  In  In21  1  0.50688046  0.01205193  0.17485625  1
  In  In22  1  0.15708084  0.83578363  0.64104477  1
  In  In23  1  0.80889832  0.68798765  0.47300768  1
  In  In24  1  -0.01649960  0.20329889  0.84878677  1
  In  In25  1  0.52099811  0.84344089  -0.00100491  1
  In  In26  1  0.18358954  0.66851817  0.50449677  1
  In  In27  1  0.00376032  0.34611204  0.30691310  1
  In  In28  1  0.00029907  0.64903985  0.00933906  1
  In  In29  1  0.34029336  0.34260139  0.01284925  1
  In  In30  1  -0.01971377  0.47282486  0.86826580  1
  In  In31  1  0.84036391  0.67364484  0.16385719  1
  In  In32  1  0.49761462  0.84965324  0.66316444  1
  In  In33  1  0.16034842  0.65922790  0.15261451  1
  In  In34  1  0.82857069  0.31735017  0.50278632  1
  In  In35  1  0.65893926  0.66110673  -0.01006648  1
  In  In36  1  0.82862770  0.00448506  0.84099781  1
  In  In37  1  -0.00534764  0.66531497  0.31266931  1
  In  In38  1  0.17702196  0.81890314  0.03008481  1
  In  In39  1  0.82934376  0.84313617  0.01585958  1
  In  In40  1  0.16781287  -0.00344538  0.17664485  1
  In  In41  1  0.49055612  0.48832270  0.31300803  1
  In  In42  1  0.37330172  0.13444959  0.46748563  1
  In  In43  1  0.79928357  0.66172812  0.82475440  1
  In  In44  1  0.67900002  0.32819569  0.01247908  1
  In  In45  1  0.49895903  0.32187694  0.16041781  1
  In  In46  1  0.32922721  0.50558147  0.49423262  1
  In  In47  1  0.35307898  0.66386687  0.31918553  1
  In  In48  1  0.84177729  0.48486519  0.33717451  1
  In  In49  1  0.67138866  0.01026237  0.01532778  1
  In  In50  1  0.65609968  -0.00670287  0.65516304  1
  In  In51  1  0.34977408  0.63584012  -0.01991194  1
  In  In52  1  0.81285968  0.15186739  0.32509868  1
  In  In53  1  -0.02011476  0.01056167  0.30446292  1
  In  In54  1  -0.02158612  0.33098906  0.67617976  1
  In  In55  1  -0.01107907  0.66473988  0.64191951  1
  In  In56  1  -0.00642097  0.14627315  0.49377698  1
  In  In57  1  0.17202333  0.51710019  0.66987071  1
  In  In58  1  0.50572953  0.15158636  0.66083763  1
  In  In59  1  0.34428542  0.01258620  0.64610220  1
  In  In60  1  0.18676342  0.86195205  0.36079019  1
  In  In61  1  0.67977707  0.17038865  0.16725802  1
  In  In62  1  0.14554674  0.34653838  0.15711422  1
  In  In63  1  0.35949102  0.34576008  0.68847384  1
  In  In64  1  0.65987537  0.85643814  0.49788854  1
  In  In65  1  -0.00665844  0.01163121  0.65423155  1
  In  In66  1  0.16727192  0.18496579  0.32719586  1
  In  In67  1  0.66175049  0.49824018  0.16321871  1
  In  In68  1  0.66475392  0.49633479  0.85335843  1
  In  In69  1  0.66862413  0.47874971  0.50510512  1
  In  In70  1  0.35090165  0.15993372  0.17347018  1
  In  In71  1  0.67050495  0.66599583  0.69283889  1
  Te  Te72  1  0.08616076  0.08351716  0.08967483  1
  Te  Te73  1  0.08570726  0.07438030  0.39756234  1
  Te  Te74  1  0.07445077  0.08650309  0.76255813  1
  Te  Te75  1  0.05761432  0.41118675  0.05624089  1
  Te  Te76  1  0.08990774  0.43353547  0.39138555  1
  Te  Te77  1  0.07938690  0.42180386  0.75066189  1
  Te  Te78  1  0.05420383  0.76230576  0.09588396  1
  Te  Te79  1  0.08377976  0.74866223  0.41951334  1
  Te  Te80  1  0.07381661  0.75455510  0.74414065  1
  Te  Te81  1  0.42406608  0.08021860  0.07239438  1
  Te  Te82  1  0.45887802  0.03710945  0.39904786  1
  Te  Te83  1  0.42778566  0.06699124  0.76153788  1
  Te  Te84  1  0.41633195  0.43205435  0.10588225  1
  Te  Te85  1  0.42100777  0.40515252  0.42404797  1
  Te  Te86  1  0.41724645  0.44333586  0.78712581  1
  Te  Te87  1  0.41595298  0.74867506  0.06447369  1
  Te  Te88  1  0.41482423  0.77086387  0.40754073  1
  Te  Te89  1  0.43287749  0.74453419  0.75567733  1
  Te  Te90  1  0.77641581  0.07773708  0.09761464  1
  Te  Te91  1  0.72566795  0.12093303  0.44244950  1
  Te  Te92  1  0.73837650  0.08698069  0.75176325  1
  Te  Te93  1  0.76536264  0.40591765  0.10673481  1
  Te  Te94  1  0.73815152  0.39096267  0.40301820  1
  Te  Te95  1  0.75882068  0.40432978  0.77158008  1
  Te  Te96  1  0.73319133  0.75257505  0.09174441  1
  Te  Te97  1  0.74589794  0.79031015  0.37512198  1
  Te  Te98  1  0.75022046  0.77694047  0.74788996  1
  Te  Te99  1  0.06590288  0.23232845  0.22588787  1
  Te  Te100  1  0.08080270  0.23975910  0.59301142  1
  Te  Te101  1  0.09079593  0.22452958  0.95385517  1
  Te  Te102  1  0.07326533  0.56991249  0.23283889  1
  Te  Te103  1  0.07884079  0.57062337  0.56207551  1
  Te  Te104  1  0.09422550  0.54988025  0.93921843  1
  Te  Te105  1  0.08052741  0.90225208  0.25875427  1
  Te  Te106  1  0.06340261  0.91811410  0.55529610  1
  Te  Te107  1  0.10064637  0.91586003  0.92356850  1
  Te  Te108  1  0.43479881  0.23865818  0.27357778  1
  Te  Te109  1  0.40334835  0.23887903  0.58667466  1
  Te  Te110  1  0.42645455  0.24633435  0.92832575  1
  Te  Te111  1  0.41417290  0.57386434  0.21902537  1
  Te  Te112  1  0.41318670  0.57517760  0.60147677  1
  Te  Te113  1  0.43809482  0.56370429  0.88812527  1
  Te  Te114  1  0.40529249  0.93079765  0.26122472  1
  Te  Te115  1  0.42851932  0.92742129  0.55800679  1
  Te  Te116  1  0.42018766  0.93686611  0.93859038  1
  Te  Te117  1  0.77249280  0.26499943  0.23618759  1
  Te  Te118  1  0.74068468  0.22790350  0.58280140  1
  Te  Te119  1  0.77291900  0.24484663  0.93009747  1
  Te  Te120  1  0.74852333  0.58850415  0.26629635  1
  Te  Te121  1  0.75597484  0.58012859  0.58095227  1
  Te  Te122  1  0.77137568  0.56519930  0.93801297  1
  Te  Te123  1  0.80319149  0.89716223  0.27443053  1
  Te  Te124  1  0.76336744  0.92630915  0.57560152  1
  Te  Te125  1  0.73680696  0.90960384  0.91626960  1
  Te  Te126  1  0.25407632  0.25042453  0.09967220  1
  Te  Te127  1  0.25751502  0.25316004  0.43103303  1
  Te  Te128  1  0.24017090  0.26349885  0.75611290  1
  Te  Te129  1  0.24888295  0.57487148  0.06951322  1
  Te  Te130  1  0.24564290  0.58237389  0.39367975  1
  Te  Te131  1  0.25653375  0.58215821  0.77687127  1
  Te  Te132  1  0.26496793  0.93444012  0.07401410  1
  Te  Te133  1  0.26892535  0.94009732  0.45296721  1
  Te  Te134  1  0.25353986  0.91185462  0.73760735  1
  Te  Te135  1  0.57756669  0.22891429  0.06970180  1
  Te  Te136  1  0.60504150  0.20752975  0.40165788  1
  Te  Te137  1  0.58342617  0.25243270  0.74937485  1
  Te  Te138  1  0.57238290  0.58550667  0.08529348  1
  Te  Te139  1  0.57447875  0.57348096  0.42049965  1
  Te  Te140  1  0.57756685  0.57453953  0.76186102  1
  Te  Te141  1  0.60328339  0.91207897  0.11126727  1
  Te  Te142  1  0.59378624  0.94650410  0.39588160  1
  Te  Te143  1  0.58080103  0.92033464  0.76031385  1
  Te  Te144  1  0.96835595  0.29075076  0.04327811  1
  Te  Te145  1  0.92651546  0.25019064  0.40352204  1
  Te  Te146  1  0.88858195  0.23423794  0.73963099  1
  Te  Te147  1  0.91381844  0.56448858  0.09511317  1
  Te  Te148  1  0.91419528  0.59074057  0.42123527  1
  Te  Te149  1  0.93110176  0.58501123  0.76137319  1
  Te  Te150  1  0.89951044  0.92561959  0.11775405  1
  Te  Te151  1  0.87757248  0.95443452  0.40406740  1
  Te  Te152  1  0.90633224  0.91640253  0.74028183  1
  Te  Te153  1  0.25999355  0.07940825  0.26736095  1
  Te  Te154  1  0.23745205  0.06405643  0.54646631  1
  Te  Te155  1  0.24874765  0.10556432  0.93360959  1
  Te  Te156  1  0.23712805  0.42984535  0.24043099  1
  Te  Te157  1  0.24835220  0.41156540  0.58894280  1
  Te  Te158  1  0.25691225  0.42098004  0.91777043  1
  Te  Te159  1  0.24134209  0.75685005  0.25193393  1
  Te  Te160  1  0.27561092  0.77260122  0.56652255  1
  Te  Te161  1  0.24654748  0.75396269  0.90999952  1
  Te  Te162  1  0.59297032  0.09624938  0.26583329  1
  Te  Te163  1  0.59039558  0.08759260  0.55702942  1
  Te  Te164  1  0.57130051  0.07393883  0.92628004  1
  Te  Te165  1  0.59476817  0.39390578  0.25641437  1
  Te  Te166  1  0.56325676  0.41663639  0.59595586  1
  Te  Te167  1  0.57711407  0.42954731  0.95978422  1
  Te  Te168  1  0.56205473  0.73563016  0.22116533  1
  Te  Te169  1  0.59137232  0.73882250  0.57406411  1
  Te  Te170  1  0.58464059  0.75240974  0.90105057  1
  Te  Te171  1  0.90300879  0.10284501  0.21464166  1
  Te  Te172  1  0.89022730  0.08920994  0.58182271  1
  Te  Te173  1  0.91582316  0.08781311  0.93168877  1
  Te  Te174  1  0.90571774  0.41789066  0.22006369  1
  Te  Te175  1  0.92107443  0.42192601  0.56733473  1
  Te  Te176  1  0.89899608  0.36161033  0.92479085  1
  Te  Te177  1  0.90324494  0.77441555  0.25952229  1
  Te  Te178  1  0.89482031  0.76378404  0.57601650  1
  Te  Te179  1  0.90891499  0.73990285  0.92105591  1
