# generated using pymatgen
data_In2Te3
_symmetry_space_group_name_H-M   'P 1'
_cell_length_a   18.86837111
_cell_length_b   18.86667758
_cell_length_c   18.87447344
_cell_angle_alpha   90.00515745
_cell_angle_beta   89.98878254
_cell_angle_gamma   89.77585564
_symmetry_Int_Tables_number   1
_chemical_formula_structural   In2Te3
_chemical_formula_sum   'In72 Te108'
_cell_volume   6718.94905986
_cell_formula_units_Z   36
loop_
 _symmetry_equiv_pos_site_id
 _symmetry_equiv_pos_as_xyz
  1  'x, y, z'
loop_
 _atom_site_type_symbol
 _atom_site_label
 _atom_site_symmetry_multiplicity
 _atom_site_fract_x
 _atom_site_fract_y
 _atom_site_fract_z
 _atom_site_occupancy
  In  In0  1  0.32093605  -0.00890181  0.66065213  1
  In  In1  1  0.20606308  0.53545698  0.70201565  1
  In  In2  1  0.50513416  0.66478475  0.50833471  1
  In  In3  1  0.80945224  0.48261055  -0.00440190  1
  In  In4  1  0.17722545  0.33507848  0.87372395  1
  In  In5  1  0.64200697  0.84708846  0.87158880  1
  In  In6  1  0.31414485  0.83495278  0.49972067  1
  In  In7  1  0.32600338  0.33129797  0.67284004  1
  In  In8  1  0.86655110  0.65511052  0.17285385  1
  In  In9  1  0.84443192  0.85648369  0.00219378  1
  In  In10  1  0.01005597  0.31343165  0.01514885  1
  In  In11  1  0.46990068  0.48366029  0.67956484  1
  In  In12  1  0.47624862  0.87751126  0.30923461  1
  In  In13  1  0.31069049  0.67495737  0.00023206  1
  In  In14  1  0.87068803  0.84256410  0.31522817  1
  In  In15  1  0.48612054  0.85536194  -0.00953459  1
  In  In16  1  0.64519157  0.49748749  0.81840919  1
  In  In17  1  0.02045881  0.68376757  0.66757977  1
  In  In18  1  0.67391109  0.29961029  0.32692549  1
  In  In19  1  0.65252569  0.83265201  0.47542897  1
  In  In20  1  0.19899152  0.50894338  -0.01082543  1
  In  In21  1  0.50204683  0.66548281  0.14772368  1
  In  In22  1  0.65603355  0.32105223  0.66474769  1
  In  In23  1  -0.01776846  0.49541040  0.48788677  1
  In  In24  1  0.20607858  0.33116339  0.13910873  1
  In  In25  1  0.84895828  0.69952233  0.87076190  1
  In  In26  1  0.50906422  0.16816483  0.66347697  1
  In  In27  1  0.04147122  0.66968190  0.02989342  1
  In  In28  1  0.65008919  0.31525191  0.01327671  1
  In  In29  1  0.80827209  0.02349638  0.45254903  1
  In  In30  1  0.66170602  0.69667743  -0.00690633  1
  In  In31  1  0.14962426  0.87958112  0.30445198  1
  In  In32  1  -0.00844903  0.15726474  0.15978214  1
  In  In33  1  0.86488426  0.01853129  0.86066180  1
  In  In34  1  0.17926681  0.84468094  0.68237089  1
  In  In35  1  0.36009288  0.04020703  0.28796741  1
  In  In36  1  0.68022311  0.65494730  0.67943056  1
  In  In37  1  0.31751897  0.69886627  0.33133108  1
  In  In38  1  0.83051390  0.32201622  0.47292329  1
  In  In39  1  0.00248434  0.50485978  0.85810556  1
  In  In40  1  0.17105437  0.01487416  0.48751477  1
  In  In41  1  0.83451805  0.01273940  0.17429570  1
  In  In42  1  0.83953665  0.82731387  0.66691729  1
  In  In43  1  0.45635813  0.80740769  0.70178860  1
  In  In44  1  0.65241378  0.66629238  0.32627875  1
  In  In45  1  0.34261982  0.16773642  0.85918763  1
  In  In46  1  0.83104808  0.16611404  0.66336177  1
  In  In47  1  0.48790316  0.50418668  0.01932564  1
  In  In48  1  -0.00566911  0.32099383  0.32379379  1
  In  In49  1  0.01674247  0.31937334  0.68641716  1
  In  In50  1  0.17154843  0.87040695  0.01749648  1
  In  In51  1  0.84544068  0.51440127  0.66105066  1
  In  In52  1  0.04657873  0.51493974  0.19975463  1
  In  In53  1  0.16663386  0.14695963  0.31089602  1
  In  In54  1  0.65747545  -0.02587411  0.67161434  1
  In  In55  1  0.35070426  0.48486207  0.49516479  1
  In  In56  1  0.66621048  0.16189081  0.16120355  1
  In  In57  1  0.84687415  0.48706526  0.33660837  1
  In  In58  1  0.50319619  0.47245191  0.30701003  1
  In  In59  1  0.00690056  -0.00207890  0.65847352  1
  In  In60  1  0.82558587  0.29142015  0.82087567  1
  In  In61  1  0.16074975  0.66861121  0.48947316  1
  In  In62  1  0.47663408  0.02046278  0.47757356  1
  In  In63  1  0.15336155  0.15068397  0.66242561  1
  In  In64  1  0.52644852  0.32353430  0.48322918  1
  In  In65  1  0.64757075  0.46384530  0.19532157  1
  In  In66  1  0.33715843  0.48349071  0.16854102  1
  In  In67  1  0.62291708  0.13760855  0.84449749  1
  In  In68  1  0.17452071  0.14426613  0.02515072  1
  In  In69  1  0.84824398  0.65909327  0.50934337  1
  In  In70  1  0.65818217  0.86578854  0.13824435  1
  In  In71  1  0.16612102  0.30902320  0.49430518  1
  Te  Te72  1  0.07686524  0.04985106  0.09332605  1
  Te  Te73  1  0.07158202  0.07595280  0.39837137  1
  Te  Te74  1  0.10239302  0.05149138  0.75714891  1
  Te  Te75  1  0.08657244  0.43317931  0.06843036  1
  Te  Te76  1  0.08194185  0.40997954  0.41192551  1
  Te  Te77  1  0.09552919  0.42424222  0.76553916  1
  Te  Te78  1  0.12891292  0.75780734  0.11106905  1
  Te  Te79  1  0.09892430  0.75942820  0.38909144  1
  Te  Te80  1  0.09583455  0.75712867  0.76751001  1
  Te  Te81  1  0.45243378  0.14280504  0.21794862  1
  Te  Te82  1  0.39799012  0.12406481  0.40678072  1
  Te  Te83  1  0.40593802  0.09128028  0.74206889  1
  Te  Te84  1  0.44059165  0.39596570  0.10767483  1
  Te  Te85  1  0.41478352  0.38572615  0.39847985  1
  Te  Te86  1  0.39765615  0.40397194  0.77979638  1
  Te  Te87  1  0.40618385  0.76164418  0.08348534  1
  Te  Te88  1  0.43350629  0.76554551  0.41590105  1
  Te  Te89  1  0.35246519  0.74766263  0.78693909  1
  Te  Te90  1  0.74127796  0.06749935  0.07367943  1
  Te  Te91  1  0.71310896  0.10835004  0.37330109  1
  Te  Te92  1  0.73660729  0.07981183  0.74915010  1
  Te  Te93  1  0.74949333  0.39246947  0.10199196  1
  Te  Te94  1  0.73256841  0.41884423  0.40850938  1
  Te  Te95  1  0.75623627  0.41489023  0.74625575  1
  Te  Te96  1  0.76266664  0.75295189  0.09165891  1
  Te  Te97  1  0.75771952  0.74169293  0.41082693  1
  Te  Te98  1  0.74370769  0.76408241  0.77122415  1
  Te  Te99  1  0.09258186  0.25903864  0.22252460  1
  Te  Te100  1  0.06078448  0.23005394  0.57015202  1
  Te  Te101  1  0.08874775  0.22159036  0.92254573  1
  Te  Te102  1  0.07981676  0.61605522  0.29784560  1
  Te  Te103  1  0.07754330  0.57068189  0.58218984  1
  Te  Te104  1  0.10696174  0.60185852  0.90826508  1
  Te  Te105  1  0.05411965  0.94005590  0.20426216  1
  Te  Te106  1  0.09796751  0.91078662  0.57068773  1
  Te  Te107  1  0.05238489  0.90519554  0.93526203  1
  Te  Te108  1  0.32876978  0.26453803  0.21073648  1
  Te  Te109  1  0.42313351  0.26040925  0.57865713  1
  Te  Te110  1  0.45086808  0.21817114  0.94558882  1
  Te  Te111  1  0.42013759  0.59643525  0.25602049  1
  Te  Te112  1  0.40179574  0.59201130  0.59135312  1
  Te  Te113  1  0.40461833  0.58279510  0.92545601  1
  Te  Te114  1  0.40095518  0.93019031  0.19008242  1
  Te  Te115  1  0.42782783  0.90924953  0.57935245  1
  Te  Te116  1  0.40681454  0.95857942  0.91520581  1
  Te  Te117  1  0.77202578  0.23117635  0.24142909  1
  Te  Te118  1  0.73921576  0.24055279  0.56715344  1
  Te  Te119  1  0.72928620  0.22499044  0.91452685  1
  Te  Te120  1  0.75317736  0.58071053  0.24611600  1
  Te  Te121  1  0.73893344  0.56920042  0.56637369  1
  Te  Te122  1  0.74190896  0.58419450  0.90129209  1
  Te  Te123  1  0.74731940  0.91028097  0.25226269  1
  Te  Te124  1  0.75413815  0.90951243  0.56900379  1
  Te  Te125  1  0.74481960  0.94457462  0.92741164  1
  Te  Te126  1  0.29395443  0.23060641  0.06627776  1
  Te  Te127  1  0.25136760  0.22978410  0.40383100  1
  Te  Te128  1  0.23380918  0.24218376  0.75816192  1
  Te  Te129  1  0.24516070  0.58905139  0.11058251  1
  Te  Te130  1  0.26330153  0.58263339  0.41332012  1
  Te  Te131  1  0.30276080  0.59913868  0.79136184  1
  Te  Te132  1  0.27301622  0.95057836  0.09799341  1
  Te  Te133  1  0.26801781  0.93396110  0.39587487  1
  Te  Te134  1  0.26595591  0.91942424  0.77766695  1
  Te  Te135  1  0.55934167  0.20490170  0.05897171  1
  Te  Te136  1  0.59408285  0.20652809  0.41561828  1
  Te  Te137  1  0.56635653  0.26144201  0.77012046  1
  Te  Te138  1  0.61270161  0.57760778  0.08697582  1
  Te  Te139  1  0.57086843  0.56972101  0.41006117  1
  Te  Te140  1  0.55599045  0.59613618  0.74647603  1
  Te  Te141  1  0.56770454  0.95801247  0.06697634  1
  Te  Te142  1  0.58307104  0.94165419  0.39690026  1
  Te  Te143  1  0.55434231  0.91007795  0.76268970  1
  Te  Te144  1  0.89754529  0.22395439  0.05865342  1
  Te  Te145  1  0.91474573  0.22415218  0.40233174  1
  Te  Te146  1  0.94054041  0.21110738  0.76125094  1
  Te  Te147  1  0.91551828  0.57823969  0.05119774  1
  Te  Te148  1  0.93281818  0.60422312  0.39082601  1
  Te  Te149  1  0.91711373  0.59937032  0.76391585  1
  Te  Te150  1  0.93696624  0.92513282  0.09854956  1
  Te  Te151  1  0.92041448  0.93196902  0.41963576  1
  Te  Te152  1  0.91910585  0.91659329  0.75829029  1
  Te  Te153  1  0.23223710  0.06068846  0.20354130  1
  Te  Te154  1  0.26418426  0.10046891  0.57134049  1
  Te  Te155  1  0.26671946  0.06375531  0.93640596  1
  Te  Te156  1  0.24417312  0.41210854  0.25939863  1
  Te  Te157  1  0.23852622  0.41928596  0.58247167  1
  Te  Te158  1  0.29116400  0.40635281  0.93242646  1
  Te  Te159  1  0.24429483  0.78365458  0.23480961  1
  Te  Te160  1  0.24984767  0.73669215  0.59280911  1
  Te  Te161  1  0.25289663  0.78579273  0.91818251  1
  Te  Te162  1  0.58317456  0.08391573  0.26053695  1
  Te  Te163  1  0.58661634  0.07008095  0.57735693  1
  Te  Te164  1  0.52591009  0.05039988  0.92479695  1
  Te  Te165  1  0.55757605  0.34723959  0.23705703  1
  Te  Te166  1  0.57706810  0.42488341  0.58630488  1
  Te  Te167  1  0.57581933  0.41621874  0.92482100  1
  Te  Te168  1  0.57818540  0.76826087  0.23907565  1
  Te  Te169  1  0.59515145  0.75415262  0.59393336  1
  Te  Te170  1  0.54515867  0.73459415  0.90750026  1
  Te  Te171  1  0.91266321  0.09715417  0.27006798  1
  Te  Te172  1  0.90163524  0.06768769  0.57221408  1
  Te  Te173  1  0.92530244  0.11167579  0.95230659  1
  Te  Te174  1  0.92869388  0.42108364  0.22687755  1
  Te  Te175  1  0.91485277  0.39550073  0.59196245  1
  Te  Te176  1  0.90874408  0.39330644  0.90878831  1
  Te  Te177  1  0.95167468  0.76491784  0.21953797  1
  Te  Te178  1  0.93920055  0.76571339  0.56839744  1
  Te  Te179  1  0.96738942  0.77770255  0.93580168  1
