# generated using pymatgen
data_In2Te3
_symmetry_space_group_name_H-M   'P 1'
_cell_length_a   18.93962486
_cell_length_b   18.94660364
_cell_length_c   18.96561246
_cell_angle_alpha   89.97685171
_cell_angle_beta   89.90108458
_cell_angle_gamma   89.90705935
_symmetry_Int_Tables_number   1
_chemical_formula_structural   In2Te3
_chemical_formula_sum   'In72 Te108'
_cell_volume   6805.63041685
_cell_formula_units_Z   36
loop_
 _symmetry_equiv_pos_site_id
 _symmetry_equiv_pos_as_xyz
  1  'x, y, z'
loop_
 _atom_site_type_symbol
 _atom_site_label
 _atom_site_symmetry_multiplicity
 _atom_site_fract_x
 _atom_site_fract_y
 _atom_site_fract_z
 _atom_site_occupancy
  In  In0  1  0.35655511  0.83083413  0.16359051  1
  In  In1  1  0.85645910  0.16846202  0.66815202  1
  In  In2  1  0.17737536  0.64590835  0.83354900  1
  In  In3  1  0.01149856  0.47307583  0.50534003  1
  In  In4  1  0.83654766  -0.02754547  0.83509290  1
  In  In5  1  0.46249646  0.28942621  0.87207204  1
  In  In6  1  0.26364709  0.05957352  0.67835004  1
  In  In7  1  -0.01184452  0.67938167  0.34080109  1
  In  In8  1  0.18970588  0.16196964  0.32065559  1
  In  In9  1  0.01627346  0.02740818  -0.01172964  1
  In  In10  1  0.83230576  0.33411646  0.49503266  1
  In  In11  1  0.65648128  0.00423708  0.66028772  1
  In  In12  1  0.31143308  0.32095624  0.65939701  1
  In  In13  1  0.45549426  0.46848207  0.61215448  1
  In  In14  1  0.65555116  0.14716249  0.85734145  1
  In  In15  1  0.49122470  0.02464076  0.85747761  1
  In  In16  1  0.81170675  0.87533188  0.35315634  1
  In  In17  1  -0.00620285  0.83321303  0.84564192  1
  In  In18  1  0.67580059  0.66963375  0.66694763  1
  In  In19  1  0.37516393  0.83515987  0.46838757  1
  In  In20  1  0.66822989  0.83339844  0.83599897  1
  In  In21  1  0.83950344  0.51281481  0.65311910  1
  In  In22  1  0.33195062  0.46755680  0.83260766  1
  In  In23  1  0.34675477  -0.00349284  0.31455546  1
  In  In24  1  -0.00769961  0.48421658  0.19557447  1
  In  In25  1  0.36856224  0.50851291  0.17242822  1
  In  In26  1  -0.00207397  0.64205363  0.65384318  1
  In  In27  1  0.02119704  -0.00234196  0.33955191  1
  In  In28  1  0.64678728  0.48594779  0.18917515  1
  In  In29  1  0.83164372  0.01151128  0.17458206  1
  In  In30  1  0.78698890  0.50266141  0.00444163  1
  In  In31  1  0.18040632  0.32089308  0.49097168  1
  In  In32  1  0.47083479  0.30717876  0.18875151  1
  In  In33  1  0.16040399  0.84268000  0.02225033  1
  In  In34  1  0.17006818  0.84336418  0.68142726  1
  In  In35  1  0.50633387  0.66550082  0.81097907  1
  In  In36  1  0.16179534  0.34006392  0.83623075  1
  In  In37  1  0.64859473  0.50594044  0.83886989  1
  In  In38  1  0.79967573  0.83782020  0.02517212  1
  In  In39  1  0.02744910  0.81961883  0.52335591  1
  In  In40  1  0.17517048  0.49809729  0.34680172  1
  In  In41  1  0.82585481  0.66682975  0.48516244  1
  In  In42  1  0.35905645  0.03344418  0.02089257  1
  In  In43  1  0.34409818  0.66184605  0.65915624  1
  In  In44  1  0.84574590  0.31338110  0.82318659  1
  In  In45  1  0.67091329  0.21270323  0.19277168  1
  In  In46  1  0.48108097  0.02257677  0.49281299  1
  In  In47  1  0.17458654  0.67085293  0.48159829  1
  In  In48  1  0.82091163  0.14387441  -0.01453322  1
  In  In49  1  0.00886712  0.18138476  0.49702451  1
  In  In50  1  -0.00144514  0.85783261  0.18314338  1
  In  In51  1  0.65940907  0.32854444  0.67648653  1
  In  In52  1  -0.00609147  0.34606521  0.01808675  1
  In  In53  1  0.64979609  0.02597984  0.30783216  1
  In  In54  1  0.64747185  0.84348061  0.51332786  1
  In  In55  1  0.80834923  0.01855901  0.47960592  1
  In  In56  1  -0.00435896  0.66083306  -0.01430211  1
  In  In57  1  0.16743542  0.17719271  0.00932748  1
  In  In58  1  0.04471062  0.02627214  0.68601674  1
  In  In59  1  0.81547852  0.46765221  0.31944962  1
  In  In60  1  0.50456606  0.84860290  0.01377716  1
  In  In61  1  0.51572093  0.49488292  0.00686256  1
  In  In62  1  0.81850636  0.65963567  0.15946778  1
  In  In63  1  0.34001106  0.67844295  -0.00608756  1
  In  In64  1  0.00629299  0.49311418  0.82141069  1
  In  In65  1  0.19428506  0.31504607  0.17019605  1
  In  In66  1  0.51161946  0.29642007  0.45881799  1
  In  In67  1  0.48397922  0.16481192  0.65214510  1
  In  In68  1  0.50348978  0.81033241  0.66425032  1
  In  In69  1  -0.00613988  0.15971083  0.16103690  1
  In  In70  1  0.20043409  0.67742629  0.17498403  1
  In  In71  1  0.56750653  0.65231073  0.31068291  1
  Te  Te72  1  0.10275091  0.07278526  0.10233540  1
  Te  Te73  1  0.10727582  0.08811591  0.42453564  1
  Te  Te74  1  0.14342167  0.10259107  0.76167177  1
  Te  Te75  1  0.09400559  0.41633993  0.10578935  1
  Te  Te76  1  0.07651721  0.39418895  0.39673582  1
  Te  Te77  1  0.09613513  0.42195127  0.73232186  1
  Te  Te78  1  0.06825249  0.74261181  0.09226709  1
  Te  Te79  1  0.09603990  0.77006387  0.39685692  1
  Te  Te80  1  0.07550525  0.73458318  0.75455493  1
  Te  Te81  1  0.47796102  0.07113254  0.10411410  1
  Te  Te82  1  0.40851514  0.10799932  0.39553970  1
  Te  Te83  1  0.40283760  0.08423003  0.74883981  1
  Te  Te84  1  0.41827062  0.40295609  0.07628172  1
  Te  Te85  1  0.44393538  0.40921971  0.38575560  1
  Te  Te86  1  0.42925786  0.39279835  0.74327882  1
  Te  Te87  1  0.44237124  0.72830422  0.09106295  1
  Te  Te88  1  0.46921617  0.75252292  0.38778462  1
  Te  Te89  1  0.39852571  0.75997677  0.76181455  1
  Te  Te90  1  0.73455809  0.09907096  0.10094418  1
  Te  Te91  1  0.73665670  0.11663680  0.39271310  1
  Te  Te92  1  0.75091121  0.08110638  0.75449686  1
  Te  Te93  1  0.72688871  0.40494461  0.09279887  1
  Te  Te94  1  0.72679342  0.39719118  0.41189674  1
  Te  Te95  1  0.75419090  0.42308814  0.75100811  1
  Te  Te96  1  0.71551095  0.73882779  0.09137411  1
  Te  Te97  1  0.73214721  0.76121331  0.41254966  1
  Te  Te98  1  0.75634757  0.76652300  0.74011879  1
  Te  Te99  1  0.08342600  0.24558588  0.24786799  1
  Te  Te100  1  0.10864637  0.23766480  0.59483833  1
  Te  Te101  1  0.06630994  0.25187896  0.92568889  1
  Te  Te102  1  0.08473757  0.59538343  0.25462682  1
  Te  Te103  1  0.10414534  0.57086277  0.57433014  1
  Te  Te104  1  0.09424926  0.56145284  0.92813981  1
  Te  Te105  1  0.11002720  0.92571575  0.24679906  1
  Te  Te106  1  0.10638668  0.93685900  0.57887074  1
  Te  Te107  1  0.09560208  0.92425955  0.91024750  1
  Te  Te108  1  0.38425101  0.22546140  0.28093343  1
  Te  Te109  1  0.40428125  0.24841550  0.55710523  1
  Te  Te110  1  0.38229310  0.19413977  0.95336679  1
  Te  Te111  1  0.43080689  0.58977458  0.27889946  1
  Te  Te112  1  0.40956502  0.59118262  0.54816542  1
  Te  Te113  1  0.41887380  0.57818154  0.90622908  1
  Te  Te114  1  0.45962261  0.91874713  0.23589692  1
  Te  Te115  1  0.42506994  0.91516103  0.58738692  1
  Te  Te116  1  0.40642393  0.91795036  0.92394470  1
  Te  Te117  1  0.76796835  0.29256861  0.27246238  1
  Te  Te118  1  0.75027766  0.24241796  0.59030764  1
  Te  Te119  1  0.74207466  0.25629059  0.91811586  1
  Te  Te120  1  0.74129351  0.58868406  0.26918195  1
  Te  Te121  1  0.73616191  0.57022404  0.56008140  1
  Te  Te122  1  0.73079688  0.60048519  0.91322652  1
  Te  Te123  1  0.73200855  0.91411673  0.23315922  1
  Te  Te124  1  0.75796300  0.91976549  0.58536997  1
  Te  Te125  1  0.72654060  0.93502972  0.93368271  1
  Te  Te126  1  0.28507338  0.24501652  0.07418108  1
  Te  Te127  1  0.27251440  0.27176569  0.38232099  1
  Te  Te128  1  0.25406596  0.24330300  0.77030624  1
  Te  Te129  1  0.26228143  0.58074744  0.08000451  1
  Te  Te130  1  0.27087521  0.59638816  0.39877676  1
  Te  Te131  1  0.25857431  0.56259021  0.73772968  1
  Te  Te132  1  0.26655260  0.92568620  0.08751722  1
  Te  Te133  1  0.27318980  0.92991304  0.42391295  1
  Te  Te134  1  0.26415131  0.92916726  0.75014772  1
  Te  Te135  1  0.58189154  0.27803766  0.09406318  1
  Te  Te136  1  0.60228400  0.19883486  0.39272018  1
  Te  Te137  1  0.57399426  0.23139150  0.75943232  1
  Te  Te138  1  0.58213759  0.58459650  0.10081703  1
  Te  Te139  1  0.54293385  0.52934506  0.39064356  1
  Te  Te140  1  0.57240554  0.56386032  0.72057355  1
  Te  Te141  1  0.56439570  0.93256643  0.11905993  1
  Te  Te142  1  0.58398014  0.94107563  0.41716449  1
  Te  Te143  1  0.56977926  0.92457054  0.75618559  1
  Te  Te144  1  0.90006789  0.24019479  0.07446737  1
  Te  Te145  1  0.91288245  0.24625996  0.40857632  1
  Te  Te146  1  0.95061144  0.24622774  0.74763547  1
  Te  Te147  1  0.91922373  0.56853728  0.08955889  1
  Te  Te148  1  0.92126581  0.56558039  0.41895207  1
  Te  Te149  1  0.90547671  0.59266691  0.76405599  1
  Te  Te150  1  0.91866933  0.93377323  0.06958891  1
  Te  Te151  1  0.93493275  0.90864065  0.43186283  1
  Te  Te152  1  0.94068224  0.92319399  0.73516437  1
  Te  Te153  1  0.28552005  0.10026633  0.22410913  1
  Te  Te154  1  0.23473019  0.15456152  0.56711221  1
  Te  Te155  1  0.25429311  0.08608527  0.92811903  1
  Te  Te156  1  0.26517947  0.42412867  0.24850313  1
  Te  Te157  1  0.26677494  0.41884575  0.55970713  1
  Te  Te158  1  0.25061521  0.40373357  0.93448079  1
  Te  Te159  1  0.27635893  0.76038717  0.26555392  1
  Te  Te160  1  0.24991759  0.75665765  0.58287612  1
  Te  Te161  1  0.23556992  0.75733099  0.91790337  1
  Te  Te162  1  0.55640150  0.11626760  0.23274606  1
  Te  Te163  1  0.59244069  0.10127757  0.56595739  1
  Te  Te164  1  0.57194790  0.08909353  0.96447975  1
  Te  Te165  1  0.55677037  0.40120516  0.27699324  1
  Te  Te166  1  0.57765740  0.39063269  0.56568583  1
  Te  Te167  1  0.57241369  0.39609390  0.90743903  1
  Te  Te168  1  0.55419635  0.79180386  0.26361339  1
  Te  Te169  1  0.57345979  0.72108160  0.56554946  1
  Te  Te170  1  0.57478188  0.74698956  0.91709608  1
  Te  Te171  1  0.91766904  0.08706842  0.27176305  1
  Te  Te172  1  0.92056653  0.07351806  0.56865486  1
  Te  Te173  1  0.92213033  0.08760760  0.88668191  1
  Te  Te174  1  0.89574897  0.37571862  0.23339331  1
  Te  Te175  1  0.92405063  0.39805799  0.60224484  1
  Te  Te176  1  0.90383117  0.42401673  0.92006197  1
  Te  Te177  1  0.89903177  0.76385366  0.25060477  1
  Te  Te178  1  0.90940532  0.74447797  0.58483107  1
  Te  Te179  1  0.89331727  0.75727551  0.92974427  1
