# generated using pymatgen
data_In2Te3
_symmetry_space_group_name_H-M   'P 1'
_cell_length_a   18.96128307
_cell_length_b   18.93274080
_cell_length_c   18.94964696
_cell_angle_alpha   89.88319162
_cell_angle_beta   89.87148586
_cell_angle_gamma   90.09555354
_symmetry_Int_Tables_number   1
_chemical_formula_structural   In2Te3
_chemical_formula_sum   'In72 Te108'
_cell_volume   6802.67514163
_cell_formula_units_Z   36
loop_
 _symmetry_equiv_pos_site_id
 _symmetry_equiv_pos_as_xyz
  1  'x, y, z'
loop_
 _atom_site_type_symbol
 _atom_site_label
 _atom_site_symmetry_multiplicity
 _atom_site_fract_x
 _atom_site_fract_y
 _atom_site_fract_z
 _atom_site_occupancy
  In  In0  1  0.33800043  0.68034014  0.34022730  1
  In  In1  1  0.17506076  0.49140459  -0.00182661  1
  In  In2  1  -0.01384839  0.01181612  -0.02319583  1
  In  In3  1  0.50017210  0.49230615  0.65505527  1
  In  In4  1  0.35531365  0.49853357  0.47052767  1
  In  In5  1  0.33464718  0.32469709  0.67654414  1
  In  In6  1  0.17436278  0.80422962  -0.01047940  1
  In  In7  1  0.34122806  0.18521563  0.17543890  1
  In  In8  1  0.50117976  0.66183052  0.16594474  1
  In  In9  1  0.31625267  -0.01396361  0.66237781  1
  In  In10  1  0.17368345  0.31789411  0.51177310  1
  In  In11  1  0.82592423  0.00153376  0.82757748  1
  In  In12  1  0.66468029  0.83883302  0.50074699  1
  In  In13  1  0.47151785  0.52431501  -0.02156137  1
  In  In14  1  0.69034293  0.66700810  0.00351488  1
  In  In15  1  0.65978160  0.33789781  0.32393281  1
  In  In16  1  0.51282751  0.83467427  -0.00367052  1
  In  In17  1  -0.00351609  0.17806563  0.18887114  1
  In  In18  1  0.16872299  0.65337450  0.17538413  1
  In  In19  1  0.34630567  0.46269526  0.16117722  1
  In  In20  1  0.16516176  0.66561149  0.82984643  1
  In  In21  1  0.65552768  0.18690729  0.16651520  1
  In  In22  1  0.82650202  0.31679359  0.48954718  1
  In  In23  1  0.32498063  0.64840933  0.69298239  1
  In  In24  1  0.14734016  0.85760254  0.64404585  1
  In  In25  1  0.18549385  0.49818494  0.31886726  1
  In  In26  1  0.81820501  0.48760351  0.00157042  1
  In  In27  1  0.65414572  0.80769011  0.17174925  1
  In  In28  1  -0.01233571  0.68179363  0.66081696  1
  In  In29  1  -0.00214525  0.31126138  0.35652210  1
  In  In30  1  0.49259848  0.15670150  0.64511528  1
  In  In31  1  0.31667262  -0.01152027  0.34837950  1
  In  In32  1  0.80862866  0.30065291  0.81237292  1
  In  In33  1  0.82457042  0.68464327  0.51618605  1
  In  In34  1  0.83517906  0.33681735  0.15571878  1
  In  In35  1  0.63688114  0.62809705  0.34354604  1
  In  In36  1  0.02666075  0.33541693  0.01097262  1
  In  In37  1  0.66192446  0.33896994  0.66091952  1
  In  In38  1  0.01680173  0.70871385  0.36040529  1
  In  In39  1  0.84726772  0.86577427  0.67615905  1
  In  In40  1  0.16835808  -0.01385890  0.82540901  1
  In  In41  1  0.49833024  0.33482097  0.86369674  1
  In  In42  1  -0.05311744  0.68473606  -0.02941840  1
  In  In43  1  0.34180329  0.83506377  0.18211022  1
  In  In44  1  0.65078555  0.65784255  0.66879031  1
  In  In45  1  0.85035520  0.85410111  0.34311908  1
  In  In46  1  0.69617082  0.03118133  0.36267191  1
  In  In47  1  0.48072610  0.81270217  0.66241675  1
  In  In48  1  0.02147397  0.03218837  0.35578827  1
  In  In49  1  0.00529058  0.50431209  0.14009897  1
  In  In50  1  -0.01399514  0.49460456  0.51254150  1
  In  In51  1  0.67168155  -0.01442712  -0.00524010  1
  In  In52  1  0.65649199  0.01399923  0.62896157  1
  In  In53  1  0.83568541  0.51137070  0.30775897  1
  In  In54  1  0.19033019  0.00721966  0.17815412  1
  In  In55  1  0.14947275  0.50617709  0.65703157  1
  In  In56  1  0.13290273  0.14544171  0.65428420  1
  In  In57  1  0.66689147  0.18577998  0.85201736  1
  In  In58  1  0.16654437  0.32810059  0.82853607  1
  In  In59  1  0.81709985  0.00006682  0.14882491  1
  In  In60  1  0.82510263  0.50291647  0.66647568  1
  In  In61  1  0.50278526  0.17435345  0.01937308  1
  In  In62  1  0.49892249  -0.00506336  0.80184558  1
  In  In63  1  0.32648520  0.83008305  0.51343933  1
  In  In64  1  0.68134441  0.81351543  0.82397079  1
  In  In65  1  0.00772070  0.84139973  0.17587209  1
  In  In66  1  0.35349539  0.00821909  -0.00084265  1
  In  In67  1  0.49886977  0.18472184  0.33825756  1
  In  In68  1  0.17257851  0.15879279  0.01325093  1
  In  In69  1  0.85616299  0.13405300  0.65351427  1
  In  In70  1  0.32950843  0.18699220  0.50140835  1
  In  In71  1  0.01814012  0.48654186  0.82665681  1
  Te  Te72  1  0.07766362  0.06931859  0.09543383  1
  Te  Te73  1  0.10124687  0.10763922  0.45639094  1
  Te  Te74  1  0.06448813  0.07118504  0.76354445  1
  Te  Te75  1  0.11451089  0.40527495  0.11220927  1
  Te  Te76  1  0.08856307  0.42404114  0.42541384  1
  Te  Te77  1  0.07417509  0.39110559  0.72282218  1
  Te  Te78  1  0.07650307  0.73662855  0.08595475  1
  Te  Te79  1  0.11699505  0.78559455  0.42825150  1
  Te  Te80  1  0.07884508  0.76080572  0.75071436  1
  Te  Te81  1  0.42773526  0.07563810  0.10936317  1
  Te  Te82  1  0.41055101  0.08870395  0.42013079  1
  Te  Te83  1  0.39668718  0.08878216  0.74212097  1
  Te  Te84  1  0.44224546  0.40635471  0.06542590  1
  Te  Te85  1  0.44939579  0.40740908  0.39855662  1
  Te  Te86  1  0.41579875  0.41709595  0.76076745  1
  Te  Te87  1  0.41468795  0.75174579  0.07901781  1
  Te  Te88  1  0.42305150  0.75893865  0.42909999  1
  Te  Te89  1  0.42882855  0.72379127  0.76962440  1
  Te  Te90  1  0.73796813  0.10080089  0.06791563  1
  Te  Te91  1  0.79577204  0.09801411  0.44611220  1
  Te  Te92  1  0.72295990  0.08397647  0.74702647  1
  Te  Te93  1  0.73907603  0.44093489  0.11858908  1
  Te  Te94  1  0.75848425  0.42293270  0.40541238  1
  Te  Te95  1  0.73706756  0.42435283  0.76194159  1
  Te  Te96  1  0.76424746  0.75923771  0.09077278  1
  Te  Te97  1  0.74718599  0.74893294  0.40289102  1
  Te  Te98  1  0.76672569  0.74193211  0.72188353  1
  Te  Te99  1  0.09560290  0.24964845  0.26667773  1
  Te  Te100  1  0.05983455  0.22850565  0.55108462  1
  Te  Te101  1  0.08284590  0.23386211  0.91439442  1
  Te  Te102  1  0.06644791  0.58374611  0.26502860  1
  Te  Te103  1  0.07774721  0.60370975  0.56704149  1
  Te  Te104  1  0.07340925  0.58920864  0.92963825  1
  Te  Te105  1  0.09276004  0.92824616  0.26439083  1
  Te  Te106  1  0.07720877  0.97219777  0.57418115  1
  Te  Te107  1  0.08306432  0.90346812  0.92213051  1
  Te  Te108  1  0.44930767  0.27153554  0.22921491  1
  Te  Te109  1  0.43155466  0.27547388  0.57207517  1
  Te  Te110  1  0.41835247  0.22107652  0.90965517  1
  Te  Te111  1  0.40087587  0.58136991  0.24515650  1
  Te  Te112  1  0.40951548  0.58987056  0.57944346  1
  Te  Te113  1  0.38681309  0.60973128  0.89222816  1
  Te  Te114  1  0.41872075  0.92855886  0.26147003  1
  Te  Te115  1  0.42844198  0.92818859  0.57935198  1
  Te  Te116  1  0.41956936  0.91135228  0.90232623  1
  Te  Te117  1  0.76455053  0.24595717  0.25419009  1
  Te  Te118  1  0.75516409  0.23736967  0.59721169  1
  Te  Te119  1  0.73610755  0.28108064  0.93790706  1
  Te  Te120  1  0.72958687  0.58505245  0.23848015  1
  Te  Te121  1  0.73409865  0.57468024  0.56941997  1
  Te  Te122  1  0.77022099  0.58922586  0.90717148  1
  Te  Te123  1  0.74330067  0.91385638  0.25177773  1
  Te  Te124  1  0.76574337  0.93152483  0.56627280  1
  Te  Te125  1  0.76862145  0.88701882  0.92793708  1
  Te  Te126  1  0.26006291  0.25696580  0.07587652  1
  Te  Te127  1  0.27022481  0.28339580  0.40497948  1
  Te  Te128  1  0.23654127  0.22872277  0.73690803  1
  Te  Te129  1  0.26327727  0.57403565  0.09011565  1
  Te  Te130  1  0.24342710  0.59218021  0.42160322  1
  Te  Te131  1  0.23887457  0.54654046  0.77114657  1
  Te  Te132  1  0.24886944  0.91114088  0.07200548  1
  Te  Te133  1  0.22303890  0.90083008  0.42942879  1
  Te  Te134  1  0.25512001  0.88399785  0.75453379  1
  Te  Te135  1  0.57797853  0.28364171  0.08488777  1
  Te  Te136  1  0.60537419  0.24135997  0.42492685  1
  Te  Te137  1  0.57165308  0.24615921  0.74680205  1
  Te  Te138  1  0.58415452  0.58068176  0.07259823  1
  Te  Te139  1  0.54499516  0.53166588  0.41026365  1
  Te  Te140  1  0.57502519  0.56958049  0.75824442  1
  Te  Te141  1  0.58123150  0.92220109  0.09904382  1
  Te  Te142  1  0.59576345  0.94008286  0.42065729  1
  Te  Te143  1  0.59833837  0.90174233  0.72860333  1
  Te  Te144  1  0.92214703  0.24317859  0.07436808  1
  Te  Te145  1  0.89255587  0.21213472  0.40322027  1
  Te  Te146  1  0.91784527  0.22775299  0.74923272  1
  Te  Te147  1  0.90057454  0.59371876  0.08365105  1
  Te  Te148  1  0.90400070  0.58701510  0.42360864  1
  Te  Te149  1  0.92279329  0.58027910  0.75334234  1
  Te  Te150  1  0.91968137  0.91454329  0.07635993  1
  Te  Te151  1  0.93218992  0.93874341  0.43437353  1
  Te  Te152  1  0.94307358  0.94163650  0.75948005  1
  Te  Te153  1  0.25188133  0.10508726  0.27264181  1
  Te  Te154  1  0.24278329  0.07982552  0.56908241  1
  Te  Te155  1  0.25401174  0.07944787  0.91171602  1
  Te  Te156  1  0.27309605  0.39087871  0.27004315  1
  Te  Te157  1  0.25951047  0.42874281  0.58207375  1
  Te  Te158  1  0.25485514  0.39363135  0.92490376  1
  Te  Te159  1  0.23466410  0.76006973  0.25887451  1
  Te  Te160  1  0.24261177  0.74083150  0.60426550  1
  Te  Te161  1  0.27424592  0.71715066  0.92091781  1
  Te  Te162  1  0.59432090  0.08852256  0.26166003  1
  Te  Te163  1  0.58784358  0.11168893  0.54078242  1
  Te  Te164  1  0.57443879  0.06998199  0.91169822  1
  Te  Te165  1  0.55175437  0.43146189  0.28272006  1
  Te  Te166  1  0.59672265  0.42740755  0.56353507  1
  Te  Te167  1  0.57691821  0.45363848  0.89965545  1
  Te  Te168  1  0.56288564  0.74547717  0.27607513  1
  Te  Te169  1  0.57180480  0.73678924  0.56646761  1
  Te  Te170  1  0.58498632  0.73549703  0.90927486  1
  Te  Te171  1  0.91437151  0.06500431  0.24609310  1
  Te  Te172  1  0.93940935  0.04169800  0.56932045  1
  Te  Te173  1  0.88371338  0.09864558  0.92087092  1
  Te  Te174  1  0.93907340  0.41013327  0.25039304  1
  Te  Te175  1  0.90608363  0.39642294  0.59425428  1
  Te  Te176  1  0.92903754  0.41020064  0.92189518  1
  Te  Te177  1  0.91709424  0.74685624  0.25498427  1
  Te  Te178  1  0.92646143  0.78302783  0.56744571  1
  Te  Te179  1  0.88191847  0.78449562  0.89014358  1
