# generated using pymatgen
data_In2Te3
_symmetry_space_group_name_H-M   'P 1'
_cell_length_a   18.94267872
_cell_length_b   18.94387180
_cell_length_c   18.95358914
_cell_angle_alpha   89.92321462
_cell_angle_beta   89.97207009
_cell_angle_gamma   90.14133562
_symmetry_Int_Tables_number   1
_chemical_formula_structural   In2Te3
_chemical_formula_sum   'In72 Te108'
_cell_volume   6801.42381715
_cell_formula_units_Z   36
loop_
 _symmetry_equiv_pos_site_id
 _symmetry_equiv_pos_as_xyz
  1  'x, y, z'
loop_
 _atom_site_type_symbol
 _atom_site_label
 _atom_site_symmetry_multiplicity
 _atom_site_fract_x
 _atom_site_fract_y
 _atom_site_fract_z
 _atom_site_occupancy
  In  In0  1  0.48116412  0.88420609  -0.03116669  1
  In  In1  1  0.17972857  0.48338620  0.30963019  1
  In  In2  1  0.31710997  0.18018908  0.83013926  1
  In  In3  1  0.31299278  0.00850890  0.71022461  1
  In  In4  1  0.80848920  0.67411063  0.84295658  1
  In  In5  1  0.14192855  0.31854123  0.82696987  1
  In  In6  1  0.16568294  0.84113164  0.32101620  1
  In  In7  1  0.14598922  0.45890452  0.70392483  1
  In  In8  1  0.69428359  0.43677941  0.88421260  1
  In  In9  1  0.32798723  0.84598110  0.13353638  1
  In  In10  1  0.68002396  0.84345540  0.51731177  1
  In  In11  1  0.01387387  0.65367181  0.34020129  1
  In  In12  1  0.47730510  0.08995170  0.12643084  1
  In  In13  1  0.66256887  0.19146462  0.16910316  1
  In  In14  1  0.12301844  0.65344268  0.51860704  1
  In  In15  1  0.80356425  -0.00241612  0.83449977  1
  In  In16  1  0.83026207  0.14867721  0.67157400  1
  In  In17  1  0.82112194  0.01512932  0.51074472  1
  In  In18  1  0.83959301  0.32061669  0.48213334  1
  In  In19  1  0.85540947  0.50869923  0.33006862  1
  In  In20  1  0.05070653  0.79387476  0.13381641  1
  In  In21  1  0.82124236  0.83174828  0.32016744  1
  In  In22  1  0.81751881  0.53119395  0.65734776  1
  In  In23  1  0.18727812  0.50628542  0.00839085  1
  In  In24  1  0.48577089  0.31561988  0.14725409  1
  In  In25  1  0.51505563  0.83198377  0.35507900  1
  In  In26  1  -0.01285295  0.33343422  0.32404168  1
  In  In27  1  -0.00639431  -0.01404159  0.35284832  1
  In  In28  1  0.51805225  0.50171029  0.70263800  1
  In  In29  1  0.66746105  0.33327390  0.69096124  1
  In  In30  1  0.67023125  0.69201605  0.66975306  1
  In  In31  1  0.33259432  0.52678565  0.84724759  1
  In  In32  1  0.48961263  0.35658204  0.50552064  1
  In  In33  1  0.69077730  0.47843564  0.15324217  1
  In  In34  1  0.00397046  -0.01351305  0.00691153  1
  In  In35  1  0.82668480  0.01176010  0.14483623  1
  In  In36  1  0.83899907  0.82469668  -0.01055435  1
  In  In37  1  0.14690741  0.14203612  0.66949277  1
  In  In38  1  0.66748212  0.66285278  -0.00468416  1
  In  In39  1  0.34218954  0.17696575  0.49384989  1
  In  In40  1  0.34237811  0.68018533  0.32093708  1
  In  In41  1  0.49135976  0.84006183  0.70577855  1
  In  In42  1  0.34659743  0.83228167  0.47957557  1
  In  In43  1  0.16479335  0.32272606  0.49852613  1
  In  In44  1  0.50587283  0.18476502  0.32615136  1
  In  In45  1  0.34166880  0.31615302  -0.01038889  1
  In  In46  1  0.51199745  -0.01368078  0.53113932  1
  In  In47  1  0.85436082  0.64800979  0.16269544  1
  In  In48  1  0.63783493  0.85377499  0.14527300  1
  In  In49  1  0.00004039  0.14897070  0.82880517  1
  In  In50  1  0.49552347  0.33594328  0.84771005  1
  In  In51  1  0.65317568  0.14881749  0.50148311  1
  In  In52  1  0.33954334  0.67965472  0.65894795  1
  In  In53  1  0.01158864  0.47580424  0.15187284  1
  In  In54  1  0.50253322  0.66344041  0.83922987  1
  In  In55  1  0.14600759  -0.01442822  0.50575563  1
  In  In56  1  0.34075129  0.52752579  0.48659968  1
  In  In57  1  0.67433178  0.85795198  0.81747708  1
  In  In58  1  0.00030379  0.32523498  0.67217873  1
  In  In59  1  0.33977434  0.33714789  0.62623290  1
  In  In60  1  0.18183000  0.32761134  0.13844207  1
  In  In61  1  0.17190116  0.84595752  0.66932563  1
  In  In62  1  0.19313471  0.00483810  0.15349118  1
  In  In63  1  0.53290590  0.51510334  0.35268015  1
  In  In64  1  0.49540408  0.67422219  0.16680178  1
  In  In65  1  -0.01090257  0.52172667  0.50019417  1
  In  In66  1  -0.00530477  0.84386220  0.84289114  1
  In  In67  1  0.35862654  0.01836199  0.29984452  1
  In  In68  1  0.17158663  0.66709892  0.85308178  1
  In  In69  1  0.69178916  0.33971781  0.31683538  1
  In  In70  1  0.01185668  0.15987490  0.17860065  1
  In  In71  1  0.82302837  0.20057915  -0.02319371  1
  Te  Te72  1  0.09354738  0.08923135  0.07216728  1
  Te  Te73  1  0.09034768  0.08064490  0.41025228  1
  Te  Te74  1  0.09520444  0.05251158  0.77214155  1
  Te  Te75  1  0.08414074  0.39573676  0.04636306  1
  Te  Te76  1  0.07541613  0.42823201  0.41512143  1
  Te  Te77  1  0.02755006  0.41322852  0.79440553  1
  Te  Te78  1  0.13184276  0.70831719  0.04175597  1
  Te  Te79  1  0.07362145  0.77414300  0.42335679  1
  Te  Te80  1  0.09004941  0.75276909  0.75974265  1
  Te  Te81  1  0.33982045  0.07449301  0.07111791  1
  Te  Te82  1  0.43689332  0.07463314  0.42460193  1
  Te  Te83  1  0.41006349  0.11385120  0.73564449  1
  Te  Te84  1  0.39850817  0.41643978  0.08279099  1
  Te  Te85  1  0.40891612  0.42554705  0.39921241  1
  Te  Te86  1  0.40050390  0.41164053  0.74532410  1
  Te  Te87  1  0.43696571  0.76675439  0.06286417  1
  Te  Te88  1  0.43920297  0.72320652  0.43037780  1
  Te  Te89  1  0.39318342  0.75106618  0.78198337  1
  Te  Te90  1  0.73895958  0.10564859  0.06880178  1
  Te  Te91  1  0.75242196  0.09740028  0.40932815  1
  Te  Te92  1  0.72851979  0.11943060  0.78494450  1
  Te  Te93  1  0.74087690  0.36912079  0.06490981  1
  Te  Te94  1  0.75755480  0.43059933  0.41827563  1
  Te  Te95  1  0.77379679  0.42046947  0.75377672  1
  Te  Te96  1  0.74847504  0.74897036  0.09406397  1
  Te  Te97  1  0.73153635  0.75634693  0.41002902  1
  Te  Te98  1  0.77539072  0.77887813  0.73536227  1
  Te  Te99  1  0.09877633  0.26272649  0.25022584  1
  Te  Te100  1  0.06905297  0.23288104  0.57363778  1
  Te  Te101  1  0.09152536  0.21932787  0.92048624  1
  Te  Te102  1  0.09081144  0.57945129  0.23219730  1
  Te  Te103  1  0.06267707  0.56142542  0.62829749  1
  Te  Te104  1  0.09110563  0.55723285  0.90868486  1
  Te  Te105  1  0.07713238  0.92418088  0.23271226  1
  Te  Te106  1  0.06198596  0.92073959  0.60627442  1
  Te  Te107  1  0.09911486  0.89811828  0.93491949  1
  Te  Te108  1  0.40068852  0.23624573  0.23916715  1
  Te  Te109  1  0.44714169  0.23590884  0.58794454  1
  Te  Te110  1  0.43536927  0.21646520  0.92130736  1
  Te  Te111  1  0.42464488  0.57345016  0.25440624  1
  Te  Te112  1  0.43291961  0.57784320  0.59669721  1
  Te  Te113  1  0.44034432  0.57061471  0.93803583  1
  Te  Te114  1  0.41832513  0.89021816  0.25219545  1
  Te  Te115  1  0.39657202  0.91097871  0.59981602  1
  Te  Te116  1  0.38987721  0.96691572  0.88975112  1
  Te  Te117  1  0.77199360  0.23395095  0.25769180  1
  Te  Te118  1  0.74689562  0.24955816  0.58268900  1
  Te  Te119  1  0.70710327  0.29110744  0.92896000  1
  Te  Te120  1  0.74848760  0.58173677  0.24951169  1
  Te  Te121  1  0.72024102  0.59713175  0.56403956  1
  Te  Te122  1  0.76533475  0.56232878  0.93954769  1
  Te  Te123  1  0.73641503  0.92704881  0.23497074  1
  Te  Te124  1  0.72805239  0.94990025  0.60902149  1
  Te  Te125  1  0.73028836  0.92010789  0.94939091  1
  Te  Te126  1  0.26336428  0.22058612  0.07346549  1
  Te  Te127  1  0.26588264  0.26825723  0.40850800  1
  Te  Te128  1  0.23771224  0.25954150  0.71563620  1
  Te  Te129  1  0.26068760  0.62021623  0.07033221  1
  Te  Te130  1  0.23560959  0.59880677  0.40103598  1
  Te  Te131  1  0.24869709  0.58026262  0.73121917  1
  Te  Te132  1  0.22265338  0.90388752  0.04633142  1
  Te  Te133  1  0.26002679  0.92876010  0.40198033  1
  Te  Te134  1  0.25782373  0.89277435  0.78109487  1
  Te  Te135  1  0.55327320  0.20983216  0.06312530  1
  Te  Te136  1  0.58930111  0.27140188  0.41974218  1
  Te  Te137  1  0.57781741  0.24550937  0.76560504  1
  Te  Te138  1  0.59047182  0.57836661  0.09469985  1
  Te  Te139  1  0.61483396  0.58590188  0.44730756  1
  Te  Te140  1  0.61844795  0.59220422  0.77194584  1
  Te  Te141  1  0.55241026  0.96042801  0.07825396  1
  Te  Te142  1  0.60193230  0.93595761  0.41962634  1
  Te  Te143  1  0.56343280  0.95225217  0.77409109  1
  Te  Te144  1  0.92534024  0.23927189  0.08607920  1
  Te  Te145  1  0.92653344  0.23066182  0.40842722  1
  Te  Te146  1  0.90539814  0.24598126  0.76129932  1
  Te  Te147  1  0.91991160  0.55804695  0.06965454  1
  Te  Te148  1  0.89543097  0.61744337  0.42956458  1
  Te  Te149  1  0.90074832  0.60505268  0.75151800  1
  Te  Te150  1  0.91931909  0.89531176  0.09735994  1
  Te  Te151  1  0.89516462  0.90265363  0.43210053  1
  Te  Te152  1  0.90979906  0.92930969  0.75894395  1
  Te  Te153  1  0.23811576  0.09087281  0.26466441  1
  Te  Te154  1  0.25597437  0.07988391  0.57572404  1
  Te  Te155  1  0.27906154  0.07074908  0.92650733  1
  Te  Te156  1  0.26829698  0.42789836  0.20686229  1
  Te  Te157  1  0.23882173  0.43980512  0.56555127  1
  Te  Te158  1  0.25252846  0.40671751  0.89812038  1
  Te  Te159  1  0.24682069  0.75260300  0.22954556  1
  Te  Te160  1  0.24559671  0.74898128  0.56030612  1
  Te  Te161  1  0.26522159  0.72247559  0.95309782  1
  Te  Te162  1  0.57839997  0.08378471  0.24284749  1
  Te  Te163  1  0.60661864  0.06478222  0.61511027  1
  Te  Te164  1  0.63336416  0.04643203  0.87753595  1
  Te  Te165  1  0.57877269  0.40665976  0.24057503  1
  Te  Te166  1  0.59186290  0.42468919  0.59440712  1
  Te  Te167  1  0.55265873  0.44474487  0.93021041  1
  Te  Te168  1  0.59374999  0.75262976  0.25124427  1
  Te  Te169  1  0.56510205  0.76976551  0.59505810  1
  Te  Te170  1  0.58922729  0.76768357  0.91503870  1
  Te  Te171  1  0.91297770  0.07190169  0.25359553  1
  Te  Te172  1  0.92826495  0.07748286  0.59140055  1
  Te  Te173  1  0.90382337  0.07076229  0.93158684  1
  Te  Te174  1  0.89766084  0.40632150  0.22696264  1
  Te  Te175  1  0.91282561  0.41337252  0.58225416  1
  Te  Te176  1  0.87076793  0.34655802  0.97937458  1
  Te  Te177  1  0.93510829  0.74626145  0.24695751  1
  Te  Te178  1  1.00725690  0.73385501  0.56060545  1
  Te  Te179  1  0.93123340  0.72931501  0.92269250  1
