# generated using pymatgen
data_In2Te3
_symmetry_space_group_name_H-M   'P 1'
_cell_length_a   18.79854979
_cell_length_b   18.79485227
_cell_length_c   18.77865762
_cell_angle_alpha   90.05589091
_cell_angle_beta   90.03317055
_cell_angle_gamma   90.12555877
_symmetry_Int_Tables_number   1
_chemical_formula_structural   In2Te3
_chemical_formula_sum   'In72 Te108'
_cell_volume   6634.77935452
_cell_formula_units_Z   36
loop_
 _symmetry_equiv_pos_site_id
 _symmetry_equiv_pos_as_xyz
  1  'x, y, z'
loop_
 _atom_site_type_symbol
 _atom_site_label
 _atom_site_symmetry_multiplicity
 _atom_site_fract_x
 _atom_site_fract_y
 _atom_site_fract_z
 _atom_site_occupancy
  In  In0  1  0.13128503  0.16322682  0.33091854  1
  In  In1  1  0.32934189  0.82927077  0.23719180  1
  In  In2  1  0.67574176  0.31822219  0.35410962  1
  In  In3  1  -0.00964895  0.17713629  0.16656632  1
  In  In4  1  0.50331444  0.64817395  0.15925974  1
  In  In5  1  0.17455184  -0.01199352  0.17795125  1
  In  In6  1  0.15066140  0.67290245  0.82695704  1
  In  In7  1  0.14790244  0.33598358  0.50329207  1
  In  In8  1  0.33444192  0.67332034  0.33917022  1
  In  In9  1  0.81628682  0.49002874  0.35527441  1
  In  In10  1  -0.02648775  0.34149289  0.63677863  1
  In  In11  1  0.00391369  0.51439339  0.83608367  1
  In  In12  1  0.33597477  0.30561217  0.65268577  1
  In  In13  1  0.51163499  0.50384689  0.33879506  1
  In  In14  1  0.34043058  0.35377404  -0.02318632  1
  In  In15  1  0.52296944  0.82620515  0.00171000  1
  In  In16  1  0.50947562  0.31912211  0.79187258  1
  In  In17  1  0.53823443  0.64252212  0.82826555  1
  In  In18  1  0.14829008  0.86073203  -0.00082070  1
  In  In19  1  0.67625964  0.84015471  0.16182220  1
  In  In20  1  0.83429046  0.67218152  0.82711997  1
  In  In21  1  -0.00212338  0.14518466  0.81653265  1
  In  In22  1  0.31571918  0.65985942  0.01964034  1
  In  In23  1  -0.00302363  0.81754908  0.19538232  1
  In  In24  1  -0.01880127  0.48842341  0.18812222  1
  In  In25  1  0.34119068  0.15462101  0.49268069  1
  In  In26  1  0.33231578  0.46907310  0.83613765  1
  In  In27  1  -0.01086457  0.18277850  0.49395696  1
  In  In28  1  0.50079066  0.49026830  -0.00497078  1
  In  In29  1  0.83556422  0.33863379  0.81443354  1
  In  In30  1  0.14906355  0.83191390  0.66108106  1
  In  In31  1  0.35023733  0.66431397  0.64200562  1
  In  In32  1  0.68260827  0.83786739  0.49242171  1
  In  In33  1  0.34481246  0.34953981  0.34789034  1
  In  In34  1  0.16981485  0.49690333  0.67051409  1
  In  In35  1  0.67040981  0.49389898  0.79495183  1
  In  In36  1  -0.03149860  -0.00613672  0.37664091  1
  In  In37  1  0.69721376  0.01414740  0.35453220  1
  In  In38  1  0.50299853  0.33026808  0.18726602  1
  In  In39  1  0.67837436  0.00841373  0.64899534  1
  In  In40  1  0.71989925  0.66354711  0.63518552  1
  In  In41  1  0.33736141  0.01453462  0.65754003  1
  In  In42  1  0.52419525  0.84456019  0.35447916  1
  In  In43  1  0.33815201  0.83407027  0.81316887  1
  In  In44  1  0.51685775  0.65638400  0.48966721  1
  In  In45  1  0.66159926  0.65948615  -0.00035190  1
  In  In46  1  0.19982287  0.65639678  0.15799242  1
  In  In47  1  0.70329871  0.36562162  0.01404721  1
  In  In48  1  0.67650012  0.17234813  0.17109996  1
  In  In49  1  0.33624751  0.17782228  0.19373704  1
  In  In50  1  0.15946818  0.67453408  0.49881320  1
  In  In51  1  0.14977274  0.49216460  0.34502181  1
  In  In52  1  0.49347284  0.00152968  0.81290197  1
  In  In53  1  -0.00931138  0.68282873  0.35860077  1
  In  In54  1  0.32688990  0.01778781  0.00898196  1
  In  In55  1  0.67238026  0.17321189  0.50955893  1
  In  In56  1  0.66114103  0.18514403  0.80861639  1
  In  In57  1  0.83150139  0.83649312  -0.00582006  1
  In  In58  1  0.67695427  0.65059223  0.35328446  1
  In  In59  1  -0.00457730  -0.00188400  -0.02109209  1
  In  In60  1  0.15613765  0.17637622  -0.01676126  1
  In  In61  1  0.50833204  0.15760625  -0.00125986  1
  In  In62  1  -0.01920045  0.65460808  0.01404839  1
  In  In63  1  -0.01402453  0.00206851  0.64164064  1
  In  In64  1  0.15466367  0.31216760  0.17447801  1
  In  In65  1  0.31619224  0.15291119  0.81324429  1
  In  In66  1  0.53091874  -0.02560997  0.19192720  1
  In  In67  1  0.82389680  0.00528541  0.18146047  1
  In  In68  1  0.84629884  -0.00269297  0.82635906  1
  In  In69  1  0.48698560  0.86268006  0.64494678  1
  In  In70  1  -0.04445476  0.66587862  0.63081985  1
  In  In71  1  -0.02787680  0.32292971  0.00839409  1
  Te  Te72  1  0.09170071  0.08505630  0.08947562  1
  Te  Te73  1  0.08505351  0.07056087  0.44077574  1
  Te  Te74  1  0.08797801  0.07496415  0.72466027  1
  Te  Te75  1  0.07059336  0.40793447  0.09054328  1
  Te  Te76  1  0.04757714  0.42287544  0.43203372  1
  Te  Te77  1  0.06641136  0.41150373  0.74193647  1
  Te  Te78  1  0.08968156  0.74877241  0.08626550  1
  Te  Te79  1  0.06610616  0.78008964  0.44571055  1
  Te  Te80  1  0.05295096  0.73784832  0.73318815  1
  Te  Te81  1  0.42976240  0.08206833  0.10740310  1
  Te  Te82  1  0.41685484  0.05845840  0.41123960  1
  Te  Te83  1  0.43523905  0.11117221  0.72681637  1
  Te  Te84  1  0.41380776  0.41651314  0.09718762  1
  Te  Te85  1  0.43422123  0.42532653  0.43972263  1
  Te  Te86  1  0.42698963  0.43060392  0.72743683  1
  Te  Te87  1  0.42032086  0.75545053  0.08959751  1
  Te  Te88  1  0.42126910  0.75995289  0.43091825  1
  Te  Te89  1  0.44077571  0.74285382  0.74784769  1
  Te  Te90  1  0.74992600  0.08196736  0.08012239  1
  Te  Te91  1  0.78488395  0.10578351  0.43553297  1
  Te  Te92  1  0.76368425  0.09556416  0.74017442  1
  Te  Te93  1  0.78106149  0.44541118  0.10757907  1
  Te  Te94  1  0.75740907  0.39140403  0.45956645  1
  Te  Te95  1  0.74661153  0.39650877  0.70321077  1
  Te  Te96  1  0.76079013  0.73713989  0.08704222  1
  Te  Te97  1  0.77444867  0.73393760  0.43286800  1
  Te  Te98  1  0.75996008  0.76155410  0.73703878  1
  Te  Te99  1  0.04516170  0.27833424  0.27828110  1
  Te  Te100  1  0.08407859  0.23925500  0.60086167  1
  Te  Te101  1  0.06307481  0.25923934  0.90066024  1
  Te  Te102  1  0.07638096  0.59042522  0.25255477  1
  Te  Te103  1  0.07519436  0.57870190  0.58329516  1
  Te  Te104  1  0.09476579  0.58401498  0.93785390  1
  Te  Te105  1  0.06564469  0.93201644  0.26852724  1
  Te  Te106  1  0.07282698  0.90714436  0.55788778  1
  Te  Te107  1  0.07370524  0.91561015  0.88558996  1
  Te  Te108  1  0.43666551  0.23929233  0.28972932  1
  Te  Te109  1  0.43351092  0.25972148  0.55032623  1
  Te  Te110  1  0.41554622  0.23840235  0.90752894  1
  Te  Te111  1  0.40656783  0.57265534  0.24881303  1
  Te  Te112  1  0.41492961  0.56609747  0.55366950  1
  Te  Te113  1  0.41855781  0.59405546  0.91814977  1
  Te  Te114  1  0.41930122  0.95042972  0.29539701  1
  Te  Te115  1  0.39885415  0.93195157  0.54898770  1
  Te  Te116  1  0.41958399  0.91916638  0.92232901  1
  Te  Te117  1  0.76754804  0.24901726  0.25842534  1
  Te  Te118  1  0.73603624  0.26512872  0.61071612  1
  Te  Te119  1  0.74754108  0.26035771  0.91405161  1
  Te  Te120  1  0.75148802  0.57577612  0.24980502  1
  Te  Te121  1  0.79747844  0.56263800  0.55801691  1
  Te  Te122  1  0.74600949  0.57463896  0.90544502  1
  Te  Te123  1  0.76170003  0.90017270  0.27419991  1
  Te  Te124  1  0.77901473  0.92239482  0.57428733  1
  Te  Te125  1  0.74893970  0.92575300  0.91311046  1
  Te  Te126  1  0.26060806  0.24432415  0.07748483  1
  Te  Te127  1  0.23499975  0.25522475  0.40570968  1
  Te  Te128  1  0.24293056  0.26935352  0.76078523  1
  Te  Te129  1  0.25041212  0.54177114  0.08043977  1
  Te  Te130  1  0.25054247  0.57545068  0.42480986  1
  Te  Te131  1  0.26006509  0.59437904  0.75315465  1
  Te  Te132  1  0.26877364  0.89992138  0.09691731  1
  Te  Te133  1  0.25642762  0.87251257  0.35829167  1
  Te  Te134  1  0.24281470  0.92462653  0.74184838  1
  Te  Te135  1  0.58513026  0.26958218  0.07085792  1
  Te  Te136  1  0.56980604  0.26002529  0.44189548  1
  Te  Te137  1  0.59815304  0.25255190  0.68702577  1
  Te  Te138  1  0.60098946  0.55321869  0.09195319  1
  Te  Te139  1  0.61453978  0.54816522  0.44740923  1
  Te  Te140  1  0.59184319  0.58393269  0.69386210  1
  Te  Te141  1  0.60809355  0.93650036  0.06417222  1
  Te  Te142  1  0.58935705  0.95093677  0.44561797  1
  Te  Te143  1  0.59488226  0.91454022  0.74070365  1
  Te  Te144  1  0.88093219  0.25210359  0.10147447  1
  Te  Te145  1  0.94538040  0.29642921  0.40864218  1
  Te  Te146  1  0.90947530  0.23704216  0.72897863  1
  Te  Te147  1  0.89098633  0.55689192  0.08415789  1
  Te  Te148  1  0.91193634  0.57922743  0.43472533  1
  Te  Te149  1  0.90122761  0.56726502  0.73729022  1
  Te  Te150  1  0.92738512  0.91794575  0.09204067  1
  Te  Te151  1  0.88397867  0.89488444  0.44941633  1
  Te  Te152  1  0.91940102  0.90756585  0.73619092  1
  Te  Te153  1  0.24824519  0.08197226  0.27348824  1
  Te  Te154  1  0.23956145  0.09873229  0.58469745  1
  Te  Te155  1  0.22769031  0.06577900  0.90450421  1
  Te  Te156  1  0.24210107  0.41207954  0.25189542  1
  Te  Te157  1  0.25622806  0.41482999  0.57635730  1
  Te  Te158  1  0.22041233  0.41103569  0.91154758  1
  Te  Te159  1  0.20174956  0.74843405  0.28645621  1
  Te  Te160  1  0.25894959  0.76482758  0.57545470  1
  Te  Te161  1  0.24824760  0.76028670  0.91446610  1
  Te  Te162  1  0.59378662  0.09094440  0.26965576  1
  Te  Te163  1  0.57431815  0.07470347  0.56731444  1
  Te  Te164  1  0.59341300  0.08067430  0.89990881  1
  Te  Te165  1  0.60614442  0.41648236  0.25638054  1
  Te  Te166  1  0.58922170  0.43330995  0.65819710  1
  Te  Te167  1  0.58350509  0.40862622  0.89610132  1
  Te  Te168  1  0.58324223  0.74612974  0.24851863  1
  Te  Te169  1  0.58814021  0.75723808  0.58327680  1
  Te  Te170  1  0.61069386  0.76129514  0.89627024  1
  Te  Te171  1  0.91513146  0.09031653  0.26952145  1
  Te  Te172  1  0.89150570  0.09405264  0.56469112  1
  Te  Te173  1  0.90332455  0.10513072  0.93032500  1
  Te  Te174  1  0.89369196  0.39503034  0.26629402  1
  Te  Te175  1  0.88031671  0.42851375  0.55879545  1
  Te  Te176  1  0.90628601  0.42777527  0.91649869  1
  Te  Te177  1  0.89569879  0.72953530  0.25412556  1
  Te  Te178  1  0.88878332  0.77442811  0.55136254  1
  Te  Te179  1  0.93253652  0.75591893  0.91221642  1
