# generated using pymatgen
data_In2Te3
_symmetry_space_group_name_H-M   'P 1'
_cell_length_a   18.78629837
_cell_length_b   18.78037983
_cell_length_c   18.80164976
_cell_angle_alpha   89.92982580
_cell_angle_beta   89.92599067
_cell_angle_gamma   89.99696472
_symmetry_Int_Tables_number   1
_chemical_formula_structural   In2Te3
_chemical_formula_sum   'In72 Te108'
_cell_volume   6633.47133781
_cell_formula_units_Z   36
loop_
 _symmetry_equiv_pos_site_id
 _symmetry_equiv_pos_as_xyz
  1  'x, y, z'
loop_
 _atom_site_type_symbol
 _atom_site_label
 _atom_site_symmetry_multiplicity
 _atom_site_fract_x
 _atom_site_fract_y
 _atom_site_fract_z
 _atom_site_occupancy
  In  In0  1  0.30893479  0.54123594  0.49861585  1
  In  In1  1  0.69925571  0.85747466  0.86088850  1
  In  In2  1  -0.00369027  0.51514409  0.83929613  1
  In  In3  1  0.50219698  0.65875922  0.18956733  1
  In  In4  1  0.83703019  0.51607933  0.01695901  1
  In  In5  1  0.86252420  0.30052144  0.15973655  1
  In  In6  1  0.66771264  0.00380724  0.66112208  1
  In  In7  1  0.30348450  0.15050440  0.15467680  1
  In  In8  1  0.29537274  0.82257766  0.82671571  1
  In  In9  1  0.82450172  0.16197873  0.33148505  1
  In  In10  1  0.81078117  0.50267719  0.35985250  1
  In  In11  1  0.69641998  0.65928381  -0.00429465  1
  In  In12  1  0.66987555  0.30698549  -0.02055647  1
  In  In13  1  0.69193152  0.50077303  0.48382406  1
  In  In14  1  0.15055704  0.69086895  0.15842390  1
  In  In15  1  0.84290464  0.84785648  0.67853771  1
  In  In16  1  0.32289132  0.88489463  0.17897981  1
  In  In17  1  0.67344728  0.84119415  0.20339573  1
  In  In18  1  0.48479071  0.31730925  0.16921974  1
  In  In19  1  0.82825956  0.31604617  0.84067693  1
  In  In20  1  0.49365886  0.15894213  -0.00145140  1
  In  In21  1  0.01299379  0.02809183  -0.01558445  1
  In  In22  1  0.17562735  0.13545814  0.65933418  1
  In  In23  1  0.48700892  0.16001126  0.65015782  1
  In  In24  1  0.18515661  0.11996252  0.34502800  1
  In  In25  1  0.86274835  0.67325366  0.18561246  1
  In  In26  1  0.03866361  0.52315942  0.51814276  1
  In  In27  1  0.01505378  -0.00842878  0.65607569  1
  In  In28  1  0.82969612  -0.00280114  0.16079248  1
  In  In29  1  0.64682762  0.47539825  0.15721037  1
  In  In30  1  0.17777781  0.48272195  -0.03202170  1
  In  In31  1  0.18149968  -0.00268940  0.81882527  1
  In  In32  1  0.33705271  0.32936413  0.66540174  1
  In  In33  1  0.33014702  0.14793367  0.82251597  1
  In  In34  1  0.46819895  0.51044042  0.66411845  1
  In  In35  1  0.50546100  0.01022587  0.22660807  1
  In  In36  1  0.30755488  0.69443996  -0.00625729  1
  In  In37  1  0.02205769  0.30055294  -0.01764410  1
  In  In38  1  0.48741787  0.83609956  0.00257458  1
  In  In39  1  -0.00700713  0.68685334  0.31437892  1
  In  In40  1  0.52030673  0.32058263  0.47665939  1
  In  In41  1  -0.01417508  0.51418474  0.16560622  1
  In  In42  1  0.01037294  -0.00472056  0.33519968  1
  In  In43  1  0.66687396  0.15307245  0.49534816  1
  In  In44  1  0.49960500  0.51992115  0.32826238  1
  In  In45  1  0.83764376  0.68995551  0.51275565  1
  In  In46  1  0.47341127  0.85845398  0.63975662  1
  In  In47  1  0.85893035  0.67379365  0.84467767  1
  In  In48  1  0.63759400  0.68094632  0.66648373  1
  In  In49  1  0.64504122  0.30840556  0.65295418  1
  In  In50  1  0.85071075  0.32264324  0.47633464  1
  In  In51  1  0.85838314  0.83386775  -0.00780597  1
  In  In52  1  0.66249098  0.66316904  0.33560703  1
  In  In53  1  0.47728236  0.47782772  0.00119380  1
  In  In54  1  0.49550716  0.34061589  0.80489457  1
  In  In55  1  0.16465958  0.54803989  0.69395086  1
  In  In56  1  0.35026028  0.34109751  0.32176867  1
  In  In57  1  0.50310030  0.00891557  0.81226949  1
  In  In58  1  0.64456706  0.87085730  0.46607386  1
  In  In59  1  0.16985658  0.32861471  0.16993524  1
  In  In60  1  0.49295903  0.66757366  0.82631698  1
  In  In61  1  0.83775310  0.48934359  0.69439023  1
  In  In62  1  0.18871108  0.52759350  0.38182602  1
  In  In63  1  0.86209391  0.14155904  0.67675511  1
  In  In64  1  0.68705430  -0.01694579  0.01518778  1
  In  In65  1  0.00779453  0.30774120  0.30912402  1
  In  In66  1  0.35653049  0.51008348  0.16149769  1
  In  In67  1  0.00971719  0.86775364  0.50466153  1
  In  In68  1  0.30378031  -0.01103013  0.00393975  1
  In  In69  1  0.16948241  0.32649519  0.50448221  1
  In  In70  1  0.17633336  0.86405231  0.34260170  1
  In  In71  1  0.01483227  0.34212551  0.66816913  1
  Te  Te72  1  0.07215094  0.12135360  0.08520559  1
  Te  Te73  1  0.09006200  0.06233866  0.44208054  1
  Te  Te74  1  0.07314600  0.08767671  0.76147699  1
  Te  Te75  1  0.06970631  0.41416444  0.08504415  1
  Te  Te76  1  0.07434052  0.41011642  0.41254674  1
  Te  Te77  1  0.09545573  0.42353695  0.76615657  1
  Te  Te78  1  0.03026546  0.74925291  0.09924436  1
  Te  Te79  1  0.07924386  0.76489746  0.41177907  1
  Te  Te80  1  0.13913653  0.68179437  0.76853368  1
  Te  Te81  1  0.41724923  0.06127315  0.08708022  1
  Te  Te82  1  0.36812459  0.05304921  0.44549946  1
  Te  Te83  1  0.39396503  0.05734077  0.71654333  1
  Te  Te84  1  0.38307989  0.38484752  0.07679168  1
  Te  Te85  1  0.41333212  0.43060645  0.42900178  1
  Te  Te86  1  0.38014818  0.44097176  0.77340706  1
  Te  Te87  1  0.40691386  0.75005764  0.10048850  1
  Te  Te88  1  0.40146185  0.68550835  0.41593823  1
  Te  Te89  1  0.40968504  0.76157302  0.74051515  1
  Te  Te90  1  0.73783005  0.09476765  0.09569217  1
  Te  Te91  1  0.75455665  0.06062151  0.41743886  1
  Te  Te92  1  0.74760790  0.08680414  0.75251250  1
  Te  Te93  1  0.75596684  0.40057272  0.07923364  1
  Te  Te94  1  0.72668202  0.37616415  0.40433853  1
  Te  Te95  1  0.73304326  0.39482784  0.75003182  1
  Te  Te96  1  0.75505169  0.76252231  0.09170059  1
  Te  Te97  1  0.74725619  0.76202979  0.41362239  1
  Te  Te98  1  0.74685842  0.74423360  0.75671393  1
  Te  Te99  1  0.09683823  0.21021940  0.23561988  1
  Te  Te100  1  0.07846328  0.23321617  0.58287357  1
  Te  Te101  1  0.12240965  0.21861105  0.91367370  1
  Te  Te102  1  0.09023227  0.57724866  0.26038918  1
  Te  Te103  1  0.11215180  0.63829029  0.57885679  1
  Te  Te104  1  0.09497061  0.59466327  0.91842054  1
  Te  Te105  1  0.09712211  0.92725427  0.23305459  1
  Te  Te106  1  0.11978149  0.89681176  0.60240458  1
  Te  Te107  1  0.09391346  0.92119131  0.91403462  1
  Te  Te108  1  0.40526154  0.21640632  0.25162234  1
  Te  Te109  1  0.40776372  0.24998512  0.55605637  1
  Te  Te110  1  0.41660199  0.24677123  0.90087030  1
  Te  Te111  1  0.37971717  0.60852323  0.28013705  1
  Te  Te112  1  0.41071076  0.62343336  0.58152588  1
  Te  Te113  1  0.40783684  0.59517695  0.93036442  1
  Te  Te114  1  0.41882948  0.90730556  0.29310050  1
  Te  Te115  1  0.39572944  0.91001278  0.52524755  1
  Te  Te116  1  0.40699118  0.92063890  0.90342059  1
  Te  Te117  1  0.75081320  0.25851397  0.24623972  1
  Te  Te118  1  0.76458202  0.24431793  0.58294749  1
  Te  Te119  1  0.76951888  0.20792181  0.92740927  1
  Te  Te120  1  0.74080100  0.57842774  0.23245426  1
  Te  Te121  1  0.75047143  0.58897368  0.59701162  1
  Te  Te122  1  0.75803667  0.56462794  0.89448026  1
  Te  Te123  1  0.73578006  0.95653382  0.27353442  1
  Te  Te124  1  0.75136265  0.91007463  0.57479150  1
  Te  Te125  1  0.80412937  0.96052362  0.90729776  1
  Te  Te126  1  0.24992723  0.25772449  0.06635922  1
  Te  Te127  1  0.24634736  0.25329877  0.39636950  1
  Te  Te128  1  0.23877091  0.24646311  0.74599129  1
  Te  Te129  1  0.24296741  0.58101915  0.08516915  1
  Te  Te130  1  0.24824174  0.67040172  0.42551266  1
  Te  Te131  1  0.27326663  0.61911121  0.76811630  1
  Te  Te132  1  0.20688447  0.91531194  0.09057966  1
  Te  Te133  1  0.25822166  0.93459281  0.44850954  1
  Te  Te134  1  0.24546570  0.90937005  0.71491960  1
  Te  Te135  1  0.58821770  0.23776036  0.08989120  1
  Te  Te136  1  0.56175445  0.20134003  0.39469488  1
  Te  Te137  1  0.57984761  0.21967023  0.75843910  1
  Te  Te138  1  0.57734019  0.58477750  0.07180102  1
  Te  Te139  1  0.57713515  0.59205260  0.43993259  1
  Te  Te140  1  0.58203766  0.56740132  0.75362547  1
  Te  Te141  1  0.57501181  0.91176952  0.10249217  1
  Te  Te142  1  0.55182189  0.94881145  0.37626424  1
  Te  Te143  1  0.58783895  0.89751048  0.75230293  1
  Te  Te144  1  0.94119580  0.20587654  0.07211146  1
  Te  Te145  1  0.94545738  0.22139295  0.41799606  1
  Te  Te146  1  0.93861490  0.24686843  0.76107064  1
  Te  Te147  1  0.94028553  0.62430741  0.05741464  1
  Te  Te148  1  0.92058448  0.59143474  0.42406367  1
  Te  Te149  1  0.93415276  0.60199304  0.72836237  1
  Te  Te150  1  0.93844393  0.92521407  0.08175903  1
  Te  Te151  1  0.91224418  0.89628091  0.39465599  1
  Te  Te152  1  0.94629666  0.91013724  0.76350018  1
  Te  Te153  1  0.25273981  0.03657414  0.23953410  1
  Te  Te154  1  0.26485246  0.08965164  0.54792300  1
  Te  Te155  1  0.22913521  0.10350221  0.93300392  1
  Te  Te156  1  0.24519707  0.43173196  0.25801198  1
  Te  Te157  1  0.24212979  0.42811606  0.59309224  1
  Te  Te158  1  0.27645867  0.41158718  0.88989379  1
  Te  Te159  1  0.24885523  0.76493283  0.24498896  1
  Te  Te160  1  0.26275076  0.69248686  0.57842720  1
  Te  Te161  1  0.20442402  0.78902037  0.94134707  1
  Te  Te162  1  0.60776805  0.09720989  0.28457595  1
  Te  Te163  1  0.56426964  0.06005069  0.56474615  1
  Te  Te164  1  0.58888708  0.06570958  0.92357873  1
  Te  Te165  1  0.57197599  0.39907445  0.26518700  1
  Te  Te166  1  0.57162147  0.42261910  0.58329851  1
  Te  Te167  1  0.58282145  0.41352166  0.91239106  1
  Te  Te168  1  0.56268894  0.76455539  0.27964712  1
  Te  Te169  1  0.57367309  0.77149981  0.56166684  1
  Te  Te170  1  0.58898129  0.75323931  0.92179824  1
  Te  Te171  1  0.92359548  0.08513009  0.24525145  1
  Te  Te172  1  0.91458547  0.05742711  0.56885220  1
  Te  Te173  1  0.89361644  0.08955093  0.91998869  1
  Te  Te174  1  0.90564803  0.42008582  0.25866028  1
  Te  Te175  1  0.91358383  0.42175294  0.57671587  1
  Te  Te176  1  0.91580522  0.41022428  0.92732445  1
  Te  Te177  1  0.89945061  0.79385346  0.26477559  1
  Te  Te178  1  0.93967854  0.76063795  0.59800950  1
  Te  Te179  1  0.95038328  0.78423349  0.88379785  1
