# generated using pymatgen
data_In2Te3
_symmetry_space_group_name_H-M   'P 1'
_cell_length_a   18.77526574
_cell_length_b   18.77640910
_cell_length_c   18.77029104
_cell_angle_alpha   89.95870647
_cell_angle_beta   90.01542701
_cell_angle_gamma   90.02746314
_symmetry_Int_Tables_number   1
_chemical_formula_structural   In2Te3
_chemical_formula_sum   'In72 Te108'
_cell_volume   6617.12684572
_cell_formula_units_Z   36
loop_
 _symmetry_equiv_pos_site_id
 _symmetry_equiv_pos_as_xyz
  1  'x, y, z'
loop_
 _atom_site_type_symbol
 _atom_site_label
 _atom_site_symmetry_multiplicity
 _atom_site_fract_x
 _atom_site_fract_y
 _atom_site_fract_z
 _atom_site_occupancy
  In  In0  1  0.32868542  0.68309106  0.01412838  1
  In  In1  1  0.15399767  0.82703891  0.00488945  1
  In  In2  1  0.49092048  -0.00064590  0.16965066  1
  In  In3  1  0.03496243  0.53210530  0.84914693  1
  In  In4  1  0.50236863  0.33247880  0.82286614  1
  In  In5  1  0.70866576  0.82715724  0.50404160  1
  In  In6  1  0.48832943  0.15926784  0.32756210  1
  In  In7  1  0.68443981  0.65338324  0.66041906  1
  In  In8  1  0.50942404  0.00909144  0.50446670  1
  In  In9  1  0.84326740  0.49346101  0.03890767  1
  In  In10  1  0.49671773  0.66361231  0.50329127  1
  In  In11  1  0.82391164  0.68395267  0.81612523  1
  In  In12  1  0.50457954  0.33628826  0.50855151  1
  In  In13  1  0.13844793  0.35092770  0.49433154  1
  In  In14  1  0.84364603  0.33926145  0.49947427  1
  In  In15  1  0.31805737  0.51031148  0.82568605  1
  In  In16  1  -0.00326949  0.52055436  0.18726640  1
  In  In17  1  0.67943802  0.15924060  0.17591007  1
  In  In18  1  0.67812067  -0.00848763  0.64395543  1
  In  In19  1  0.32238215  0.14973414  0.83282357  1
  In  In20  1  0.18294268  0.14885677  -0.01137577  1
  In  In21  1  0.16232823  -0.01704507  0.16774074  1
  In  In22  1  0.66260529  0.32831246  0.33683589  1
  In  In23  1  0.84685376  0.83268838  0.01004806  1
  In  In24  1  0.49759433  0.30732798  0.17580819  1
  In  In25  1  0.51202494  0.13291913  -0.00144018  1
  In  In26  1  0.01904428  0.84115249  0.82934123  1
  In  In27  1  0.82087862  0.14428353  0.37648071  1
  In  In28  1  0.01456637  0.15487560  0.17707315  1
  In  In29  1  0.84739835  0.37818590  0.18160117  1
  In  In30  1  0.83713686  0.16125265  0.65382471  1
  In  In31  1  0.17328876  0.15425689  0.34489265  1
  In  In32  1  0.17789717  0.34607339  0.83319513  1
  In  In33  1  0.49497503  0.84888632  0.34194591  1
  In  In34  1  0.49339407  0.70463203  0.82419847  1
  In  In35  1  0.30279003  0.81946105  0.47876815  1
  In  In36  1  0.83782237  0.31309512  0.84375563  1
  In  In37  1  0.85276446  0.52966080  0.33755745  1
  In  In38  1  0.16481415  0.35917243  0.18623779  1
  In  In39  1  0.84000110  0.50883010  0.63001179  1
  In  In40  1  -0.00267905  -0.03355639  0.34847332  1
  In  In41  1  0.71978208  0.49308634  0.16805688  1
  In  In42  1  -0.00182539  0.33213478  0.00031575  1
  In  In43  1  0.65103256  0.81246556  0.83077961  1
  In  In44  1  0.01995236  0.69611750  0.34101209  1
  In  In45  1  0.17106483  0.82530596  0.65701867  1
  In  In46  1  0.30414542  0.51041337  0.18374618  1
  In  In47  1  0.15503622  0.51103811  0.65102558  1
  In  In48  1  0.35706502  0.17062569  0.16692377  1
  In  In49  1  -0.01605981  0.68100034  0.63463694  1
  In  In50  1  0.34745925  -0.00541283  0.67513619  1
  In  In51  1  0.66760858  0.84297001  0.18784993  1
  In  In52  1  0.67137988  0.49856101  0.82482297  1
  In  In53  1  -0.02262053  0.15194761  0.82013162  1
  In  In54  1  0.49510560  0.68947934  0.15498147  1
  In  In55  1  0.49642900  0.51750978  0.33041180  1
  In  In56  1  0.31701171  0.33688563  -0.01063746  1
  In  In57  1  0.65559421  0.67980274  -0.01371445  1
  In  In58  1  0.35417184  0.16576615  0.50341296  1
  In  In59  1  0.49137431  0.83520125  0.68645094  1
  In  In60  1  0.15153576  0.17772505  0.65674076  1
  In  In61  1  0.85264882  0.66871407  0.19737434  1
  In  In62  1  0.16579087  -0.02028102  0.48808210  1
  In  In63  1  0.83188444  -0.01740087  0.82716287  1
  In  In64  1  0.30492132  0.51785407  0.48280302  1
  In  In65  1  0.83646095  -0.02217502  0.16504503  1
  In  In66  1  0.65497670  0.32222634  0.66211652  1
  In  In67  1  0.00278471  0.01489871  0.65576452  1
  In  In68  1  0.82512739  0.16257131  -0.00293822  1
  In  In69  1  0.34029368  0.85279002  0.85145587  1
  In  In70  1  0.49884554  0.49667943  0.00738372  1
  In  In71  1  0.49141034  0.49016801  0.64374622  1
  Te  Te72  1  0.07880775  0.06999576  0.07042117  1
  Te  Te73  1  0.06841122  0.07989462  0.42557571  1
  Te  Te74  1  0.09628996  0.07809417  0.76033648  1
  Te  Te75  1  0.07612944  0.43151053  0.08495714  1
  Te  Te76  1  0.09050894  0.42695006  0.37566007  1
  Te  Te77  1  0.07406650  0.42117492  0.75045334  1
  Te  Te78  1  0.09573749  0.71071220  0.07938326  1
  Te  Te79  1  0.12657930  0.76581371  0.42521125  1
  Te  Te80  1  0.08147753  0.73250411  0.74113151  1
  Te  Te81  1  0.39423454  0.06285307  0.06733269  1
  Te  Te82  1  0.40289259  0.05928032  0.40564127  1
  Te  Te83  1  0.42888680  0.09310985  0.74735363  1
  Te  Te84  1  0.40298366  0.41598864  0.09637753  1
  Te  Te85  1  0.41478212  0.42677508  0.42283177  1
  Te  Te86  1  0.40200567  0.41339409  0.74161817  1
  Te  Te87  1  0.39201054  0.78580762  0.10379783  1
  Te  Te88  1  0.40809056  0.73765086  0.40331820  1
  Te  Te89  1  0.37852012  0.74810212  0.73627238  1
  Te  Te90  1  0.74173459  0.06146174  0.07671433  1
  Te  Te91  1  0.70897088  0.05351737  0.39399241  1
  Te  Te92  1  0.74962923  0.08488167  0.75222336  1
  Te  Te93  1  0.74338387  0.38216184  0.06384720  1
  Te  Te94  1  0.75726358  0.42506852  0.40468518  1
  Te  Te95  1  0.76234288  0.41368955  0.73712026  1
  Te  Te96  1  0.75231131  0.73937755  0.08932902  1
  Te  Te97  1  0.79489946  0.73548130  0.42729700  1
  Te  Te98  1  0.75444023  0.77687479  0.71905218  1
  Te  Te99  1  0.08534771  0.25321232  0.26702854  1
  Te  Te100  1  0.05910114  0.24841958  0.56698248  1
  Te  Te101  1  0.08281542  0.24362717  0.90888002  1
  Te  Te102  1  0.10561285  0.59331393  0.26408279  1
  Te  Te103  1  0.05989161  0.57677907  0.55322184  1
  Te  Te104  1  0.08961119  0.62448521  0.94791828  1
  Te  Te105  1  0.06657111  0.88952681  0.23826232  1
  Te  Te106  1  0.06784698  0.90112442  0.57487103  1
  Te  Te107  1  0.08870876  0.93179796  0.92141379  1
  Te  Te108  1  0.39171945  0.27011850  0.27843693  1
  Te  Te109  1  0.42798372  0.24896964  0.59968642  1
  Te  Te110  1  0.41900400  0.24543907  0.92791303  1
  Te  Te111  1  0.40301672  0.60709283  0.24877488  1
  Te  Te112  1  0.39238620  0.59079260  0.58875737  1
  Te  Te113  1  0.42235628  0.59211281  0.91631988  1
  Te  Te114  1  0.40010867  0.91039803  0.24709195  1
  Te  Te115  1  0.40892219  0.90024675  0.56788184  1
  Te  Te116  1  0.45281980  0.92996031  0.90765832  1
  Te  Te117  1  0.76892499  0.25590719  0.25274465  1
  Te  Te118  1  0.74245238  0.24242565  0.56525953  1
  Te  Te119  1  0.73256198  0.22812241  0.90140045  1
  Te  Te120  1  0.73560523  0.60438999  0.27170847  1
  Te  Te121  1  0.75993973  0.60040876  0.54410034  1
  Te  Te122  1  0.75700507  0.58362328  0.92062671  1
  Te  Te123  1  0.76774030  0.90663416  0.27605718  1
  Te  Te124  1  0.79219065  0.94430267  0.55681405  1
  Te  Te125  1  0.74379404  0.89992724  0.92028754  1
  Te  Te126  1  0.23614251  0.25005471  0.09453965  1
  Te  Te127  1  0.24685574  0.25039397  0.43663101  1
  Te  Te128  1  0.25526057  0.25365634  0.74072778  1
  Te  Te129  1  0.22820258  0.60619347  0.09592790  1
  Te  Te130  1  0.22479724  0.62041134  0.40528513  1
  Te  Te131  1  0.22714535  0.59629630  0.74915725  1
  Te  Te132  1  0.25644367  0.89474280  0.09189982  1
  Te  Te133  1  0.23663283  0.90869842  0.37834210  1
  Te  Te134  1  0.24040644  0.92023669  0.75371627  1
  Te  Te135  1  0.59067130  0.23844417  0.07750105  1
  Te  Te136  1  0.58155429  0.23365584  0.42379789  1
  Te  Te137  1  0.58716581  0.23180281  0.75698706  1
  Te  Te138  1  0.59378898  0.58285549  0.09169719  1
  Te  Te139  1  0.59096269  0.58006996  0.42500049  1
  Te  Te140  1  0.56983938  0.58678166  0.75063846  1
  Te  Te141  1  0.58953375  0.92206802  0.09098406  1
  Te  Te142  1  0.60484565  0.91520866  0.42724842  1
  Te  Te143  1  0.58742345  0.93219180  0.75369641  1
  Te  Te144  1  0.91503744  0.24550603  0.09491976  1
  Te  Te145  1  0.92023960  0.24573957  0.41201203  1
  Te  Te146  1  0.92594027  0.26221726  0.72908327  1
  Te  Te147  1  0.93072528  0.61038871  0.07859358  1
  Te  Te148  1  0.95897225  0.58513623  0.42668769  1
  Te  Te149  1  0.91691231  0.58503907  0.74471973  1
  Te  Te150  1  0.94559405  0.90135026  0.09639500  1
  Te  Te151  1  0.90388011  0.89425375  0.44162017  1
  Te  Te152  1  0.92157078  0.90686852  0.73086724  1
  Te  Te153  1  0.25523153  0.08005670  0.24191530  1
  Te  Te154  1  0.24530891  0.07277616  0.58035800  1
  Te  Te155  1  0.26411407  0.04590046  0.92136254  1
  Te  Te156  1  0.23696628  0.43295404  0.29510561  1
  Te  Te157  1  0.24931806  0.41399361  0.58131845  1
  Te  Te158  1  0.22946617  0.44847605  0.93586939  1
  Te  Te159  1  0.19598760  0.72620308  0.29431049  1
  Te  Te160  1  0.22895659  0.72188305  0.56559783  1
  Te  Te161  1  0.24607523  0.74683706  0.90335006  1
  Te  Te162  1  0.59854242  0.06852407  0.26857344  1
  Te  Te163  1  0.58620861  0.09648223  0.59396347  1
  Te  Te164  1  0.57194519  0.03256553  0.91084934  1
  Te  Te165  1  0.58409033  0.41825662  0.23722825  1
  Te  Te166  1  0.60924501  0.43409841  0.56738434  1
  Te  Te167  1  0.59118044  0.41087590  0.92124618  1
  Te  Te168  1  0.58210587  0.74527635  0.26828621  1
  Te  Te169  1  0.58562628  0.75941719  0.59030477  1
  Te  Te170  1  0.54680829  0.78044818  0.94649304  1
  Te  Te171  1  0.91458412  0.07605911  0.26110004  1
  Te  Te172  1  0.90859932  0.07489443  0.55548963  1
  Te  Te173  1  0.91745937  0.06184780  0.92710813  1
  Te  Te174  1  0.95345220  0.41302696  0.29128916  1
  Te  Te175  1  0.94507547  0.42841839  0.56422943  1
  Te  Te176  1  0.91863898  0.42860816  0.91121235  1
  Te  Te177  1  0.93715262  0.78084918  0.24658966  1
  Te  Te178  1  0.90903330  0.76411785  0.53245762  1
  Te  Te179  1  0.92493238  0.74779289  0.90998278  1
