# generated using pymatgen
data_In2Te3
_symmetry_space_group_name_H-M   'P 1'
_cell_length_a   19.03439948
_cell_length_b   19.00562613
_cell_length_c   19.00419624
_cell_angle_alpha   89.88372086
_cell_angle_beta   89.78041020
_cell_angle_gamma   90.07193928
_symmetry_Int_Tables_number   1
_chemical_formula_structural   In2Te3
_chemical_formula_sum   'In72 Te108'
_cell_volume   6874.90082209
_cell_formula_units_Z   36
loop_
 _symmetry_equiv_pos_site_id
 _symmetry_equiv_pos_as_xyz
  1  'x, y, z'
loop_
 _atom_site_type_symbol
 _atom_site_label
 _atom_site_symmetry_multiplicity
 _atom_site_fract_x
 _atom_site_fract_y
 _atom_site_fract_z
 _atom_site_occupancy
  In  In0  1  0.14810169  0.84828067  0.01845639  1
  In  In1  1  0.14004233  0.85953951  0.33821601  1
  In  In2  1  0.34459561  0.31341245  0.00875676  1
  In  In3  1  0.49796727  0.62768066  0.50425037  1
  In  In4  1  0.84357675  0.79626246  0.34462504  1
  In  In5  1  -0.04616491  0.63303114  0.28900762  1
  In  In6  1  0.03457571  0.51467133  0.47079286  1
  In  In7  1  0.67099629  0.66605107  0.68296265  1
  In  In8  1  0.48932261  0.30770971  0.85477598  1
  In  In9  1  0.83008204  0.67039789  0.52496891  1
  In  In10  1  0.31348151  0.85540919  0.15823285  1
  In  In11  1  0.02786918  0.02026585  0.60533092  1
  In  In12  1  0.01215074  0.51545318  0.83941873  1
  In  In13  1  0.80418185  0.62944255  0.86396871  1
  In  In14  1  0.83813294  0.17128506  0.01521146  1
  In  In15  1  0.47671620  0.04111129  0.16146095  1
  In  In16  1  0.16901605  0.02765705  0.19454888  1
  In  In17  1  0.16756432  0.16121650  -0.03214374  1
  In  In18  1  0.81732210  0.01277529  0.16743409  1
  In  In19  1  0.82931629  0.38310309  0.87330699  1
  In  In20  1  0.81877884  -0.02131719  0.84737637  1
  In  In21  1  0.02708946  0.28329124  0.65266592  1
  In  In22  1  0.34188228  0.67169153  -0.00101057  1
  In  In23  1  0.14702697  0.35299420  0.17136822  1
  In  In24  1  0.49537952  0.67626066  0.85409456  1
  In  In25  1  0.65876064  0.18700939  0.16220287  1
  In  In26  1  0.01078559  0.85319882  0.48768277  1
  In  In27  1  0.33986463  0.83593229  0.52305852  1
  In  In28  1  0.33470762  0.32748937  0.63830777  1
  In  In29  1  0.66870557  0.34792103  0.66566669  1
  In  In30  1  0.17126345  0.50240754  -0.00033171  1
  In  In31  1  -0.00986591  0.00966572  -0.00150182  1
  In  In32  1  0.35158378  0.47308582  0.13933659  1
  In  In33  1  0.68038620  -0.00575057  0.34667152  1
  In  In34  1  0.18859442  0.14755532  0.65114713  1
  In  In35  1  0.35385613  0.51880989  0.82955593  1
  In  In36  1  0.49823384  0.14758429  0.66977877  1
  In  In37  1  0.66232997  0.82050795  0.50895152  1
  In  In38  1  0.65670708  0.14243324  0.85123742  1
  In  In39  1  0.81867399  0.19482469  0.31300216  1
  In  In40  1  0.84835365  0.32661381  0.50202221  1
  In  In41  1  0.02351721  0.67533307  0.69677697  1
  In  In42  1  0.77068078  0.48148272  0.26056345  1
  In  In43  1  0.51245511  0.49806074  0.66504916  1
  In  In44  1  0.50038169  0.82843675  0.00360827  1
  In  In45  1  0.17734844  0.70039484  0.50191813  1
  In  In46  1  0.81759513  0.81791474  -0.00773247  1
  In  In47  1  0.01541306  0.17887004  0.80984776  1
  In  In48  1  0.16843352  0.32880548  0.83272716  1
  In  In49  1  0.50357520  -0.01098312  0.82627941  1
  In  In50  1  0.48703881  0.84823340  0.31774472  1
  In  In51  1  0.35212002  0.65721101  0.32379597  1
  In  In52  1  0.00349586  0.35089501  0.33360616  1
  In  In53  1  0.82615294  0.83277888  0.67738879  1
  In  In54  1  0.15109641  0.68910473  0.17015858  1
  In  In55  1  0.31769084  0.18088875  0.20446555  1
  In  In56  1  0.85777460  0.48573638  0.64312770  1
  In  In57  1  0.65653714  0.33672907  -0.00404714  1
  In  In58  1  0.33944862  0.85040475  0.83393588  1
  In  In59  1  -0.02918866  0.81805041  0.84519177  1
  In  In60  1  0.65522892  0.82258742  0.15657832  1
  In  In61  1  0.19261664  0.49864124  0.68367294  1
  In  In62  1  -0.01378629  0.19624767  0.17209241  1
  In  In63  1  0.66179939  0.47513111  0.47466958  1
  In  In64  1  0.59151974  0.17337484  0.43657796  1
  In  In65  1  0.42011225  0.03452550  0.50184375  1
  In  In66  1  0.50851045  0.42500439  0.33904153  1
  In  In67  1  0.53638244  0.64395677  0.14585057  1
  In  In68  1  0.19013091  -0.01099431  0.51082221  1
  In  In69  1  0.20517637  0.50564683  0.31974632  1
  In  In70  1  0.85109759  0.16125419  0.67540509  1
  In  In71  1  0.63981640  -0.02056484  0.66502163  1
  Te  Te72  1  0.07100084  0.10500941  0.08152206  1
  Te  Te73  1  0.06923262  0.05906643  0.46541188  1
  Te  Te74  1  0.09031792  0.07102143  0.73852334  1
  Te  Te75  1  0.06917131  0.43845577  0.08237530  1
  Te  Te76  1  0.12276721  0.41028977  0.40800489  1
  Te  Te77  1  0.07505557  0.41244302  0.74659217  1
  Te  Te78  1  0.05832031  0.74670100  0.07489317  1
  Te  Te79  1  0.07032326  0.74172480  0.40374919  1
  Te  Te80  1  0.09218612  0.77847302  0.77184980  1
  Te  Te81  1  0.37076708  0.10857027  0.08787568  1
  Te  Te82  1  0.46310649  0.11607110  0.38347927  1
  Te  Te83  1  0.40186064  0.06188989  0.74317861  1
  Te  Te84  1  0.45085404  0.37569538  0.09016482  1
  Te  Te85  1  0.38773957  0.42069219  0.42120304  1
  Te  Te86  1  0.41500513  0.40538105  0.74929403  1
  Te  Te87  1  0.41322968  0.75039964  0.10980632  1
  Te  Te88  1  0.42684817  0.74646838  0.42176229  1
  Te  Te89  1  0.40863999  0.74402373  0.76021476  1
  Te  Te90  1  0.73014863  0.08282590  0.06777435  1
  Te  Te91  1  0.73630807  0.11662519  0.41353939  1
  Te  Te92  1  0.74396009  0.07267466  0.74254280  1
  Te  Te93  1  0.74452457  0.43796663  0.06238173  1
  Te  Te94  1  0.78043937  0.41789926  0.40388936  1
  Te  Te95  1  0.75882147  0.43557037  0.75053436  1
  Te  Te96  1  0.75116909  0.72881338  0.09315334  1
  Te  Te97  1  0.73262579  0.72019891  0.42154820  1
  Te  Te98  1  0.75240734  0.74890905  0.77831302  1
  Te  Te99  1  0.09246694  0.24677345  0.26621814  1
  Te  Te100  1  0.11004582  0.22184921  0.54969712  1
  Te  Te101  1  0.06393373  0.26639190  0.92301595  1
  Te  Te102  1  0.09182005  0.57466270  0.24967132  1
  Te  Te103  1  0.09231308  0.59111383  0.58971757  1
  Te  Te104  1  0.11534290  0.59973528  0.90264384  1
  Te  Te105  1  0.06738514  0.93042770  0.23529557  1
  Te  Te106  1  0.10942986  0.89126147  0.59451939  1
  Te  Te107  1  0.06935109  0.91938740  0.90969820  1
  Te  Te108  1  0.43772615  0.23670823  0.27217351  1
  Te  Te109  1  0.43990914  0.24599685  0.57300547  1
  Te  Te110  1  0.38824224  0.21724127  0.90745146  1
  Te  Te111  1  0.43006191  0.56969011  0.22745312  1
  Te  Te112  1  0.40404053  0.56849696  0.59842310  1
  Te  Te113  1  0.43384498  0.56426332  0.94829003  1
  Te  Te114  1  0.39460474  0.94471939  0.24980801  1
  Te  Te115  1  0.43661718  0.92131359  0.59072041  1
  Te  Te116  1  0.41143900  0.92960979  0.93984437  1
  Te  Te117  1  0.76568029  0.27946937  0.20463067  1
  Te  Te118  1  0.75446358  0.24924152  0.59041030  1
  Te  Te119  1  0.75553139  0.24852882  0.90188595  1
  Te  Te120  1  0.74700263  0.62355765  0.22101783  1
  Te  Te121  1  0.73187299  0.56252859  0.58294334  1
  Te  Te122  1  0.72492529  0.55841654  0.96619890  1
  Te  Te123  1  0.75147585  0.89869112  0.25269141  1
  Te  Te124  1  0.75337154  0.91864410  0.57753514  1
  Te  Te125  1  0.72250511  0.91181677  0.93230140  1
  Te  Te126  1  0.22238577  0.25744680  0.07765001  1
  Te  Te127  1  0.38427971  0.27310585  0.41100647  1
  Te  Te128  1  0.25688521  0.24484055  0.74421363  1
  Te  Te129  1  0.25391384  0.59101743  0.09942984  1
  Te  Te130  1  0.26054166  0.59528407  0.42850650  1
  Te  Te131  1  0.23874453  0.59748922  0.78198039  1
  Te  Te132  1  0.23682343  0.95593805  0.07762130  1
  Te  Te133  1  0.26323358  0.90518445  0.40912773  1
  Te  Te134  1  0.27262150  0.96518721  0.76586267  1
  Te  Te135  1  0.56203428  0.24727713  0.06827737  1
  Te  Te136  1  0.59908217  0.29981499  0.35587442  1
  Te  Te137  1  0.59295387  0.24350895  0.74790491  1
  Te  Te138  1  0.62661239  0.53302160  0.10308824  1
  Te  Te139  1  0.57210492  0.56083885  0.39199596  1
  Te  Te140  1  0.58467593  0.57841511  0.76949133  1
  Te  Te141  1  0.56289129  0.92631157  0.10095550  1
  Te  Te142  1  0.57777052  0.91182844  0.42145551  1
  Te  Te143  1  0.59467412  0.88898991  0.76927905  1
  Te  Te144  1  0.90162805  0.28115631  0.08662294  1
  Te  Te145  1  0.92854429  0.24117445  0.40777857  1
  Te  Te146  1  0.91033198  0.27877448  0.75120736  1
  Te  Te147  1  0.87917645  0.56734761  0.17174292  1
  Te  Te148  1  0.90852948  0.58298377  0.42670862  1
  Te  Te149  1  0.90421356  0.59207287  0.74260961  1
  Te  Te150  1  0.89655005  0.92174687  0.07587886  1
  Te  Te151  1  0.89671084  0.91010500  0.41823055  1
  Te  Te152  1  0.91935394  0.92801330  0.74659828  1
  Te  Te153  1  0.24179899  0.09744910  0.29866347  1
  Te  Te154  1  0.29152705  0.09535719  0.54657980  1
  Te  Te155  1  0.21354879  0.06122908  0.87334923  1
  Te  Te156  1  0.27484653  0.39547497  0.24371982  1
  Te  Te157  1  0.22838246  0.40693095  0.57683256  1
  Te  Te158  1  0.26352828  0.41535213  0.91351976  1
  Te  Te159  1  0.25118474  0.75629522  0.26290515  1
  Te  Te160  1  0.26165499  0.74749040  0.60998473  1
  Te  Te161  1  0.25335371  0.77306671  0.93565705  1
  Te  Te162  1  0.60055493  0.07457183  0.24497838  1
  Te  Te163  1  0.59171288  0.08505066  0.56837998  1
  Te  Te164  1  0.55248174  0.08117403  0.93039739  1
  Te  Te165  1  0.62425200  0.40903958  0.24612099  1
  Te  Te166  1  0.56806697  0.39741590  0.56455361  1
  Te  Te167  1  0.58220271  0.41131921  0.89431555  1
  Te  Te168  1  0.57558211  0.74148706  0.25739232  1
  Te  Te169  1  0.57207710  0.73268962  0.59225558  1
  Te  Te170  1  0.59031443  0.72548046  0.95312015  1
  Te  Te171  1  0.91298506  0.08910934  0.25317377  1
  Te  Te172  1  0.90622171  0.08905626  0.56180519  1
  Te  Te173  1  0.91303408  0.09606900  0.89766669  1
  Te  Te174  1  0.91319882  0.42330963  0.24302767  1
  Te  Te175  1  0.96210337  0.40742112  0.56413857  1
  Te  Te176  1  0.92592491  0.46306276  0.94692146  1
  Te  Te177  1  0.93573998  0.76728691  0.23436663  1
  Te  Te178  1  0.93115532  0.75779770  0.59319956  1
  Te  Te179  1  0.91094961  0.70995173  0.93377762  1
