# generated using pymatgen
data_In2Te3
_symmetry_space_group_name_H-M   'P 1'
_cell_length_a   18.98966330
_cell_length_b   18.96925433
_cell_length_c   18.99237186
_cell_angle_alpha   89.94554418
_cell_angle_beta   89.66988437
_cell_angle_gamma   89.98464649
_symmetry_Int_Tables_number   1
_chemical_formula_structural   In2Te3
_chemical_formula_sum   'In72 Te108'
_cell_volume   6841.31061440
_cell_formula_units_Z   36
loop_
 _symmetry_equiv_pos_site_id
 _symmetry_equiv_pos_as_xyz
  1  'x, y, z'
loop_
 _atom_site_type_symbol
 _atom_site_label
 _atom_site_symmetry_multiplicity
 _atom_site_fract_x
 _atom_site_fract_y
 _atom_site_fract_z
 _atom_site_occupancy
  In  In0  1  0.51334435  0.51311349  0.03001775  1
  In  In1  1  0.69279643  0.67614049  0.00162446  1
  In  In2  1  0.65845062  0.33582231  0.33495479  1
  In  In3  1  0.15159291  0.86743776  -0.01528493  1
  In  In4  1  0.36288079  0.00006773  0.03507909  1
  In  In5  1  0.51234871  0.14678812  0.69923475  1
  In  In6  1  0.00287184  0.33547279  0.32418690  1
  In  In7  1  -0.00364254  0.49140334  0.48750758  1
  In  In8  1  0.37303716  0.82142494  0.21954995  1
  In  In9  1  0.17485792  0.01715637  0.16615273  1
  In  In10  1  0.33694874  0.17965916  0.50102008  1
  In  In11  1  0.51824160  0.16219130  0.34150890  1
  In  In12  1  0.84323292  0.15286553  0.67601292  1
  In  In13  1  0.69052800  -0.00740247  0.33240741  1
  In  In14  1  -0.03760731  0.32839833  0.00264013  1
  In  In15  1  0.01412791  0.00756442  0.33108471  1
  In  In16  1  0.82398881  0.19362154  0.03371206  1
  In  In17  1  0.51206678  0.32056798  0.88902795  1
  In  In18  1  0.12637194  0.49678093  -0.00436594  1
  In  In19  1  0.65301903  0.81650613  0.84939355  1
  In  In20  1  0.00732334  0.31678951  0.65276078  1
  In  In21  1  0.17257153  0.34878949  0.20504060  1
  In  In22  1  0.51843150  0.00152812  0.51319597  1
  In  In23  1  -0.00261492  0.48647979  0.82037170  1
  In  In24  1  0.36884467  0.51383364  0.16744836  1
  In  In25  1  0.32872136  0.49497754  0.82361360  1
  In  In26  1  0.86528975  0.01472983  0.50539427  1
  In  In27  1  0.50090592  0.80262573  0.66944850  1
  In  In28  1  0.33236145  0.82639584  0.80582337  1
  In  In29  1  0.83364436  0.81354660  0.31283757  1
  In  In30  1  0.66539630  0.33482222  0.66626287  1
  In  In31  1  0.67709142  0.48494630  0.16541623  1
  In  In32  1  0.51856685  0.81977985  0.01958911  1
  In  In33  1  0.81496539  -0.02519453  0.16480992  1
  In  In34  1  0.81745861  0.18047355  0.32441622  1
  In  In35  1  0.80991265  0.34512727  0.83725754  1
  In  In36  1  0.64030790  0.65310985  0.32689152  1
  In  In37  1  0.14531487  0.31430927  0.82093791  1
  In  In38  1  0.35092752  0.18325285  0.17699691  1
  In  In39  1  0.17087520  0.16078065  0.00497314  1
  In  In40  1  0.02164903  -0.02219270  0.64449232  1
  In  In41  1  0.14311272  0.66772865  0.15567489  1
  In  In42  1  0.84769827  0.67644551  0.51314538  1
  In  In43  1  0.64367584  -0.00534406  -0.00027189  1
  In  In44  1  -0.01968184  0.11220446  0.80688104  1
  In  In45  1  -0.01887387  0.51438325  0.16848415  1
  In  In46  1  0.36670567  0.15223772  0.83618544  1
  In  In47  1  0.67460780  -0.00266206  0.70009514  1
  In  In48  1  0.37064377  0.80525090  0.47051666  1
  In  In49  1  -0.00467700  0.68382651  0.65598712  1
  In  In50  1  0.18742987  0.67380046  0.51144412  1
  In  In51  1  0.31960985  0.67404178  -0.00900508  1
  In  In52  1  0.19237156  0.81462247  0.36113230  1
  In  In53  1  0.33552611  0.37820563  0.02731706  1
  In  In54  1  0.64692123  0.65223977  0.66558146  1
  In  In55  1  0.67845698  0.85426393  0.50698768  1
  In  In56  1  0.48697249  0.00822813  0.86686371  1
  In  In57  1  0.67367537  0.49164171  0.49902205  1
  In  In58  1  -0.03255049  -0.00939680  -0.00884525  1
  In  In59  1  0.33897627  0.35358320  0.66046374  1
  In  In60  1  0.17407021  -0.02004654  0.83296557  1
  In  In61  1  0.17094182  0.66068249  0.78193320  1
  In  In62  1  -0.04876394  0.66222329  -0.00597647  1
  In  In63  1  -0.02799039  0.19048457  0.15610603  1
  In  In64  1  0.35392458  0.53031849  0.50237607  1
  In  In65  1  0.18937691  0.15430793  0.34992625  1
  In  In66  1  0.02849353  0.67473340  0.34936882  1
  In  In67  1  0.17671531  0.18786451  0.63717236  1
  In  In68  1  0.49216924  0.34213101  0.49445741  1
  In  In69  1  0.85858149  0.31903969  0.48832798  1
  In  In70  1  0.81213209  0.65985599  0.81825131  1
  In  In71  1  -0.00755496  0.85302094  0.16541073  1
  Te  Te72  1  0.06215383  0.07220042  0.07715989  1
  Te  Te73  1  0.11359482  0.05183481  0.43245911  1
  Te  Te74  1  0.11953871  0.09594048  0.75143206  1
  Te  Te75  1  0.07061773  0.39679050  0.09475174  1
  Te  Te76  1  0.09277205  0.41014071  0.41122428  1
  Te  Te77  1  0.09688987  0.42048655  0.72700248  1
  Te  Te78  1  0.06835615  0.75854267  0.06099053  1
  Te  Te79  1  0.06926860  0.78399562  0.44364175  1
  Te  Te80  1  0.09320558  0.77003512  0.72506137  1
  Te  Te81  1  0.44672702  0.10655512  0.09166556  1
  Te  Te82  1  0.42355367  0.07802685  0.42462723  1
  Te  Te83  1  0.40524753  0.04603633  0.73910602  1
  Te  Te84  1  0.45519873  0.39831788  0.11538170  1
  Te  Te85  1  0.41581762  0.43169322  0.40934262  1
  Te  Te86  1  0.42717954  0.39198895  0.77593577  1
  Te  Te87  1  0.40793656  0.74282870  0.09089311  1
  Te  Te88  1  0.42163482  0.70125172  0.37531514  1
  Te  Te89  1  0.41556521  0.71286143  0.75543075  1
  Te  Te90  1  0.73870522  0.07869302  0.08671460  1
  Te  Te91  1  0.75621145  0.08861864  0.42900910  1
  Te  Te92  1  0.74706946  0.10041596  0.77360453  1
  Te  Te93  1  0.68432637  0.39610343  0.04422324  1
  Te  Te94  1  0.76750213  0.41117191  0.41007097  1
  Te  Te95  1  0.73235721  0.43361599  0.75155763  1
  Te  Te96  1  0.73513879  0.78864425  0.08484123  1
  Te  Te97  1  0.74441886  0.74629968  0.41575646  1
  Te  Te98  1  0.73140572  0.75813314  0.73356931  1
  Te  Te99  1  0.09226194  0.21872764  0.24627495  1
  Te  Te100  1  0.10047794  0.27403932  0.54721982  1
  Te  Te101  1  0.06745890  0.24264963  0.92942087  1
  Te  Te102  1  0.09015810  0.56915770  0.25755007  1
  Te  Te103  1  0.07882130  0.58826191  0.57277828  1
  Te  Te104  1  0.07494569  0.59743608  0.89597606  1
  Te  Te105  1  0.10289674  0.90645337  0.25370562  1
  Te  Te106  1  0.09672643  0.92739325  0.53076302  1
  Te  Te107  1  0.04532214  0.90983537  0.88831395  1
  Te  Te108  1  0.41720656  0.25685654  0.28620527  1
  Te  Te109  1  0.43426750  0.24001331  0.60592887  1
  Te  Te110  1  0.38158731  0.25285112  0.94791419  1
  Te  Te111  1  0.44352829  0.61313382  0.24727186  1
  Te  Te112  1  0.41909918  0.59787623  0.61993174  1
  Te  Te113  1  0.40692429  0.56677288  0.93070364  1
  Te  Te114  1  0.46411664  0.93206601  0.23080307  1
  Te  Te115  1  0.42771163  0.90124205  0.58060087  1
  Te  Te116  1  0.40712176  0.89200108  0.92671535  1
  Te  Te117  1  0.71430211  0.23749685  0.23698145  1
  Te  Te118  1  0.76725434  0.25037504  0.58886814  1
  Te  Te119  1  0.73311459  0.27902513  0.94949668  1
  Te  Te120  1  0.74254267  0.59603155  0.23872977  1
  Te  Te121  1  0.75739360  0.57991753  0.58896923  1
  Te  Te122  1  0.72530578  0.57399311  0.90085691  1
  Te  Te123  1  0.72331268  0.86430511  0.22110201  1
  Te  Te124  1  0.76894898  0.93585964  0.59532972  1
  Te  Te125  1  0.73573888  0.91483131  0.91777902  1
  Te  Te126  1  0.24142591  0.25920874  0.09658944  1
  Te  Te127  1  0.27976674  0.26280473  0.39261189  1
  Te  Te128  1  0.26549172  0.24543278  0.76026775  1
  Te  Te129  1  0.23184331  0.57437366  0.07188020  1
  Te  Te130  1  0.26486695  0.60480389  0.40796638  1
  Te  Te131  1  0.26798391  0.57346075  0.71319909  1
  Te  Te132  1  0.25035714  0.90904754  0.09000766  1
  Te  Te133  1  0.30277939  0.90629314  0.38530255  1
  Te  Te134  1  0.23070083  0.89476783  0.72545368  1
  Te  Te135  1  0.53702922  0.22373925  0.00302446  1
  Te  Te136  1  0.59643264  0.24669554  0.44081678  1
  Te  Te137  1  0.59002656  0.25380993  0.77070002  1
  Te  Te138  1  0.60170476  0.60769599  0.10379339  1
  Te  Te139  1  0.57287346  0.55676983  0.41488308  1
  Te  Te140  1  0.52841455  0.58634237  0.72504027  1
  Te  Te141  1  0.56062388  0.93039561  0.11060202  1
  Te  Te142  1  0.58296150  0.91456369  0.40581995  1
  Te  Te143  1  0.56269261  0.91321880  0.76290106  1
  Te  Te144  1  0.87354013  0.30487210  0.12464617  1
  Te  Te145  1  0.93907672  0.22236721  0.40360158  1
  Te  Te146  1  0.92197413  0.25844068  0.76704423  1
  Te  Te147  1  0.87810036  0.57297605  0.08203489  1
  Te  Te148  1  0.91511942  0.59100384  0.40721529  1
  Te  Te149  1  0.91597556  0.58146570  0.73716843  1
  Te  Te150  1  0.88580260  0.88339133  0.06223720  1
  Te  Te151  1  0.90768887  0.91958303  0.39469682  1
  Te  Te152  1  0.92916228  0.98019242  0.75987308  1
  Te  Te153  1  0.27938898  0.07282002  0.25611501  1
  Te  Te154  1  0.25948276  0.08255284  0.57969354  1
  Te  Te155  1  0.26340916  0.06545227  0.93046845  1
  Te  Te156  1  0.27300482  0.44282117  0.25289923  1
  Te  Te157  1  0.26137592  0.43127955  0.56708729  1
  Te  Te158  1  0.22437699  0.41089246  0.91477375  1
  Te  Te159  1  0.24552429  0.73694513  0.24069352  1
  Te  Te160  1  0.27499666  0.76867302  0.57745020  1
  Te  Te161  1  0.22693464  0.75587287  0.90453141  1
  Te  Te162  1  0.61759027  0.09355361  0.25333218  1
  Te  Te163  1  0.60821510  0.08822571  0.59684658  1
  Te  Te164  1  0.58793201  0.10663522  0.91419219  1
  Te  Te165  1  0.57523330  0.42651409  0.25586947  1
  Te  Te166  1  0.57049657  0.42657940  0.59224942  1
  Te  Te167  1  0.59648199  0.44361420  0.92526650  1
  Te  Te168  1  0.53219959  0.74440389  0.27218988  1
  Te  Te169  1  0.58624232  0.74472763  0.55825726  1
  Te  Te170  1  0.56345276  0.71908672  0.91807610  1
  Te  Te171  1  0.90603477  0.07336329  0.23705140  1
  Te  Te172  1  0.95666914  0.10278404  0.58519609  1
  Te  Te173  1  0.88723224  0.10196790  0.93033259  1
  Te  Te174  1  0.90620972  0.42380412  0.25864699  1
  Te  Te175  1  0.91226064  0.41715795  0.59052145  1
  Te  Te176  1  0.89844336  0.43929936  0.92534099  1
  Te  Te177  1  0.93635513  0.73284077  0.23776471  1
  Te  Te178  1  0.90673434  0.78232709  0.59259811  1
  Te  Te179  1  0.90160371  0.75052251  0.89146411  1
