# generated using pymatgen
data_In2Te3
_symmetry_space_group_name_H-M   'P 1'
_cell_length_a   18.91286856
_cell_length_b   18.89449713
_cell_length_c   18.94562126
_cell_angle_alpha   90.05538092
_cell_angle_beta   90.00098352
_cell_angle_gamma   90.09274801
_symmetry_Int_Tables_number   1
_chemical_formula_structural   In2Te3
_chemical_formula_sum   'In72 Te108'
_cell_volume   6770.18944336
_cell_formula_units_Z   36
loop_
 _symmetry_equiv_pos_site_id
 _symmetry_equiv_pos_as_xyz
  1  'x, y, z'
loop_
 _atom_site_type_symbol
 _atom_site_label
 _atom_site_symmetry_multiplicity
 _atom_site_fract_x
 _atom_site_fract_y
 _atom_site_fract_z
 _atom_site_occupancy
  In  In0  1  0.85403819  0.35923196  0.50363494  1
  In  In1  1  0.48621490  0.16592221  0.68185847  1
  In  In2  1  0.02739347  0.65025153  0.64426418  1
  In  In3  1  0.53493935  0.51840588  0.03411127  1
  In  In4  1  0.00821615  0.18083549  0.17292911  1
  In  In5  1  0.65471626  0.19838121  0.48380493  1
  In  In6  1  0.16493659  0.66445695  0.83138016  1
  In  In7  1  -0.01009220  0.83825739  0.17683891  1
  In  In8  1  0.16026325  0.14109860  0.00748587  1
  In  In9  1  0.51684449  0.67629641  0.83048250  1
  In  In10  1  0.36080016  -0.01688883  0.00958373  1
  In  In11  1  0.65043969  0.84146871  0.52054643  1
  In  In12  1  0.82411414  0.82738314  0.31173239  1
  In  In13  1  -0.00473334  0.49344088  0.16540688  1
  In  In14  1  0.04064535  0.79046118  0.49888330  1
  In  In15  1  0.34081400  0.80836711  0.17454789  1
  In  In16  1  0.67758185  0.65165424  0.32984296  1
  In  In17  1  0.14656565  0.19484956  0.68202340  1
  In  In18  1  0.15199924  0.81353290  -0.00575195  1
  In  In19  1  -0.00551693  0.00235249  0.32500579  1
  In  In20  1  0.17627693  0.67024505  0.16678938  1
  In  In21  1  0.34194812  0.80898556  0.50287360  1
  In  In22  1  0.17994610  -0.01193820  0.83414683  1
  In  In23  1  0.83225276  0.01697721  0.14089585  1
  In  In24  1  0.35519841  0.36226915  0.36270061  1
  In  In25  1  0.33382227  0.34809606  0.62484314  1
  In  In26  1  0.66432205  0.67616218  0.67761321  1
  In  In27  1  0.85448658  0.52128839  0.32594531  1
  In  In28  1  0.82401603  -0.02473110  0.87137655  1
  In  In29  1  0.79245832  0.20090654  0.32611456  1
  In  In30  1  0.50456273  0.33284891  0.16348344  1
  In  In31  1  0.63190910  0.37836070  0.33502291  1
  In  In32  1  0.50249085  0.82158055  -0.00421888  1
  In  In33  1  -0.01252600  0.32625269  -0.01084530  1
  In  In34  1  0.32672516  0.01929133  0.67971579  1
  In  In35  1  0.17626464  -0.04317441  0.49583256  1
  In  In36  1  0.81768533  0.16541678  0.63850471  1
  In  In37  1  0.31907273  0.64477129  0.65228194  1
  In  In38  1  0.16646954  0.35624357  0.46974300  1
  In  In39  1  0.64458208  0.16126001  0.84747130  1
  In  In40  1  0.51195926  0.00986316  0.50242880  1
  In  In41  1  0.00070121  0.16936471  0.49282159  1
  In  In42  1  0.31839934  0.32642675  0.00205473  1
  In  In43  1  0.18007153  0.17633703  0.31575176  1
  In  In44  1  0.83034844  0.33615001  0.81727184  1
  In  In45  1  0.38822787  0.50278376  0.21937499  1
  In  In46  1  0.84055685  -0.00707375  0.51124544  1
  In  In47  1  0.67557382  0.17327761  0.15436294  1
  In  In48  1  0.49449785  0.34266664  0.83493650  1
  In  In49  1  0.83775730  0.66677380  0.16985477  1
  In  In50  1  0.34497129  0.16554144  0.15414697  1
  In  In51  1  0.50048201  -0.01252977  0.17463337  1
  In  In52  1  0.50859656  0.82974681  0.67779954  1
  In  In53  1  0.80036359  0.46936345  0.02150217  1
  In  In54  1  0.85145566  0.49829317  0.66791763  1
  In  In55  1  0.66516375  -0.00021875  0.70349260  1
  In  In56  1  0.32674839  0.66572527  0.00167883  1
  In  In57  1  0.34877601  0.13968357  0.50960234  1
  In  In58  1  0.82050140  0.17187604  -0.00384566  1
  In  In59  1  0.64823467  -0.00698579  0.34430304  1
  In  In60  1  0.64919301  0.76295501  0.13862066  1
  In  In61  1  0.16297862  -0.00007281  0.17088404  1
  In  In62  1  0.33637391  0.51559468  0.82157738  1
  In  In63  1  0.83764369  0.65950258  0.83727450  1
  In  In64  1  0.64771455  0.49762893  0.51762272  1
  In  In65  1  -0.01143592  0.19233030  0.82595717  1
  In  In66  1  0.15235059  0.50223773  -0.01114915  1
  In  In67  1  0.67123831  0.52024083  0.83192603  1
  In  In68  1  0.85765828  0.66418322  0.48625655  1
  In  In69  1  0.20332251  0.52341977  0.34667711  1
  In  In70  1  -0.01183319  0.83146567  0.82341096  1
  In  In71  1  0.34550535  0.17025128  0.80671291  1
  Te  Te72  1  0.05494627  0.06461286  0.08667980  1
  Te  Te73  1  0.09529101  0.08020564  0.41059117  1
  Te  Te74  1  0.08484202  0.08537429  0.76407309  1
  Te  Te75  1  0.08356686  0.40235418  0.08002177  1
  Te  Te76  1  0.08067138  0.44857240  0.39299037  1
  Te  Te77  1  0.04143142  0.32594712  0.77616635  1
  Te  Te78  1  0.06341554  0.73646567  0.08862431  1
  Te  Te79  1  0.13391491  0.73407115  0.40032054  1
  Te  Te80  1  0.08934251  0.75521170  0.73763788  1
  Te  Te81  1  0.44786506  0.09025379  0.07312905  1
  Te  Te82  1  0.43349891  0.08502055  0.40434695  1
  Te  Te83  1  0.44988836  0.05255088  0.78026774  1
  Te  Te84  1  0.41469674  0.42271657  0.07045355  1
  Te  Te85  1  0.43506360  0.45574301  0.44848595  1
  Te  Te86  1  0.41708195  0.42253850  0.73272515  1
  Te  Te87  1  0.43357904  0.72303605  0.09209484  1
  Te  Te88  1  0.38318109  0.69310721  0.41714854  1
  Te  Te89  1  0.40871243  0.73532045  0.74288238  1
  Te  Te90  1  0.72153042  0.06961171  0.05102437  1
  Te  Te91  1  0.74911037  0.08195090  0.42730091  1
  Te  Te92  1  0.76449825  0.09956313  0.76513721  1
  Te  Te93  1  0.70446703  0.38350360  0.09422545  1
  Te  Te94  1  0.75325376  0.43496587  0.41610638  1
  Te  Te95  1  0.73681624  0.42370494  0.73444046  1
  Te  Te96  1  0.78756683  0.77895475  0.08624099  1
  Te  Te97  1  0.74902886  0.76393676  0.43042402  1
  Te  Te98  1  0.75843425  0.75536653  0.75613379  1
  Te  Te99  1  0.07995879  0.26918016  0.26455043  1
  Te  Te100  1  0.08329649  0.27206727  0.56812105  1
  Te  Te101  1  0.10326851  0.25037453  0.91876786  1
  Te  Te102  1  0.09125302  0.57551413  0.24949214  1
  Te  Te103  1  0.11565852  0.54394322  0.59193103  1
  Te  Te104  1  0.06878448  0.60266194  0.92398874  1
  Te  Te105  1  0.09496409  0.90415302  0.26683620  1
  Te  Te106  1  0.06690458  0.91145863  0.57900174  1
  Te  Te107  1  0.07671268  0.92087009  0.92185061  1
  Te  Te108  1  0.40733088  0.26040330  0.25410372  1
  Te  Te109  1  0.43755968  0.25223838  0.56626451  1
  Te  Te110  1  0.41746143  0.24448168  0.92065944  1
  Te  Te111  1  0.39535074  0.63840546  0.27146687  1
  Te  Te112  1  0.39008327  0.54887167  0.56581026  1
  Te  Te113  1  0.43081233  0.58159375  0.92280590  1
  Te  Te114  1  0.41107762  0.90624308  0.25802639  1
  Te  Te115  1  0.42367551  0.92762156  0.59713038  1
  Te  Te116  1  0.41158572  0.89410718  0.90552994  1
  Te  Te117  1  0.72833016  0.30295084  0.23089325  1
  Te  Te118  1  0.74131017  0.28100747  0.57537011  1
  Te  Te119  1  0.73709842  0.26652670  0.91342131  1
  Te  Te120  1  0.74185979  0.56125244  0.22692310  1
  Te  Te121  1  0.76085376  0.59304833  0.58266100  1
  Te  Te122  1  0.74719228  0.58938201  0.94120205  1
  Te  Te123  1  0.74745261  0.93741906  0.24400521  1
  Te  Te124  1  0.75101555  0.91550800  0.60644346  1
  Te  Te125  1  0.71149988  0.88181842  0.89432499  1
  Te  Te126  1  0.22997223  0.24520045  0.09589523  1
  Te  Te127  1  0.26460442  0.24597002  0.42401086  1
  Te  Te128  1  0.26003087  0.27693485  0.73974164  1
  Te  Te129  1  0.25260665  0.56555970  0.08635139  1
  Te  Te130  1  0.23753068  0.63035437  0.44833325  1
  Te  Te131  1  0.21570014  0.55502098  0.73910678  1
  Te  Te132  1  0.24487314  0.90713659  0.08067710  1
  Te  Te133  1  0.29285099  0.92046015  0.41842052  1
  Te  Te134  1  0.24971325  0.90801411  0.73414679  1
  Te  Te135  1  0.59221382  0.26134268  0.06602976  1
  Te  Te136  1  0.56584462  0.25585427  0.38388171  1
  Te  Te137  1  0.58645578  0.26102328  0.74538745  1
  Te  Te138  1  0.61587888  0.61348616  0.10959295  1
  Te  Te139  1  0.58147129  0.58897815  0.42279280  1
  Te  Te140  1  0.56824560  0.57134138  0.73199896  1
  Te  Te141  1  0.59009987  0.90089463  0.09081653  1
  Te  Te142  1  0.55614259  0.89242570  0.41300815  1
  Te  Te143  1  0.60237121  0.88742159  0.78178916  1
  Te  Te144  1  0.90183570  0.25605057  0.09305175  1
  Te  Te145  1  0.91178849  0.25710866  0.40688828  1
  Te  Te146  1  0.91359704  0.26933970  0.70633110  1
  Te  Te147  1  0.90544456  0.57146489  0.07303731  1
  Te  Te148  1  0.95397066  0.57195284  0.42487501  1
  Te  Te149  1  0.94205241  0.58353173  0.75300108  1
  Te  Te150  1  0.90254863  0.90400962  0.07522712  1
  Te  Te151  1  0.91655480  0.90572268  0.41281303  1
  Te  Te152  1  0.90165620  0.93019646  0.75651821  1
  Te  Te153  1  0.26972850  0.07276523  0.24964728  1
  Te  Te154  1  0.22813254  0.09333009  0.59058124  1
  Te  Te155  1  0.27199301  0.08594164  0.91971946  1
  Te  Te156  1  0.26679298  0.41754642  0.25206385  1
  Te  Te157  1  0.23936293  0.45117310  0.56397559  1
  Te  Te158  1  0.24899261  0.42003922  0.90480263  1
  Te  Te159  1  0.23846831  0.75686824  0.27101573  1
  Te  Te160  1  0.23407769  0.74535756  0.58333383  1
  Te  Te161  1  0.26140479  0.75922703  0.90368437  1
  Te  Te162  1  0.58581223  0.09395560  0.24839303  1
  Te  Te163  1  0.60068319  0.09342762  0.59507169  1
  Te  Te164  1  0.54970119  0.06320601  0.89570813  1
  Te  Te165  1  0.53415355  0.45499232  0.24999033  1
  Te  Te166  1  0.54349877  0.39694913  0.54300051  1
  Te  Te167  1  0.58532400  0.43043137  0.92042068  1
  Te  Te168  1  0.59081033  0.75540957  0.27256216  1
  Te  Te169  1  0.56282587  0.73023169  0.57604365  1
  Te  Te170  1  0.61004443  0.74536273  0.92281799  1
  Te  Te171  1  0.89732459  0.09837921  0.25816813  1
  Te  Te172  1  0.93550665  0.07797743  0.59497411  1
  Te  Te173  1  0.91907449  0.09030595  0.91814406  1
  Te  Te174  1  0.90430646  0.40993627  0.24519847  1
  Te  Te175  1  0.95306641  0.44097841  0.57701114  1
  Te  Te176  1  0.90389181  0.42762825  0.91331910  1
  Te  Te177  1  0.93304720  0.73135171  0.27084825  1
  Te  Te178  1  0.92291247  0.75212294  0.58981463  1
  Te  Te179  1  0.92538853  0.74287293  0.92203799  1
