# generated using pymatgen
data_In2Te3
_symmetry_space_group_name_H-M   'P 1'
_cell_length_a   18.77326859
_cell_length_b   18.76899642
_cell_length_c   18.76997891
_cell_angle_alpha   90.02157681
_cell_angle_beta   90.08908616
_cell_angle_gamma   89.89709488
_symmetry_Int_Tables_number   1
_chemical_formula_structural   In2Te3
_chemical_formula_sum   'In72 Te108'
_cell_volume   6613.68450737
_cell_formula_units_Z   36
loop_
 _symmetry_equiv_pos_site_id
 _symmetry_equiv_pos_as_xyz
  1  'x, y, z'
loop_
 _atom_site_type_symbol
 _atom_site_label
 _atom_site_symmetry_multiplicity
 _atom_site_fract_x
 _atom_site_fract_y
 _atom_site_fract_z
 _atom_site_occupancy
  In  In0  1  0.16907434  0.15026400  0.36967402  1
  In  In1  1  0.00210827  0.49821798  0.17172157  1
  In  In2  1  0.32157619  0.16091466  0.82392158  1
  In  In3  1  0.16462267  0.83043486  -0.00562901  1
  In  In4  1  0.65389070  0.32758825  0.68660831  1
  In  In5  1  0.18515578  0.62688403  0.82019951  1
  In  In6  1  0.50896130  -0.00416821  0.16500818  1
  In  In7  1  0.01252443  0.34609816  0.33194084  1
  In  In8  1  -0.00639324  0.14954192  0.16207775  1
  In  In9  1  0.82443904  0.67996328  0.83505298  1
  In  In10  1  0.49926647  0.13839655  0.36083943  1
  In  In11  1  0.64204797  0.84127502  0.50013054  1
  In  In12  1  0.66861223  0.52257387  0.16082819  1
  In  In13  1  0.69993608  0.14156143  0.13065948  1
  In  In14  1  0.03602371  0.17975405  0.84135539  1
  In  In15  1  0.82622965  0.16676757  0.68104724  1
  In  In16  1  0.17628975  0.32787049  0.15670241  1
  In  In17  1  0.32355444  0.32230981  0.01144105  1
  In  In18  1  0.63622394  0.15760043  0.80981864  1
  In  In19  1  0.15453715  0.49575970  0.35235093  1
  In  In20  1  0.33338768  0.51330746  0.16997358  1
  In  In21  1  0.65869268  0.33216938  0.00190575  1
  In  In22  1  0.00032332  0.67795311  0.65095168  1
  In  In23  1  0.81178287  -0.00867886  0.84974086  1
  In  In24  1  0.33966642  0.31489448  0.65263988  1
  In  In25  1  -0.00407266  0.48617075  0.82220588  1
  In  In26  1  0.48795908  0.50152294  0.35227967  1
  In  In27  1  0.32395502  0.19025917  0.15409175  1
  In  In28  1  0.83789259  0.00104526  0.49650357  1
  In  In29  1  0.18550138  0.66908553  0.50151917  1
  In  In30  1  0.49565217  0.68550849  0.83146299  1
  In  In31  1  0.83227404  0.15005941  0.00719530  1
  In  In32  1  0.82259067  0.66054946  0.17504784  1
  In  In33  1  0.49917789  -0.00844936  0.81592006  1
  In  In34  1  0.48350359  0.52066479  0.64386862  1
  In  In35  1  0.51011839  0.82176619  0.33408142  1
  In  In36  1  0.66539829  -0.02328829  0.34588019  1
  In  In37  1  0.84181151  0.66919227  0.48830965  1
  In  In38  1  0.34303285  0.01596727  0.37071555  1
  In  In39  1  0.66145899  0.68774422  0.65434444  1
  In  In40  1  0.65393799  0.67407761  -0.01095565  1
  In  In41  1  -0.00220307  0.82750104  0.82936229  1
  In  In42  1  0.17525408  0.84674758  0.63797940  1
  In  In43  1  0.18224551  0.85317565  0.34366718  1
  In  In44  1  -0.00571867  0.68730758  0.00666351  1
  In  In45  1  0.34801329  0.67770729  0.34493268  1
  In  In46  1  0.49281767  0.15483833  -0.02189319  1
  In  In47  1  0.48452302  0.34554872  0.16412072  1
  In  In48  1  0.17883955  0.48922567  0.66838134  1
  In  In49  1  0.84259110  0.33894144  0.51459376  1
  In  In50  1  0.00030347  0.65704452  0.34216450  1
  In  In51  1  0.85118516  0.33079493  0.16479301  1
  In  In52  1  0.65607166  0.83594516  0.17294258  1
  In  In53  1  0.66256685  0.31901743  0.35759119  1
  In  In54  1  0.83180655  0.83045869  0.35363359  1
  In  In55  1  0.61913253  0.13754421  0.53311788  1
  In  In56  1  0.34919366  0.68153975  0.00199672  1
  In  In57  1  0.15820985  0.01057789  0.83625784  1
  In  In58  1  0.34017466  0.82002957  0.16316813  1
  In  In59  1  0.35380507  0.84521915  0.80988166  1
  In  In60  1  0.82955489  0.34087732  0.83798150  1
  In  In61  1  0.67125757  0.48984131  0.83909030  1
  In  In62  1  0.16921382  -0.00382085  0.15834933  1
  In  In63  1  0.84386366  0.15942199  0.33234307  1
  In  In64  1  0.19013079  0.49288109  -0.00339822  1
  In  In65  1  0.81868367  0.80506185  0.66285181  1
  In  In66  1  -0.01204234  0.86900714  0.15066433  1
  In  In67  1  0.32437841  0.49675152  0.81927261  1
  In  In68  1  0.66071664  0.51728428  0.50135202  1
  In  In69  1  0.02761867  0.31104175  0.62959868  1
  In  In70  1  0.32997357  0.31987325  0.37245353  1
  In  In71  1  0.01545289  0.00579420  0.67311044  1
  Te  Te72  1  0.07698820  0.07003486  0.06918040  1
  Te  Te73  1  0.08406136  0.07438331  0.46439007  1
  Te  Te74  1  0.11436230  0.11045742  0.72586049  1
  Te  Te75  1  0.08193172  0.41378836  0.07245804  1
  Te  Te76  1  0.09020396  0.40211410  0.44534351  1
  Te  Te77  1  0.09052665  0.39372487  0.74698829  1
  Te  Te78  1  0.08651324  0.75950940  0.10449246  1
  Te  Te79  1  0.08950539  0.75508832  0.41921876  1
  Te  Te80  1  0.09905570  0.75118518  0.74455166  1
  Te  Te81  1  0.40988208  0.08346992  0.08431620  1
  Te  Te82  1  0.38940235  0.12040910  0.47302082  1
  Te  Te83  1  0.41714150  0.08784730  0.72980404  1
  Te  Te84  1  0.41377607  0.43567469  0.06424619  1
  Te  Te85  1  0.41301096  0.41638789  0.44858838  1
  Te  Te86  1  0.42335239  0.41470711  0.73732624  1
  Te  Te87  1  0.44660115  0.75624864  0.08343297  1
  Te  Te88  1  0.41135170  0.77650697  0.43485591  1
  Te  Te89  1  0.44419183  0.76957614  0.71773960  1
  Te  Te90  1  0.77020363  0.01679647  0.06451055  1
  Te  Te91  1  0.73326209  0.09756449  0.42114976  1
  Te  Te92  1  0.73241058  0.06150558  0.73820871  1
  Te  Te93  1  0.75405368  0.41759090  0.08358022  1
  Te  Te94  1  0.75299600  0.42249761  0.42084258  1
  Te  Te95  1  0.76118368  0.42704658  0.73159796  1
  Te  Te96  1  0.74970673  0.75421360  0.08103225  1
  Te  Te97  1  0.72649214  0.74260476  0.41704471  1
  Te  Te98  1  0.71792384  0.77034915  0.77227395  1
  Te  Te99  1  0.09399593  0.23907699  0.25409407  1
  Te  Te100  1  0.09837356  0.20555661  0.54779433  1
  Te  Te101  1  0.11227320  0.26438485  0.93236688  1
  Te  Te102  1  0.09977165  0.58876058  0.24505735  1
  Te  Te103  1  0.08895985  0.57819609  0.57896783  1
  Te  Te104  1  0.07751765  0.58698212  0.92196016  1
  Te  Te105  1  0.07896391  0.93061654  0.26233367  1
  Te  Te106  1  0.07886334  0.93082434  0.55935735  1
  Te  Te107  1  0.06665113  0.92493284  0.92434836  1
  Te  Te108  1  0.42019927  0.24435301  0.26409643  1
  Te  Te109  1  0.43650202  0.23384389  0.57124286  1
  Te  Te110  1  0.41461257  0.26032341  0.90447206  1
  Te  Te111  1  0.43342814  0.59909104  0.24372435  1
  Te  Te112  1  0.38046232  0.60872500  0.58344945  1
  Te  Te113  1  0.41703061  0.57995668  0.90972091  1
  Te  Te114  1  0.40726347  0.92469668  0.25814078  1
  Te  Te115  1  0.39871226  0.96496572  0.61889769  1
  Te  Te116  1  0.41700089  0.92254813  0.91838507  1
  Te  Te117  1  0.74653450  0.25126052  0.24409790  1
  Te  Te118  1  0.73820061  0.24249042  0.58060018  1
  Te  Te119  1  0.74014658  0.23473245  0.90744969  1
  Te  Te120  1  0.74515266  0.58151347  0.27189043  1
  Te  Te121  1  0.76122374  0.59065717  0.59254335  1
  Te  Te122  1  0.75961448  0.57731817  0.92659871  1
  Te  Te123  1  0.76404725  0.91803934  0.24772136  1
  Te  Te124  1  0.74589718  0.91520923  0.58360988  1
  Te  Te125  1  0.72919303  0.91766553  0.94587171  1
  Te  Te126  1  0.20971800  0.21771159  0.04781193  1
  Te  Te127  1  0.22851266  0.25335809  0.46388025  1
  Te  Te128  1  0.23618807  0.23862084  0.72831850  1
  Te  Te129  1  0.24442415  0.60478528  0.08463073  1
  Te  Te130  1  0.26946405  0.56831644  0.41990888  1
  Te  Te131  1  0.29078661  0.60399451  0.70712280  1
  Te  Te132  1  0.26575721  0.91651357  0.06998907  1
  Te  Te133  1  0.26075726  0.92175039  0.45395799  1
  Te  Te134  1  0.24976854  0.93327269  0.73943435  1
  Te  Te135  1  0.57112569  0.24091231  0.09134429  1
  Te  Te136  1  0.55755290  0.25619796  0.44600217  1
  Te  Te137  1  0.54302591  0.23362834  0.72125895  1
  Te  Te138  1  0.57104327  0.57918948  0.06734003  1
  Te  Te139  1  0.56390875  0.60225370  0.42965916  1
  Te  Te140  1  0.58725583  0.58271638  0.74804075  1
  Te  Te141  1  0.58442191  0.91438459  0.06728338  1
  Te  Te142  1  0.54660908  0.94133545  0.43216757  1
  Te  Te143  1  0.58855547  0.92249346  0.72072897  1
  Te  Te144  1  0.93293266  0.25241424  0.06437296  1
  Te  Te145  1  0.92694518  0.25070922  0.41908854  1
  Te  Te146  1  0.92704260  0.25848291  0.74918780  1
  Te  Te147  1  0.91252466  0.58058914  0.07917795  1
  Te  Te148  1  0.92948505  0.56463497  0.43148163  1
  Te  Te149  1  0.91539744  0.59432158  0.74625758  1
  Te  Te150  1  0.90744945  0.94086922  0.05176020  1
  Te  Te151  1  0.92968278  0.92596397  0.40903666  1
  Te  Te152  1  0.90781155  0.91400716  0.73983021  1
  Te  Te153  1  0.25762033  0.08681208  0.25469764  1
  Te  Te154  1  0.27835447  0.03435580  0.56635634  1
  Te  Te155  1  0.26571966  0.06546990  0.92217667  1
  Te  Te156  1  0.26268258  0.40729491  0.25619173  1
  Te  Te157  1  0.26142050  0.41426942  0.57139360  1
  Te  Te158  1  0.24148043  0.39242258  0.89532384  1
  Te  Te159  1  0.24373619  0.74554384  0.25423853  1
  Te  Te160  1  0.28016593  0.75717842  0.57876261  1
  Te  Te161  1  0.25280551  0.75087213  0.89637669  1
  Te  Te162  1  0.60001339  0.08608290  0.24936671  1
  Te  Te163  1  0.55067991  0.02548398  0.61492013  1
  Te  Te164  1  0.59900298  0.06365211  0.92356675  1
  Te  Te165  1  0.58444074  0.41191444  0.25926641  1
  Te  Te166  1  0.58052052  0.41779391  0.58444756  1
  Te  Te167  1  0.57391535  0.39914057  0.90189897  1
  Te  Te168  1  0.59178634  0.72977334  0.25328665  1
  Te  Te169  1  0.54934327  0.76257274  0.58843490  1
  Te  Te170  1  0.58225909  0.77758768  0.90851160  1
  Te  Te171  1  0.91273418  0.06059275  0.24857326  1
  Te  Te172  1  0.92012343  0.09367517  0.58631253  1
  Te  Te173  1  0.91970789  0.09131350  0.89395465  1
  Te  Te174  1  0.90298893  0.43205595  0.26676176  1
  Te  Te175  1  0.93144411  0.41921743  0.59990404  1
  Te  Te176  1  0.91644743  0.42003564  0.92666484  1
  Te  Te177  1  0.92400552  0.75420002  0.24664245  1
  Te  Te178  1  0.92785297  0.77529580  0.56024829  1
  Te  Te179  1  0.89624577  0.77632004  0.93067794  1
