# generated using pymatgen
data_In2Te3
_symmetry_space_group_name_H-M   'P 1'
_cell_length_a   18.78116218
_cell_length_b   18.78017983
_cell_length_c   18.78854757
_cell_angle_alpha   89.89265998
_cell_angle_beta   90.04492972
_cell_angle_gamma   89.91406747
_symmetry_Int_Tables_number   1
_chemical_formula_structural   In2Te3
_chemical_formula_sum   'In72 Te108'
_cell_volume   6626.95517721
_cell_formula_units_Z   36
loop_
 _symmetry_equiv_pos_site_id
 _symmetry_equiv_pos_as_xyz
  1  'x, y, z'
loop_
 _atom_site_type_symbol
 _atom_site_label
 _atom_site_symmetry_multiplicity
 _atom_site_fract_x
 _atom_site_fract_y
 _atom_site_fract_z
 _atom_site_occupancy
  In  In0  1  0.15806679  0.82458924  0.00329506  1
  In  In1  1  0.64882887  0.83690296  0.82647093  1
  In  In2  1  0.35236812  0.85080187  0.49606381  1
  In  In3  1  0.14972963  0.48823355  0.32785915  1
  In  In4  1  0.01925983  0.81985690  0.50734455  1
  In  In5  1  0.32660406  0.32046992  0.70868201  1
  In  In6  1  0.68128582  0.65032844  -0.01752892  1
  In  In7  1  0.83983145  0.65676424  0.18186637  1
  In  In8  1  0.36180477  0.83365456  0.84823284  1
  In  In9  1  0.49126855  0.51315799  0.30376207  1
  In  In10  1  0.32839567  0.16741860  0.18424623  1
  In  In11  1  -0.01573989  -0.00079940  0.69045117  1
  In  In12  1  0.34264652  0.34438036  -0.01817506  1
  In  In13  1  0.32548909  0.65681394  0.68224865  1
  In  In14  1  0.84230826  0.85479570  -0.00122176  1
  In  In15  1  0.14772599  0.63446293  0.84376756  1
  In  In16  1  0.85503994  0.31454524  0.13457277  1
  In  In17  1  0.14290403  0.34551555  0.50754809  1
  In  In18  1  0.49511858  0.33060437  0.83513804  1
  In  In19  1  0.32244554  -0.00000556  -0.00758423  1
  In  In20  1  0.65661649  0.66577501  0.65072330  1
  In  In21  1  0.48112317  0.66762180  0.14302260  1
  In  In22  1  0.67380910  0.00454983  0.67366051  1
  In  In23  1  0.14389479  0.66407797  0.49557154  1
  In  In24  1  0.16149280  0.16252579  0.31585387  1
  In  In25  1  0.49729709  0.65407496  0.82162083  1
  In  In26  1  0.49457735  0.86176463  0.00683527  1
  In  In27  1  0.01338585  0.65248017  0.00191077  1
  In  In28  1  0.66501902  0.49206451  0.51752251  1
  In  In29  1  0.49813033  0.67572853  0.51155549  1
  In  In30  1  -0.00251172  -0.00612931  0.30372212  1
  In  In31  1  0.84517670  0.34055387  0.86191462  1
  In  In32  1  0.49295022  0.50235971  -0.00331177  1
  In  In33  1  0.82960788  0.64601835  0.83728603  1
  In  In34  1  0.84886628  0.32999537  0.51176337  1
  In  In35  1  0.17027790  -0.00619212  0.84950742  1
  In  In36  1  0.48038592  0.16147563  0.70402807  1
  In  In37  1  0.85735665  0.53713220  0.34822960  1
  In  In38  1  0.82460137  0.48266282  0.66514300  1
  In  In39  1  0.20005566  0.02885896  0.52291802  1
  In  In40  1  0.00415413  0.86445284  0.83921422  1
  In  In41  1  0.69212206  0.16635343  0.50168065  1
  In  In42  1  -0.00682290  0.50192917  0.15979640  1
  In  In43  1  0.84467893  0.18921928  0.68274429  1
  In  In44  1  0.32683931  0.34262236  0.33074673  1
  In  In45  1  0.53020309  0.16094192  -0.03643801  1
  In  In46  1  0.66168370  0.84134760  0.16618490  1
  In  In47  1  0.49761713  0.84458411  0.34992651  1
  In  In48  1  0.17470869  0.48156517  -0.00498467  1
  In  In49  1  -0.01466530  0.18337900  0.86112224  1
  In  In50  1  0.83025078  0.02008342  0.14401019  1
  In  In51  1  0.17471863  0.83329359  0.68024408  1
  In  In52  1  0.15499247  0.32300579  0.16269721  1
  In  In53  1  0.52593820  -0.02307747  0.51391653  1
  In  In54  1  0.66778902  0.34971868  0.31523749  1
  In  In55  1  0.49328798  0.00125652  0.17377899  1
  In  In56  1  0.52353889  0.35605345  0.52069808  1
  In  In57  1  0.01221562  0.33045580  0.33775923  1
  In  In58  1  -0.00669124  0.65406917  0.64872049  1
  In  In59  1  0.17935054  0.80245351  0.30823959  1
  In  In60  1  0.65971112  0.16721215  0.15456261  1
  In  In61  1  0.67927228  0.32763011  -0.00059555  1
  In  In62  1  0.49916995  0.16909241  0.31917906  1
  In  In63  1  0.33214269  0.15531374  0.51563534  1
  In  In64  1  0.81300299  -0.00722166  0.49718258  1
  In  In65  1  0.01567799  0.18549842  0.51074471  1
  In  In66  1  0.84029739  0.81499333  0.32906958  1
  In  In67  1  0.30542281  0.00328991  0.32363348  1
  In  In68  1  0.32857864  0.65105763  0.00359890  1
  In  In69  1  0.84342058  0.01303691  0.82442326  1
  In  In70  1  0.68282242  0.66769386  0.33272041  1
  In  In71  1  0.32469743  0.51582518  0.51513351  1
  Te  Te72  1  0.05369891  0.14575493  0.05042387  1
  Te  Te73  1  0.08714654  0.08169021  0.42260084  1
  Te  Te74  1  0.07230765  0.08670862  0.77335827  1
  Te  Te75  1  0.05776275  0.39659002  0.06819222  1
  Te  Te76  1  0.04936560  0.44316611  0.43506348  1
  Te  Te77  1  0.13039592  0.45298691  0.71386034  1
  Te  Te78  1  0.08415789  0.73796393  0.09985560  1
  Te  Te79  1  0.05318112  0.72770501  0.38751868  1
  Te  Te80  1  0.07478192  0.74673797  0.75655534  1
  Te  Te81  1  0.41945240  0.09564109  0.08184183  1
  Te  Te82  1  0.41319208  0.07576692  0.40636473  1
  Te  Te83  1  0.40468128  0.04819942  0.75513177  1
  Te  Te84  1  0.39792707  0.43321983  0.08596697  1
  Te  Te85  1  0.41900655  0.42472296  0.42087805  1
  Te  Te86  1  0.41837232  0.42655455  0.75165909  1
  Te  Te87  1  0.39161656  0.77273029  0.07567909  1
  Te  Te88  1  0.40425463  0.73701257  0.40804681  1
  Te  Te89  1  0.42852561  0.75892992  0.73252004  1
  Te  Te90  1  0.74520153  0.10352716  0.04904981  1
  Te  Te91  1  0.76220385  0.08982302  0.39840521  1
  Te  Te92  1  0.74141012  0.10907060  0.76250918  1
  Te  Te93  1  0.76248890  0.41664428  0.08279683  1
  Te  Te94  1  0.76009952  0.42013181  0.41794516  1
  Te  Te95  1  0.75141727  0.39758879  0.76165438  1
  Te  Te96  1  0.75116404  0.75039176  0.08045631  1
  Te  Te97  1  0.75732971  0.74665880  0.43013391  1
  Te  Te98  1  0.74468360  0.74197728  0.75423087  1
  Te  Te99  1  0.05343528  0.22795434  0.22933441  1
  Te  Te100  1  0.09990147  0.25008739  0.61531262  1
  Te  Te101  1  0.09221149  0.24379970  0.94529548  1
  Te  Te102  1  0.08371825  0.58662655  0.23921227  1
  Te  Te103  1  0.10853421  0.56128027  0.60699284  1
  Te  Te104  1  0.04759569  0.53411468  0.90315223  1
  Te  Te105  1  0.10155301  0.90958609  0.23976189  1
  Te  Te106  1  0.09006413  0.93200322  0.59884799  1
  Te  Te107  1  0.06890782  0.93957182  0.95315632  1
  Te  Te108  1  0.42587012  0.27426738  0.23652179  1
  Te  Te109  1  0.42379501  0.25792430  0.58571366  1
  Te  Te110  1  0.40608417  0.22578665  0.90423581  1
  Te  Te111  1  0.38483730  0.59815957  0.23798202  1
  Te  Te112  1  0.43151638  0.57512469  0.60557679  1
  Te  Te113  1  0.39538851  0.56779808  0.89602547  1
  Te  Te114  1  0.39975483  0.90758327  0.24961754  1
  Te  Te115  1  0.40364810  0.94957823  0.59346908  1
  Te  Te116  1  0.43901907  0.95794570  0.89830282  1
  Te  Te117  1  0.75629197  0.25159997  0.23861954  1
  Te  Te118  1  0.74074960  0.27013885  0.60150800  1
  Te  Te119  1  0.76967462  0.22821887  0.93173105  1
  Te  Te120  1  0.74266573  0.55827441  0.24646065  1
  Te  Te121  1  0.76617722  0.59113363  0.57170914  1
  Te  Te122  1  0.75794565  0.54349835  0.91588381  1
  Te  Te123  1  0.76143897  0.91879926  0.24722431  1
  Te  Te124  1  0.73875162  0.90382999  0.58700117  1
  Te  Te125  1  0.74005904  0.92834588  0.91112390  1
  Te  Te126  1  0.25731890  0.25043474  0.07847309  1
  Te  Te127  1  0.24102214  0.24784323  0.41568890  1
  Te  Te128  1  0.21891033  0.22641553  0.74190449  1
  Te  Te129  1  0.21358269  0.59666402  0.07975546  1
  Te  Te130  1  0.24184324  0.58368692  0.40859311  1
  Te  Te131  1  0.24110475  0.55274187  0.75557215  1
  Te  Te132  1  0.25383562  0.90614300  0.08383698  1
  Te  Te133  1  0.22878527  0.90585127  0.42292339  1
  Te  Te134  1  0.27094364  0.92309236  0.75541165  1
  Te  Te135  1  0.56471964  0.25768965  0.07548625  1
  Te  Te136  1  0.58327772  0.25628960  0.41404334  1
  Te  Te137  1  0.58907163  0.23771674  0.76657251  1
  Te  Te138  1  0.59180980  0.58001003  0.08584947  1
  Te  Te139  1  0.58041322  0.57686060  0.41751973  1
  Te  Te140  1  0.60455509  0.57686797  0.75732364  1
  Te  Te141  1  0.60070670  0.94825907  0.07474164  1
  Te  Te142  1  0.61026061  0.91743129  0.40958125  1
  Te  Te143  1  0.56719199  0.92807612  0.74375931  1
  Te  Te144  1  0.91874808  0.21476118  0.03586277  1
  Te  Te145  1  0.91296313  0.23697279  0.40963777  1
  Te  Te146  1  0.94262694  0.28076582  0.74876504  1
  Te  Te147  1  0.89688323  0.57573060  0.06597835  1
  Te  Te148  1  0.94627765  0.62010272  0.42834928  1
  Te  Te149  1  0.92431145  0.56421325  0.75124168  1
  Te  Te150  1  0.92837581  0.91464635  0.10206219  1
  Te  Te151  1  0.93245007  0.91785759  0.42235974  1
  Te  Te152  1  0.88919458  0.89223841  0.74115073  1
  Te  Te153  1  0.21798070  0.06503266  0.21252447  1
  Te  Te154  1  0.24787841  0.11455181  0.63625278  1
  Te  Te155  1  0.24420229  0.10225044  0.91839238  1
  Te  Te156  1  0.24918901  0.42478019  0.22832688  1
  Te  Te157  1  0.26276834  0.39815553  0.58700651  1
  Te  Te158  1  0.23455521  0.39497050  0.89169466  1
  Te  Te159  1  0.27928773  0.71662778  0.24764261  1
  Te  Te160  1  0.25184466  0.74776943  0.57811433  1
  Te  Te161  1  0.24351442  0.74756889  0.89656872  1
  Te  Te162  1  0.59885109  0.07089894  0.25977571  1
  Te  Te163  1  0.57759002  0.10352368  0.58100783  1
  Te  Te164  1  0.61546786  0.04912646  0.92492460  1
  Te  Te165  1  0.57157566  0.41762965  0.22587351  1
  Te  Te166  1  0.59073008  0.42939160  0.62959613  1
  Te  Te167  1  0.59027170  0.42061960  0.91374609  1
  Te  Te168  1  0.57449062  0.74271006  0.24737838  1
  Te  Te169  1  0.58140307  0.77445006  0.58061728  1
  Te  Te170  1  0.56695816  0.74683980  0.93262081  1
  Te  Te171  1  0.91214183  0.09693914  0.24224535  1
  Te  Te172  1  0.91252553  0.08774517  0.58675924  1
  Te  Te173  1  0.92139362  0.06993356  0.93995517  1
  Te  Te174  1  0.90998735  0.41286244  0.25621705  1
  Te  Te175  1  0.93656261  0.41908379  0.58869811  1
  Te  Te176  1  0.95711555  0.40825560  0.93316309  1
  Te  Te177  1  0.93125659  0.76406586  0.22385197  1
  Te  Te178  1  0.91055792  0.75936083  0.58649653  1
  Te  Te179  1  0.92234752  0.75088181  0.91520187  1
