# generated using pymatgen
data_In2Te3
_symmetry_space_group_name_H-M   'P 1'
_cell_length_a   18.77653971
_cell_length_b   18.76363838
_cell_length_c   18.77114476
_cell_angle_alpha   90.01098059
_cell_angle_beta   89.98806591
_cell_angle_gamma   90.01794144
_symmetry_Int_Tables_number   1
_chemical_formula_structural   In2Te3
_chemical_formula_sum   'In72 Te108'
_cell_volume   6613.37782354
_cell_formula_units_Z   36
loop_
 _symmetry_equiv_pos_site_id
 _symmetry_equiv_pos_as_xyz
  1  'x, y, z'
loop_
 _atom_site_type_symbol
 _atom_site_label
 _atom_site_symmetry_multiplicity
 _atom_site_fract_x
 _atom_site_fract_y
 _atom_site_fract_z
 _atom_site_occupancy
  In  In0  1  0.34149786  0.66416925  0.32405740  1
  In  In1  1  0.14476662  0.00450567  0.15948095  1
  In  In2  1  0.49265224  0.51130394  0.32807702  1
  In  In3  1  0.82006238  0.31997397  0.83208568  1
  In  In4  1  -0.03190830  0.16903951  0.50148709  1
  In  In5  1  0.34861873  0.18175747  0.83587215  1
  In  In6  1  0.33570930  0.83169982  0.19089613  1
  In  In7  1  0.83488602  -0.02366538  0.50060667  1
  In  In8  1  0.81813879  0.13759496  0.67975350  1
  In  In9  1  0.00013627  -0.00785979  0.34057348  1
  In  In10  1  0.50359347  0.67652900  0.17642315  1
  In  In11  1  0.34495040  0.49378705  0.85493278  1
  In  In12  1  0.00797475  0.81865727  0.48066778  1
  In  In13  1  0.13984135  0.48297560  0.66479565  1
  In  In14  1  0.65292510  0.16910757  0.50112247  1
  In  In15  1  0.85605862  0.52427609  0.02984412  1
  In  In16  1  0.48385714  0.34896876  0.16901928  1
  In  In17  1  0.33984090  0.17126637  0.15993622  1
  In  In18  1  0.83877075  0.68099492  0.83655027  1
  In  In19  1  0.50063950  -0.01024187  0.48648073  1
  In  In20  1  0.68569992  0.48881137  0.84858602  1
  In  In21  1  0.34449960  0.33841309  0.65244316  1
  In  In22  1  0.48940684  0.68834829  0.50010118  1
  In  In23  1  0.15161773  0.81469592  0.65470752  1
  In  In24  1  0.49858340  0.15599810  -0.00469710  1
  In  In25  1  0.51153890  0.49416587  0.67547866  1
  In  In26  1  0.54867802  0.81459838  -0.00184764  1
  In  In27  1  0.69173347  0.32390784  -0.00208806  1
  In  In28  1  0.67222731  0.68198237  0.31435570  1
  In  In29  1  0.18936451  -0.03971956  0.45990831  1
  In  In30  1  0.32250091  0.65101032  0.01667579  1
  In  In31  1  0.53562110  0.18056903  0.70103736  1
  In  In32  1  0.33294297  0.15440045  0.47769402  1
  In  In33  1  0.17532872  0.66567568  0.46788312  1
  In  In34  1  0.15791897  0.64563625  0.83740203  1
  In  In35  1  0.81596783  -0.01618964  0.15842016  1
  In  In36  1  0.17310531  -0.01071744  0.84893086  1
  In  In37  1  0.15985968  0.16980737  0.31415478  1
  In  In38  1  0.00518160  0.35347748  0.66753479  1
  In  In39  1  0.86121308  0.37084901  0.16695335  1
  In  In40  1  0.49645881  0.33568248  0.49311788  1
  In  In41  1  0.82666141  0.79449693  0.03999807  1
  In  In42  1  0.81914071  0.66165463  0.47526185  1
  In  In43  1  0.33096386  0.53532856  0.46402227  1
  In  In44  1  0.14525768  0.83027499  0.00745862  1
  In  In45  1  0.17197792  0.15773660  0.69216621  1
  In  In46  1  0.18378487  0.34942075  0.17626848  1
  In  In47  1  0.16220874  0.51065279  0.00459298  1
  In  In48  1  0.66750681  0.15016466  0.17394882  1
  In  In49  1  0.34865029  0.84157252  0.83591297  1
  In  In50  1  0.66808239  0.48437547  0.50208207  1
  In  In51  1  0.65532759  -0.00818065  0.00334304  1
  In  In52  1  -0.00442516  0.51260395  0.46923535  1
  In  In53  1  0.66509594  0.66351558  0.67544735  1
  In  In54  1  0.00366829  0.51497983  0.83792949  1
  In  In55  1  0.00376675  0.17113921  0.13772486  1
  In  In56  1  0.15565201  0.34058986  0.48632938  1
  In  In57  1  0.84365523  0.18087920  0.33107458  1
  In  In58  1  0.52492056  0.86725212  0.68599098  1
  In  In59  1  0.67099411  -0.01731699  0.31857961  1
  In  In60  1  0.35008803  -0.00120920  -0.00831787  1
  In  In61  1  0.00035731  0.16087292  0.85386796  1
  In  In62  1  0.00808528  0.33107015  0.00046911  1
  In  In63  1  -0.00979721  0.67036261  0.68603880  1
  In  In64  1  0.32772699  0.69192004  0.67769452  1
  In  In65  1  0.65690869  0.34458908  0.34408913  1
  In  In66  1  0.50840391  0.50461732  0.01759624  1
  In  In67  1  0.83243606  -0.01241662  0.84245620  1
  In  In68  1  -0.01083414  0.80672064  0.18124694  1
  In  In69  1  0.81881253  0.34134321  0.48368751  1
  In  In70  1  0.34572228  0.01637220  0.65861819  1
  In  In71  1  0.81524750  0.84345033  0.67346550  1
  Te  Te72  1  0.08023485  0.07997958  0.05063967  1
  Te  Te73  1  0.08113364  0.09169899  0.42335689  1
  Te  Te74  1  0.07345326  0.06385970  0.75536262  1
  Te  Te75  1  0.06299009  0.43248949  0.09933991  1
  Te  Te76  1  0.08547408  0.42607975  0.38803337  1
  Te  Te77  1  0.09188421  0.40210248  0.78503217  1
  Te  Te78  1  0.10034370  0.73412408  0.11069512  1
  Te  Te79  1  0.09135588  0.74973464  0.37911179  1
  Te  Te80  1  0.07454497  0.76028634  0.77450232  1
  Te  Te81  1  0.43491013  0.06460947  0.09943759  1
  Te  Te82  1  0.41347723  0.06486478  0.39013092  1
  Te  Te83  1  0.43268988  0.07679075  0.76498250  1
  Te  Te84  1  0.39823552  0.42268259  0.07351256  1
  Te  Te85  1  0.40276725  0.41131608  0.40113682  1
  Te  Te86  1  0.42834347  0.40102757  0.76392220  1
  Te  Te87  1  0.41220831  0.76364417  0.07358289  1
  Te  Te88  1  0.40778248  0.77151368  0.40580797  1
  Te  Te89  1  0.44218448  0.75065638  0.75578178  1
  Te  Te90  1  0.75781624  0.09099436  0.06789195  1
  Te  Te91  1  0.75859569  0.08944751  0.41825319  1
  Te  Te92  1  0.72085429  0.05082551  0.75607662  1
  Te  Te93  1  0.74567201  0.43560969  0.09104500  1
  Te  Te94  1  0.76362186  0.44890759  0.38810823  1
  Te  Te95  1  0.74084379  0.40484625  0.73615192  1
  Te  Te96  1  0.71408256  0.71661482  0.10464623  1
  Te  Te97  1  0.72715134  0.76531835  0.42494331  1
  Te  Te98  1  0.72058993  0.77048566  0.77645129  1
  Te  Te99  1  0.06628845  0.26354364  0.24066292  1
  Te  Te100  1  0.08568640  0.24597642  0.58780915  1
  Te  Te101  1  0.09995842  0.24654582  0.92233430  1
  Te  Te102  1  0.03480305  0.54472821  0.20804045  1
  Te  Te103  1  0.08531089  0.60034339  0.58130913  1
  Te  Te104  1  0.05620554  0.60772729  0.94622018  1
  Te  Te105  1  0.08907072  0.90194190  0.25651010  1
  Te  Te106  1  0.08246576  0.91897136  0.56865001  1
  Te  Te107  1  0.06539058  0.91895291  0.92092008  1
  Te  Te108  1  0.41474082  0.25389419  0.25784411  1
  Te  Te109  1  0.42201344  0.22688412  0.58276315  1
  Te  Te110  1  0.41934247  0.26459454  0.93488208  1
  Te  Te111  1  0.40454160  0.56884627  0.21917851  1
  Te  Te112  1  0.41932145  0.58067903  0.58781572  1
  Te  Te113  1  0.43103910  0.59989042  0.92145596  1
  Te  Te114  1  0.40938121  0.92319050  0.28071398  1
  Te  Te115  1  0.41390619  0.90484030  0.58299929  1
  Te  Te116  1  0.45181469  0.91518675  0.91669864  1
  Te  Te117  1  0.75025115  0.26622160  0.24681087  1
  Te  Te118  1  0.75731977  0.24272137  0.58438109  1
  Te  Te119  1  0.73345193  0.22087494  0.89934896  1
  Te  Te120  1  0.76813522  0.61830617  0.21762198  1
  Te  Te121  1  0.75475859  0.57679259  0.58779722  1
  Te  Te122  1  0.75791364  0.59316230  0.93362776  1
  Te  Te123  1  0.74824491  0.88271588  0.24000709  1
  Te  Te124  1  0.72730451  0.92393331  0.58653973  1
  Te  Te125  1  0.75970612  0.89685396  0.94403314  1
  Te  Te126  1  0.23297457  0.24261011  0.08650870  1
  Te  Te127  1  0.25226497  0.25774659  0.39943577  1
  Te  Te128  1  0.25195248  0.27077930  0.75430450  1
  Te  Te129  1  0.23287357  0.58470074  0.11402136  1
  Te  Te130  1  0.21867556  0.55707450  0.35973272  1
  Te  Te131  1  0.25512419  0.57206951  0.74285681  1
  Te  Te132  1  0.25402849  0.91665550  0.07860796  1
  Te  Te133  1  0.28528352  0.89009713  0.37050276  1
  Te  Te134  1  0.25136376  0.91090463  0.73663362  1
  Te  Te135  1  0.58516482  0.25240577  0.09176751  1
  Te  Te136  1  0.56282051  0.23565603  0.39697540  1
  Te  Te137  1  0.61309761  0.29613828  0.74648733  1
  Te  Te138  1  0.59998164  0.60838990  0.08160555  1
  Te  Te139  1  0.58386109  0.58777103  0.42657826  1
  Te  Te140  1  0.58384044  0.58198683  0.77623632  1
  Te  Te141  1  0.58981343  0.90706725  0.10513390  1
  Te  Te142  1  0.60070853  0.89978162  0.42168161  1
  Te  Te143  1  0.60152205  0.95098218  0.78183675  1
  Te  Te144  1  0.89529658  0.25522800  0.07151887  1
  Te  Te145  1  0.93511749  0.27943890  0.40243590  1
  Te  Te146  1  0.92244690  0.24410852  0.73708033  1
  Te  Te147  1  0.92107932  0.62041583  0.12943181  1
  Te  Te148  1  0.93656419  0.62564352  0.38866723  1
  Te  Te149  1  0.89534038  0.56755620  0.74516522  1
  Te  Te150  1  0.92684921  0.90981624  0.08640834  1
  Te  Te151  1  0.90107223  0.88985299  0.39439241  1
  Te  Te152  1  0.92095520  0.90904727  0.75131473  1
  Te  Te153  1  0.25099781  0.07136397  0.24508336  1
  Te  Te154  1  0.23562401  0.07971214  0.57240380  1
  Te  Te155  1  0.25462769  0.09502940  0.92256279  1
  Te  Te156  1  0.25783845  0.43389651  0.27076004  1
  Te  Te157  1  0.25505436  0.42917289  0.56741154  1
  Te  Te158  1  0.24834456  0.41440064  0.93256042  1
  Te  Te159  1  0.23778255  0.72632020  0.23299731  1
  Te  Te160  1  0.25801545  0.75813008  0.56009741  1
  Te  Te161  1  0.25121911  0.74786600  0.91002839  1
  Te  Te162  1  0.57338044  0.07569635  0.25764519  1
  Te  Te163  1  0.57538471  0.07804730  0.59308327  1
  Te  Te164  1  0.59182613  0.08459906  0.90205392  1
  Te  Te165  1  0.59337323  0.43783734  0.24110866  1
  Te  Te166  1  0.59468303  0.38830001  0.59771848  1
  Te  Te167  1  0.58322311  0.40639441  0.92614990  1
  Te  Te168  1  0.56348050  0.77260804  0.27080634  1
  Te  Te169  1  0.58899813  0.76270076  0.58812154  1
  Te  Te170  1  0.61338503  0.74541068  0.88825426  1
  Te  Te171  1  0.91873335  0.08007151  0.24351017  1
  Te  Te172  1  0.92143816  0.05991402  0.59649513  1
  Te  Te173  1  0.90337552  0.08316407  0.93273008  1
  Te  Te174  1  0.92818887  0.45444624  0.26842985  1
  Te  Te175  1  0.91513997  0.42877998  0.57074813  1
  Te  Te176  1  0.90400766  0.41910378  0.91782076  1
  Te  Te177  1  0.88590367  0.72078227  0.25212166  1
  Te  Te178  1  0.91052851  0.74931792  0.58246421  1
  Te  Te179  1  0.92525763  0.74577181  0.93690575  1
