# generated using pymatgen
data_In2Te3
_symmetry_space_group_name_H-M   'P 1'
_cell_length_a   18.91414784
_cell_length_b   18.91712566
_cell_length_c   18.91737260
_cell_angle_alpha   89.96802242
_cell_angle_beta   89.93856534
_cell_angle_gamma   89.77869101
_symmetry_Int_Tables_number   1
_chemical_formula_structural   In2Te3
_chemical_formula_sum   'In72 Te108'
_cell_volume   6768.60530345
_cell_formula_units_Z   36
loop_
 _symmetry_equiv_pos_site_id
 _symmetry_equiv_pos_as_xyz
  1  'x, y, z'
loop_
 _atom_site_type_symbol
 _atom_site_label
 _atom_site_symmetry_multiplicity
 _atom_site_fract_x
 _atom_site_fract_y
 _atom_site_fract_z
 _atom_site_occupancy
  In  In0  1  -0.00199234  0.34975315  -0.02282094  1
  In  In1  1  0.02071146  0.66507253  0.00460277  1
  In  In2  1  0.33523578  0.32707701  0.67838067  1
  In  In3  1  0.64626655  0.66102883  0.62959282  1
  In  In4  1  0.65998934  0.14187233  0.50107043  1
  In  In5  1  0.45987097  0.67432771  0.83222709  1
  In  In6  1  0.49416444  0.49588623  0.03790183  1
  In  In7  1  0.34970973  -0.03670368  0.63562750  1
  In  In8  1  0.00624389  0.35490646  0.34491700  1
  In  In9  1  0.67485486  0.00112152  0.67119216  1
  In  In10  1  0.00615912  0.15822043  0.15129156  1
  In  In11  1  0.65564710  0.49067531  0.17657720  1
  In  In12  1  0.82431758  0.35024051  0.86316479  1
  In  In13  1  0.33707842  0.17652451  0.84381975  1
  In  In14  1  0.84096222  0.17140706  0.67646778  1
  In  In15  1  0.83319400  0.68003460  0.52872473  1
  In  In16  1  0.66380937  0.33806721  0.33974600  1
  In  In17  1  0.63539097  0.79183940  0.49014014  1
  In  In18  1  0.34889151  -0.01945472  0.00203800  1
  In  In19  1  -0.00544556  0.85071890  0.82095816  1
  In  In20  1  0.52368581  0.00817286  0.16083495  1
  In  In21  1  0.66361995  -0.01702376  0.31726690  1
  In  In22  1  0.84919354  0.51575258  -0.00339771  1
  In  In23  1  0.13848484  0.82411400  0.66273455  1
  In  In24  1  0.16596210  0.34601596  0.82929907  1
  In  In25  1  -0.00793639  0.15630172  0.84150547  1
  In  In26  1  0.84590509  0.50501718  0.66163489  1
  In  In27  1  0.48435830  0.00089685  0.84708972  1
  In  In28  1  0.48728572  0.50294218  0.64759067  1
  In  In29  1  0.30152477  0.83028345  0.18873106  1
  In  In30  1  0.82825259  0.15272043  -0.01531827  1
  In  In31  1  0.32713090  0.16448390  0.49414064  1
  In  In32  1  0.33512382  0.50068095  0.18586149  1
  In  In33  1  0.53289141  0.16716377  0.69849599  1
  In  In34  1  0.17049608  0.50554464  0.67047099  1
  In  In35  1  0.14676117  -0.00591475  0.83240354  1
  In  In36  1  0.83506219  0.66468908  0.81653790  1
  In  In37  1  0.19083445  0.18057228  0.32686078  1
  In  In38  1  0.17960869  0.34489869  0.15163767  1
  In  In39  1  0.83690303  0.85139793  0.31724736  1
  In  In40  1  0.46755601  0.19645646  0.31149994  1
  In  In41  1  0.32409086  -0.01611918  0.33574870  1
  In  In42  1  0.15622134  0.66617678  0.48166552  1
  In  In43  1  0.00671951  0.67348575  0.32920916  1
  In  In44  1  0.34286890  0.63809980  0.63880663  1
  In  In45  1  0.17413625  0.15749788  0.03715302  1
  In  In46  1  0.86009020  0.84710470  0.02449396  1
  In  In47  1  0.50159516  0.17462107  -0.00582045  1
  In  In48  1  0.15658415  -0.02446756  0.50307443  1
  In  In49  1  0.65811885  0.83328269  0.84042703  1
  In  In50  1  0.33541528  0.48712400  0.82852424  1
  In  In51  1  0.81283283  0.66914864  0.18749019  1
  In  In52  1  0.15953869  0.49699730  0.00303581  1
  In  In53  1  -0.00932289  0.50434621  0.49973588  1
  In  In54  1  0.66649440  0.49814671  0.83551418  1
  In  In55  1  0.85449346  0.34526064  0.18761407  1
  In  In56  1  0.14971284  0.00021924  0.18105475  1
  In  In57  1  0.49613915  0.66268673  0.17403598  1
  In  In58  1  0.85014385  0.01323342  0.53180129  1
  In  In59  1  0.48334864  0.35158287  0.50293032  1
  In  In60  1  0.82612593  0.32136751  0.50008838  1
  In  In61  1  0.65568463  0.82898064  0.16724209  1
  In  In62  1  0.00773681  -0.00347661  0.33359648  1
  In  In63  1  0.68396022  -0.00179449  0.00850327  1
  In  In64  1  0.44863063  0.81394661  -0.01980441  1
  In  In65  1  0.84157545  0.84063575  0.66883195  1
  In  In66  1  0.33688174  0.50966295  0.47089217  1
  In  In67  1  0.16046788  0.66388477  0.17709210  1
  In  In68  1  0.15737447  0.30407473  0.52574395  1
  In  In69  1  0.66304727  0.32073815  0.00896392  1
  In  In70  1  0.83304361  0.18687093  0.33222060  1
  In  In71  1  0.47979622  0.82277553  0.35527634  1
  Te  Te72  1  0.06359243  0.05038416  0.05493343  1
  Te  Te73  1  0.10340028  0.08829279  0.40875514  1
  Te  Te74  1  0.08482571  0.09547534  0.74313157  1
  Te  Te75  1  0.06055204  0.42288357  0.09236585  1
  Te  Te76  1  0.10369431  0.41965753  0.44098445  1
  Te  Te77  1  0.07887434  0.40780496  0.73021797  1
  Te  Te78  1  0.10279530  0.75970337  0.07957963  1
  Te  Te79  1  0.08245302  0.77251837  0.40824192  1
  Te  Te80  1  0.08428212  0.74246329  0.77327444  1
  Te  Te81  1  0.41655125  0.08574968  0.08683026  1
  Te  Te82  1  0.41733101  0.08347095  0.40318898  1
  Te  Te83  1  0.40561163  0.08110684  0.74361079  1
  Te  Te84  1  0.42267458  0.39330354  0.11997443  1
  Te  Te85  1  0.42696666  0.42405206  0.38719020  1
  Te  Te86  1  0.43962748  0.40378531  0.75530328  1
  Te  Te87  1  0.38852333  0.73928372  0.10043752  1
  Te  Te88  1  0.40411552  0.74590894  0.45444437  1
  Te  Te89  1  0.41765341  0.74691642  0.71059808  1
  Te  Te90  1  0.74675325  0.09845806  0.09406862  1
  Te  Te91  1  0.76186002  0.07354087  0.40981025  1
  Te  Te92  1  0.78218935  0.05872045  0.75543755  1
  Te  Te93  1  0.76307838  0.42072800  0.07841624  1
  Te  Te94  1  0.76504545  0.41804969  0.40847896  1
  Te  Te95  1  0.75333478  0.41494683  0.74400277  1
  Te  Te96  1  0.74950650  0.75266024  0.07630592  1
  Te  Te97  1  0.76291593  0.75285360  0.40568927  1
  Te  Te98  1  0.73185419  0.74540289  0.73439854  1
  Te  Te99  1  0.07843975  0.25290291  0.24560491  1
  Te  Te100  1  0.07663949  0.20601754  0.59638444  1
  Te  Te101  1  0.09688803  0.24239620  0.93327013  1
  Te  Te102  1  0.07934085  0.56813841  0.25540468  1
  Te  Te103  1  0.07611846  0.59254392  0.58861817  1
  Te  Te104  1  0.09452627  0.58462035  0.90516331  1
  Te  Te105  1  0.09628140  0.89588504  0.26974250  1
  Te  Te106  1  0.05143268  0.91950267  0.58983927  1
  Te  Te107  1  0.10786791  0.87780037  0.91356913  1
  Te  Te108  1  0.38469078  0.27609313  0.21999290  1
  Te  Te109  1  0.42244852  0.23549038  0.59280161  1
  Te  Te110  1  0.42770188  0.26990528  0.90864487  1
  Te  Te111  1  0.42749991  0.57960143  0.27273301  1
  Te  Te112  1  0.44882444  0.59588464  0.53096489  1
  Te  Te113  1  0.41102356  0.56962460  0.93173988  1
  Te  Te114  1  0.42944145  0.91217073  0.23616791  1
  Te  Te115  1  0.39229817  0.88682439  0.51397013  1
  Te  Te116  1  0.37142968  0.89708010  0.86824672  1
  Te  Te117  1  0.74089887  0.25729182  0.23472055  1
  Te  Te118  1  0.73425142  0.23919188  0.58981341  1
  Te  Te119  1  0.72677901  0.23404744  0.89193471  1
  Te  Te120  1  0.73115280  0.57746476  0.26929731  1
  Te  Te121  1  0.74176918  0.56245997  0.56516030  1
  Te  Te122  1  0.74574420  0.59614048  0.91927294  1
  Te  Te123  1  0.75972297  0.93050205  0.21243874  1
  Te  Te124  1  0.74172169  0.90955958  0.56877008  1
  Te  Te125  1  0.76375597  0.90839667  0.91633986  1
  Te  Te126  1  0.27736224  0.24699511  0.09397485  1
  Te  Te127  1  0.26368867  0.27786791  0.41674348  1
  Te  Te128  1  0.23546296  0.23783135  0.74630235  1
  Te  Te129  1  0.25294620  0.58222779  0.08414551  1
  Te  Te130  1  0.24890746  0.59612864  0.38691080  1
  Te  Te131  1  0.25525587  0.59465547  0.75907408  1
  Te  Te132  1  0.23791199  0.91731252  0.08183989  1
  Te  Te133  1  0.24237729  0.89050964  0.41464089  1
  Te  Te134  1  0.23723605  0.92140617  0.72815482  1
  Te  Te135  1  0.57587020  0.24686283  0.09931292  1
  Te  Te136  1  0.57280623  0.24126745  0.42476817  1
  Te  Te137  1  0.62427951  0.24768362  0.77381538  1
  Te  Te138  1  0.59791183  0.59703865  0.08251212  1
  Te  Te139  1  0.62648334  0.66541125  0.40963701  1
  Te  Te140  1  0.57582092  0.58523676  0.74892959  1
  Te  Te141  1  0.56967689  0.90309171  0.05965104  1
  Te  Te142  1  0.57681372  0.92121516  0.42082126  1
  Te  Te143  1  0.57080489  0.91912965  0.75148653  1
  Te  Te144  1  0.91297637  0.25581695  0.06915905  1
  Te  Te145  1  0.93675388  0.24558943  0.42376548  1
  Te  Te146  1  0.91480046  0.26525465  0.77030109  1
  Te  Te147  1  0.92004384  0.59827298  0.09861424  1
  Te  Te148  1  0.90621906  0.60023368  0.42026701  1
  Te  Te149  1  0.93207440  0.60545111  0.72440706  1
  Te  Te150  1  0.94311207  0.95264552  0.07897144  1
  Te  Te151  1  0.91508739  0.92078810  0.42708755  1
  Te  Te152  1  0.90893043  0.94783854  0.74540767  1
  Te  Te153  1  0.26376716  0.08273522  0.23689557  1
  Te  Te154  1  0.25188167  0.06893661  0.58169585  1
  Te  Te155  1  0.25181221  0.07866208  0.92455843  1
  Te  Te156  1  0.22714885  0.43054667  0.25907991  1
  Te  Te157  1  0.26914072  0.42534423  0.58399856  1
  Te  Te158  1  0.25959726  0.40418569  0.93169555  1
  Te  Te159  1  0.25964844  0.71910456  0.27698301  1
  Te  Te160  1  0.24050057  0.73798127  0.58514991  1
  Te  Te161  1  0.32229832  0.76131159  0.92037994  1
  Te  Te162  1  0.58369260  0.10059497  0.26335633  1
  Te  Te163  1  0.56250263  0.06548403  0.58806780  1
  Te  Te164  1  0.59219957  0.07883231  0.91488060  1
  Te  Te165  1  0.56331504  0.42366302  0.27136293  1
  Te  Te166  1  0.58627933  0.41297680  0.58596091  1
  Te  Te167  1  0.57860965  0.42137151  0.93197418  1
  Te  Te168  1  0.59142300  0.74109403  0.27317742  1
  Te  Te169  1  0.54854798  0.77220551  0.61104020  1
  Te  Te170  1  0.56883306  0.73919544  0.91747368  1
  Te  Te171  1  0.91619888  0.08708503  0.25027452  1
  Te  Te172  1  0.94582638  0.11727507  0.58067765  1
  Te  Te173  1  0.92485244  0.05533571  0.92792841  1
  Te  Te174  1  0.91895948  0.44661152  0.26983177  1
  Te  Te175  1  0.92559606  0.39818210  0.58635971  1
  Te  Te176  1  0.93451770  0.45393833  0.88746977  1
  Te  Te177  1  0.92431846  0.76303517  0.23204675  1
  Te  Te178  1  0.93718300  0.76885612  0.58285556  1
  Te  Te179  1  0.91300734  0.74882539  0.91662512  1
