# generated using pymatgen
data_In2Te3
_symmetry_space_group_name_H-M   'P 1'
_cell_length_a   18.99289183
_cell_length_b   18.98932335
_cell_length_c   18.96170950
_cell_angle_alpha   90.06930293
_cell_angle_beta   90.11885703
_cell_angle_gamma   89.99983997
_symmetry_Int_Tables_number   1
_chemical_formula_structural   In2Te3
_chemical_formula_sum   'In72 Te108'
_cell_volume   6838.75147094
_cell_formula_units_Z   36
loop_
 _symmetry_equiv_pos_site_id
 _symmetry_equiv_pos_as_xyz
  1  'x, y, z'
loop_
 _atom_site_type_symbol
 _atom_site_label
 _atom_site_symmetry_multiplicity
 _atom_site_fract_x
 _atom_site_fract_y
 _atom_site_fract_z
 _atom_site_occupancy
  In  In0  1  0.16445432  0.33142950  0.82346618  1
  In  In1  1  0.14687397  0.65014118  0.84848670  1
  In  In2  1  0.84260897  0.66141821  0.50261431  1
  In  In3  1  0.48285636  0.02867531  0.46914756  1
  In  In4  1  0.16082466  0.51541390  0.33176143  1
  In  In5  1  0.82473680  0.31992691  0.85186613  1
  In  In6  1  0.49833516  0.49496641  0.65032551  1
  In  In7  1  -0.00104993  0.31918178  0.33044809  1
  In  In8  1  0.33294801  0.69478564  0.34856235  1
  In  In9  1  0.00494321  0.64251119  0.65851762  1
  In  In10  1  0.47243010  0.85046192  0.01296542  1
  In  In11  1  0.67071349  0.33953048  0.66728346  1
  In  In12  1  0.19463237  0.50583332  0.65159334  1
  In  In13  1  0.32053200  -0.00899339  0.65853026  1
  In  In14  1  0.67389361  0.16234455  0.83308726  1
  In  In15  1  0.50617912  0.67278059  0.82351809  1
  In  In16  1  0.83958270  0.18171051  0.68685421  1
  In  In17  1  0.85931260  0.01624718  0.20436799  1
  In  In18  1  0.86334506  -0.00232975  0.84827798  1
  In  In19  1  0.33060812  0.01851846  0.31082440  1
  In  In20  1  0.86089588  0.85235029  0.33618706  1
  In  In21  1  0.00431187  0.15317786  0.48594127  1
  In  In22  1  0.16881316  0.82967450  0.33237353  1
  In  In23  1  0.65174711  0.18249523  0.17683980  1
  In  In24  1  0.33867771  0.48123374  0.48331601  1
  In  In25  1  0.84916418  0.29729868  0.14271670  1
  In  In26  1  0.65372957  0.82325332  0.50017142  1
  In  In27  1  0.64570272  0.82485059  0.86111497  1
  In  In28  1  -0.01828526  0.49181986  0.83544023  1
  In  In29  1  0.33834701  0.13700965  0.81942908  1
  In  In30  1  0.52899771  0.49561301  0.00505681  1
  In  In31  1  0.12218095  0.16930776  0.01987146  1
  In  In32  1  0.65281183  0.66072895  0.33616045  1
  In  In33  1  -0.02397820  0.18168531  0.84976910  1
  In  In34  1  0.81792606  0.52488149  0.33250257  1
  In  In35  1  0.50989650  0.83010539  0.65163602  1
  In  In36  1  0.50132115  0.32645698  0.18059118  1
  In  In37  1  0.80122355  0.49575369  0.02063678  1
  In  In38  1  0.16703942  0.31379556  0.20264824  1
  In  In39  1  0.02893639  0.01103398  0.65048536  1
  In  In40  1  0.34338245  0.15806921  0.15096256  1
  In  In41  1  0.19263778  0.85603268  0.02225697  1
  In  In42  1  0.68368372  0.79692379  0.15366870  1
  In  In43  1  0.83366471  0.35942557  0.51281528  1
  In  In44  1  -0.02597575  0.67300224  0.01324575  1
  In  In45  1  0.67415971  0.01180042  0.00834174  1
  In  In46  1  0.33536256  0.72539332  0.58681903  1
  In  In47  1  0.17384363  0.46963391  0.02301982  1
  In  In48  1  0.00199889  0.50075179  0.19489982  1
  In  In49  1  -0.00522422  0.83214843  0.16879384  1
  In  In50  1  0.50658787  0.66699087  0.16768949  1
  In  In51  1  0.66558587  0.32721890  0.33077197  1
  In  In52  1  0.36180708  0.48874461  0.80142482  1
  In  In53  1  0.83781162  0.50505888  0.67444610  1
  In  In54  1  0.16042286  0.14885443  0.65916417  1
  In  In55  1  0.48984132  0.31756140  0.48490752  1
  In  In56  1  0.65272276  0.67494290  0.66577515  1
  In  In57  1  0.16771243  0.00688877  0.48321633  1
  In  In58  1  0.00136901  0.81342567  0.84557285  1
  In  In59  1  0.35423778  0.32103512  -0.00860101  1
  In  In60  1  0.82518397  0.81925043  0.67833384  1
  In  In61  1  0.34668663  0.52966075  0.18420223  1
  In  In62  1  0.18150992  -0.00414960  0.85130402  1
  In  In63  1  0.51291552  0.34583280  0.81969584  1
  In  In64  1  0.67812644  0.01481879  0.33979157  1
  In  In65  1  -0.00954374  0.01630195  0.02684174  1
  In  In66  1  0.49622242  -0.02313029  0.81848209  1
  In  In67  1  0.18311427  0.29251342  0.46156077  1
  In  In68  1  0.32589843  0.66802136  -0.00806720  1
  In  In69  1  0.00036319  0.68526545  0.34188770  1
  In  In70  1  0.66224422  0.01833745  0.62323498  1
  In  In71  1  0.49074956  0.00714564  0.17492210  1
  Te  Te72  1  0.11381196  0.04699371  0.10327728  1
  Te  Te73  1  0.08954895  0.08658843  0.38378633  1
  Te  Te74  1  0.07400970  0.09092396  0.77869076  1
  Te  Te75  1  0.07444184  0.39833744  0.11057777  1
  Te  Te76  1  0.09183114  0.40640975  0.41178722  1
  Te  Te77  1  0.09148048  0.43853972  0.74615064  1
  Te  Te78  1  0.08560729  0.75777907  0.07264099  1
  Te  Te79  1  0.08748683  0.75867792  0.43694998  1
  Te  Te80  1  0.08669459  0.74212834  0.74432418  1
  Te  Te81  1  0.41965097  0.06897538  0.05942535  1
  Te  Te82  1  0.38605283  0.12363723  0.40426764  1
  Te  Te83  1  0.43483189  0.07487548  0.72081202  1
  Te  Te84  1  0.40861612  0.42932430  0.08305539  1
  Te  Te85  1  0.43244305  0.41616557  0.38940810  1
  Te  Te86  1  0.40712396  0.37606031  0.70459488  1
  Te  Te87  1  0.39921015  0.74848831  0.09794488  1
  Te  Te88  1  0.40442927  0.76006083  0.46050462  1
  Te  Te89  1  0.41483590  0.74960752  0.73309910  1
  Te  Te90  1  0.74963660  0.08275398  0.11721476  1
  Te  Te91  1  0.80414783  0.05077947  0.40612439  1
  Te  Te92  1  0.76083838  0.06624761  0.74888665  1
  Te  Te93  1  0.74270109  0.38734358  0.10038750  1
  Te  Te94  1  0.73865610  0.43034518  0.41904030  1
  Te  Te95  1  0.75021255  0.42192722  0.76581718  1
  Te  Te96  1  0.75902628  0.73206983  0.04459265  1
  Te  Te97  1  0.76152296  0.75555954  0.41417810  1
  Te  Te98  1  0.73807772  0.73940307  0.77361997  1
  Te  Te99  1  0.05583925  0.21745920  0.23564861  1
  Te  Te100  1  0.08448856  0.24754806  0.57461391  1
  Te  Te101  1  0.06792529  0.27704949  0.92524672  1
  Te  Te102  1  0.09052324  0.61434679  0.24171373  1
  Te  Te103  1  0.10650132  0.58807857  0.56917449  1
  Te  Te104  1  0.07161462  0.56195481  0.94686890  1
  Te  Te105  1  0.07328601  0.91526464  0.25907572  1
  Te  Te106  1  0.11698156  0.90928494  0.58769547  1
  Te  Te107  1  0.06999992  0.92232803  0.92787822  1
  Te  Te108  1  0.39141423  0.25548308  0.25389021  1
  Te  Te109  1  0.39545203  0.27669701  0.58787234  1
  Te  Te110  1  0.42897722  0.23901761  0.89187677  1
  Te  Te111  1  0.43478457  0.59992551  0.28359157  1
  Te  Te112  1  0.39095468  0.57944391  0.58791067  1
  Te  Te113  1  0.42133650  0.57484910  0.91795150  1
  Te  Te114  1  0.41372223  0.91206884  0.25310612  1
  Te  Te115  1  0.42821968  0.92706770  0.57165469  1
  Te  Te116  1  0.39278773  0.90728793  0.89950599  1
  Te  Te117  1  0.76557893  0.23788796  0.26003016  1
  Te  Te118  1  0.75437689  0.24707953  0.58119846  1
  Te  Te119  1  0.73197385  0.24632780  0.93759159  1
  Te  Te120  1  0.72723699  0.58518487  0.23291494  1
  Te  Te121  1  0.74352916  0.58309404  0.58469681  1
  Te  Te122  1  0.71707172  0.60580284  0.97007723  1
  Te  Te123  1  0.74716799  0.90871800  0.24713597  1
  Te  Te124  1  0.75535788  0.90906504  0.57502296  1
  Te  Te125  1  0.75254966  0.91930229  0.91702484  1
  Te  Te126  1  0.24303351  0.26135205  0.07527447  1
  Te  Te127  1  0.27783927  0.23200023  0.36644002  1
  Te  Te128  1  0.25069310  0.23821819  0.74339153  1
  Te  Te129  1  0.24144728  0.58744456  0.08933497  1
  Te  Te130  1  0.24919146  0.59119509  0.42550717  1
  Te  Te131  1  0.25727865  0.59277849  0.76061224  1
  Te  Te132  1  0.31514231  0.93640445  0.03935705  1
  Te  Te133  1  0.26546382  0.92112810  0.40867278  1
  Te  Te134  1  0.24569715  0.90921423  0.75337154  1
  Te  Te135  1  0.55636010  0.23702232  0.08009314  1
  Te  Te136  1  0.59433767  0.23291495  0.42057005  1
  Te  Te137  1  0.58470604  0.23712033  0.73661750  1
  Te  Te138  1  0.60293551  0.56786832  0.11235074  1
  Te  Te139  1  0.59500756  0.59228819  0.44944214  1
  Te  Te140  1  0.58651788  0.56682487  0.75253442  1
  Te  Te141  1  0.59318353  0.91109922  0.08930190  1
  Te  Te142  1  0.58067540  0.92278719  0.41358021  1
  Te  Te143  1  0.60838846  0.91352934  0.73172784  1
  Te  Te144  1  0.93573884  0.20456909  0.06988372  1
  Te  Te145  1  0.90526961  0.25281623  0.42749027  1
  Te  Te146  1  0.93301240  0.28251489  0.74576472  1
  Te  Te147  1  0.90604245  0.57491828  0.10488670  1
  Te  Te148  1  0.93334056  0.57297273  0.41907412  1
  Te  Te149  1  0.90563411  0.60331369  0.76964344  1
  Te  Te150  1  0.89626631  0.91941531  0.09140193  1
  Te  Te151  1  0.91651448  0.95594875  0.42289166  1
  Te  Te152  1  0.93219323  0.91454235  0.74059306  1
  Te  Te153  1  0.23531102  0.07761091  0.21268724  1
  Te  Te154  1  0.26265126  0.09555549  0.56386117  1
  Te  Te155  1  0.23628165  0.11285812  0.92809274  1
  Te  Te156  1  0.25472001  0.42807261  0.25240200  1
  Te  Te157  1  0.24669926  0.39071689  0.56345803  1
  Te  Te158  1  0.26114061  0.42096063  0.90526702  1
  Te  Te159  1  0.25770666  0.75799524  0.23963367  1
  Te  Te160  1  0.20397625  0.78164538  0.55419696  1
  Te  Te161  1  0.23491044  0.75850639  0.91236437  1
  Te  Te162  1  0.56919473  0.09595180  0.26949427  1
  Te  Te163  1  0.58405529  0.11191339  0.54175840  1
  Te  Te164  1  0.57691976  0.06987512  0.90764865  1
  Te  Te165  1  0.56376269  0.42003381  0.27538603  1
  Te  Te166  1  0.58903651  0.41257246  0.56461897  1
  Te  Te167  1  0.60272353  0.40333434  0.91950220  1
  Te  Te168  1  0.57745984  0.76702308  0.25834674  1
  Te  Te169  1  0.56207024  0.70665135  0.54623169  1
  Te  Te170  1  0.56050008  0.73813792  0.94841440  1
  Te  Te171  1  0.96391552  0.09570611  0.27178541  1
  Te  Te172  1  0.91446918  0.08658772  0.59202484  1
  Te  Te173  1  0.88673399  0.11029284  0.95158008  1
  Te  Te174  1  0.89803999  0.41018424  0.25986101  1
  Te  Te175  1  0.93228558  0.43647780  0.58770427  1
  Te  Te176  1  0.90606235  0.41455089  0.93883306  1
  Te  Te177  1  0.89943996  0.73899231  0.24267175  1
  Te  Te178  1  0.92635989  0.75639764  0.58503171  1
  Te  Te179  1  0.89109525  0.76072293  0.92843983  1
