# generated using pymatgen
data_In2Te3
_symmetry_space_group_name_H-M   'P 1'
_cell_length_a   18.76607043
_cell_length_b   18.76678154
_cell_length_c   18.76448668
_cell_angle_alpha   90.02898147
_cell_angle_beta   89.97409226
_cell_angle_gamma   90.02650899
_symmetry_Int_Tables_number   1
_chemical_formula_structural   In2Te3
_chemical_formula_sum   'In72 Te108'
_cell_volume   6608.45112478
_cell_formula_units_Z   36
loop_
 _symmetry_equiv_pos_site_id
 _symmetry_equiv_pos_as_xyz
  1  'x, y, z'
loop_
 _atom_site_type_symbol
 _atom_site_label
 _atom_site_symmetry_multiplicity
 _atom_site_fract_x
 _atom_site_fract_y
 _atom_site_fract_z
 _atom_site_occupancy
  In  In0  1  0.51117623  0.00722112  0.83244060  1
  In  In1  1  0.30488152  0.34769654  -0.04262785  1
  In  In2  1  0.68561732  0.49361925  0.82431377  1
  In  In3  1  0.83582500  -0.00905321  0.83127188  1
  In  In4  1  0.86015784  0.47681124  -0.01763581  1
  In  In5  1  0.84569342  0.32640670  0.16330985  1
  In  In6  1  0.80984796  0.86703944  0.32207623  1
  In  In7  1  0.15583166  0.16470474  0.33567287  1
  In  In8  1  0.49330061  0.83594272  0.66392023  1
  In  In9  1  0.00634196  0.65327400  -0.01411740  1
  In  In10  1  0.34006897  0.49598105  0.48444930  1
  In  In11  1  0.33309743  0.18162665  0.17269923  1
  In  In12  1  0.49767514  0.83076352  0.33585484  1
  In  In13  1  0.49618096  0.66952516  0.17232737  1
  In  In14  1  0.32630888  0.51289070  0.15354139  1
  In  In15  1  0.65981014  0.49488626  0.51574240  1
  In  In16  1  0.29149469  0.01738226  0.68671822  1
  In  In17  1  0.31643384  0.68904376  0.34894650  1
  In  In18  1  0.51656322  0.34738636  0.16888515  1
  In  In19  1  0.67598937  0.18659736  0.48557321  1
  In  In20  1  0.31524634  0.65518506  0.67148675  1
  In  In21  1  0.67937229  0.16953541  0.81821678  1
  In  In22  1  0.49574672  0.48187157  0.66796616  1
  In  In23  1  0.83680135  0.66734419  0.16281566  1
  In  In24  1  0.84992542  0.81403431  0.66561511  1
  In  In25  1  0.84453555  0.82844500  -0.00257156  1
  In  In26  1  0.35618106  0.01920541  0.36296456  1
  In  In27  1  0.68009571  0.66785984  0.35310963  1
  In  In28  1  0.65013155  0.66836469  0.00695335  1
  In  In29  1  0.32491323  0.17660866  0.83899241  1
  In  In30  1  0.66791121  0.17232654  0.18476487  1
  In  In31  1  0.15079576  -0.01373200  0.81322446  1
  In  In32  1  0.31362194  0.82168371  0.84917248  1
  In  In33  1  0.34085140  0.33399564  0.69002150  1
  In  In34  1  0.84458989  0.64659309  0.80782452  1
  In  In35  1  0.35736232  0.34459703  0.33792144  1
  In  In36  1  0.67500483  0.65574790  0.66680566  1
  In  In37  1  0.51299787  0.48193815  0.33273184  1
  In  In38  1  0.85297197  0.14290758  0.31551959  1
  In  In39  1  0.00176637  0.83274293  0.15085120  1
  In  In40  1  0.86016429  0.50688991  0.68544742  1
  In  In41  1  0.50375364  0.02748918  0.16360202  1
  In  In42  1  0.13548713  0.51930438  0.67483082  1
  In  In43  1  0.13447934  0.35885041  0.13617179  1
  In  In44  1  0.00506036  0.64936185  0.33749204  1
  In  In45  1  -0.01153695  0.31796962  0.67504771  1
  In  In46  1  0.14883140  0.00088894  0.50513292  1
  In  In47  1  0.82857129  0.17900317  0.00068269  1
  In  In48  1  0.67781850  0.33482151  -0.00247938  1
  In  In49  1  0.16907106  0.50114063  0.32917889  1
  In  In50  1  0.84173617  0.49385151  0.34199015  1
  In  In51  1  0.15749765  0.84206561  0.30698363  1
  In  In52  1  0.49417610  0.51394004  -0.00432768  1
  In  In53  1  0.01062387  -0.01173571  -0.00169200  1
  In  In54  1  0.16152618  0.16009555  0.66674981  1
  In  In55  1  0.86378705  0.03335507  0.52012296  1
  In  In56  1  0.16152575  -0.01176429  0.14961606  1
  In  In57  1  0.68034937  -0.00227295  0.68648103  1
  In  In58  1  -0.00228877  0.33137229  0.34010595  1
  In  In59  1  0.30387908  0.64824538  -0.01586636  1
  In  In60  1  0.66803788  0.83026806  0.49106708  1
  In  In61  1  0.49755466  -0.00976723  0.48350602  1
  In  In62  1  0.16644891  0.33309965  0.50920353  1
  In  In63  1  0.52076292  0.18922541  0.65282577  1
  In  In64  1  0.51312405  0.84320128  0.00095235  1
  In  In65  1  0.83251738  0.33155021  0.51278101  1
  In  In66  1  0.68393243  0.01104359  0.01038747  1
  In  In67  1  0.14160441  0.18804733  -0.03005342  1
  In  In68  1  0.30328126  0.81545589  0.52459079  1
  In  In69  1  -0.01572442  0.82314584  0.50849758  1
  In  In70  1  0.32182290  0.00277028  0.03638835  1
  In  In71  1  0.31171591  0.83343014  0.16797395  1
  Te  Te72  1  0.07943688  0.09845296  0.08066762  1
  Te  Te73  1  0.06342975  0.08174487  0.41527278  1
  Te  Te74  1  0.05545447  0.07518945  0.73527654  1
  Te  Te75  1  0.06416187  0.41065448  0.01286394  1
  Te  Te76  1  0.07777203  0.42792481  0.42826518  1
  Te  Te77  1  0.08790102  0.40113688  0.75095835  1
  Te  Te78  1  0.08843131  0.74140600  0.07597758  1
  Te  Te79  1  0.08574623  0.75775988  0.41141742  1
  Te  Te80  1  0.06808303  0.83156388  0.75589430  1
  Te  Te81  1  0.42203912  0.11316058  0.06589960  1
  Te  Te82  1  0.44332570  0.12291954  0.43117571  1
  Te  Te83  1  0.41748576  0.08913855  0.74405786  1
  Te  Te84  1  0.40524011  0.40657689  0.07765234  1
  Te  Te85  1  0.45170360  0.39738922  0.44564818  1
  Te  Te86  1  0.41181193  0.42832431  0.77912122  1
  Te  Te87  1  0.40832670  0.75037536  0.07705887  1
  Te  Te88  1  0.41890194  0.75316459  0.44153146  1
  Te  Te89  1  0.41032285  0.74606998  0.75511586  1
  Te  Te90  1  0.77067050  0.08681722  0.11003524  1
  Te  Te91  1  0.75746414  0.07657851  0.41788003  1
  Te  Te92  1  0.78521913  0.09849152  0.73244499  1
  Te  Te93  1  0.75737562  0.42689064  0.08705316  1
  Te  Te94  1  0.73964297  0.40781072  0.41786850  1
  Te  Te95  1  0.77021280  0.40438103  0.74372315  1
  Te  Te96  1  0.74137146  0.76037491  0.08942213  1
  Te  Te97  1  0.78158736  0.74956633  0.42963755  1
  Te  Te98  1  0.74618616  0.75394092  0.75953919  1
  Te  Te99  1  0.08017846  0.25369691  0.23628790  1
  Te  Te100  1  0.06655371  0.23354159  0.56735322  1
  Te  Te101  1  0.05223770  0.25857536  0.87177457  1
  Te  Te102  1  0.07947224  0.57201159  0.23538180  1
  Te  Te103  1  0.07335864  0.62268591  0.58846527  1
  Te  Te104  1  0.09570256  0.54489418  0.92977000  1
  Te  Te105  1  0.05598459  0.94794299  0.25819061  1
  Te  Te106  1  0.07390454  0.90879741  0.59470733  1
  Te  Te107  1  0.08021349  0.89031750  0.90626017  1
  Te  Te108  1  0.44192892  0.24546889  0.25769011  1
  Te  Te109  1  0.40087514  0.24581592  0.58807064  1
  Te  Te110  1  0.41817735  0.26322837  0.91285468  1
  Te  Te111  1  0.40361308  0.58209710  0.26799845  1
  Te  Te112  1  0.41799073  0.58414812  0.58249454  1
  Te  Te113  1  0.40401891  0.57845161  0.89945484  1
  Te  Te114  1  0.41358164  0.91949115  0.24209994  1
  Te  Te115  1  0.39874290  0.92755141  0.58492876  1
  Te  Te116  1  0.40803650  0.93158619  0.91923481  1
  Te  Te117  1  0.76074375  0.25855506  0.27068554  1
  Te  Te118  1  0.75135876  0.24249108  0.59918507  1
  Te  Te119  1  0.76947271  0.27096124  0.89408375  1
  Te  Te120  1  0.74964009  0.57852073  0.25100178  1
  Te  Te121  1  0.76980723  0.58005926  0.57807078  1
  Te  Te122  1  0.76010835  0.59010098  0.92948222  1
  Te  Te123  1  0.72579539  0.93021030  0.22193586  1
  Te  Te124  1  0.75939618  0.91662402  0.58211029  1
  Te  Te125  1  0.73956591  0.90565276  0.91482434  1
  Te  Te126  1  0.24051144  0.25432318  0.07347714  1
  Te  Te127  1  0.25440317  0.25428307  0.41109261  1
  Te  Te128  1  0.22538632  0.26228388  0.76197564  1
  Te  Te129  1  0.21531963  0.57567319  0.08066408  1
  Te  Te130  1  0.23303143  0.59344627  0.43346785  1
  Te  Te131  1  0.23924782  0.57239290  0.77153318  1
  Te  Te132  1  0.22450167  0.88623926  0.05378996  1
  Te  Te133  1  0.25431874  0.90931999  0.40738537  1
  Te  Te134  1  0.23548512  0.88143356  0.72906866  1
  Te  Te135  1  0.58543790  0.24423010  0.07776404  1
  Te  Te136  1  0.55920807  0.22983112  0.40978675  1
  Te  Te137  1  0.58589464  0.26792672  0.75856849  1
  Te  Te138  1  0.58726472  0.56748598  0.10460605  1
  Te  Te139  1  0.57397342  0.58736009  0.42679875  1
  Te  Te140  1  0.58038396  0.58129207  0.75803033  1
  Te  Te141  1  0.59908572  0.91933168  0.10425874  1
  Te  Te142  1  0.60344108  0.92680951  0.39170610  1
  Te  Te143  1  0.59247830  0.89875049  0.76337622  1
  Te  Te144  1  0.93560799  0.25070061  0.07416049  1
  Te  Te145  1  0.91484549  0.23674893  0.42356174  1
  Te  Te146  1  0.92969607  0.23272960  0.78054716  1
  Te  Te147  1  0.92662395  0.57063733  0.08802532  1
  Te  Te148  1  0.92041189  0.57802362  0.43453631  1
  Te  Te149  1  0.96794254  0.57713319  0.76254031  1
  Te  Te150  1  0.90286160  0.93256460  0.09287119  1
  Te  Te151  1  0.91303541  0.92715666  0.42071732  1
  Te  Te152  1  0.93497241  0.91087616  0.74550559  1
  Te  Te153  1  0.25519887  0.07210884  0.24725515  1
  Te  Te154  1  0.25518305  0.09650142  0.56108789  1
  Te  Te155  1  0.23742996  0.07353662  0.91928284  1
  Te  Te156  1  0.24684006  0.39773346  0.24387722  1
  Te  Te157  1  0.25153806  0.42936894  0.59185728  1
  Te  Te158  1  0.22000083  0.45286894  0.89862506  1
  Te  Te159  1  0.22513151  0.72615405  0.23234062  1
  Te  Te160  1  0.20524086  0.72300099  0.59150655  1
  Te  Te161  1  0.21339442  0.72013017  0.88917277  1
  Te  Te162  1  0.58635428  0.08352029  0.27233082  1
  Te  Te163  1  0.59024098  0.06789305  0.58580653  1
  Te  Te164  1  0.59230784  0.09819399  0.92384161  1
  Te  Te165  1  0.61672733  0.41202462  0.25517003  1
  Te  Te166  1  0.59738529  0.39377557  0.60448306  1
  Te  Te167  1  0.58346130  0.41958840  0.91322917  1
  Te  Te168  1  0.59744623  0.75108084  0.25179237  1
  Te  Te169  1  0.58109875  0.74187867  0.58017971  1
  Te  Te170  1  0.56853463  0.74235196  0.90936840  1
  Te  Te171  1  0.95264604  0.06557710  0.24082146  1
  Te  Te172  1  0.95622178  0.09703209  0.61384765  1
  Te  Te173  1  0.91985234  0.08262741  0.91922402  1
  Te  Te174  1  0.93400442  0.42667857  0.23941403  1
  Te  Te175  1  0.93352939  0.42468016  0.57765772  1
  Te  Te176  1  0.95400907  0.39610465  0.90048969  1
  Te  Te177  1  0.91509647  0.76137307  0.25646005  1
  Te  Te178  1  0.94299447  0.71189487  0.60642435  1
  Te  Te179  1  0.92362094  0.74737958  0.89764322  1
