# generated using pymatgen
data_In2Te3
_symmetry_space_group_name_H-M   'P 1'
_cell_length_a   18.80017575
_cell_length_b   18.79932930
_cell_length_c   18.79559228
_cell_angle_alpha   89.97498456
_cell_angle_beta   89.91066207
_cell_angle_gamma   89.94351647
_symmetry_Int_Tables_number   1
_chemical_formula_structural   In2Te3
_chemical_formula_sum   'In72 Te108'
_cell_volume   6642.92731183
_cell_formula_units_Z   36
loop_
 _symmetry_equiv_pos_site_id
 _symmetry_equiv_pos_as_xyz
  1  'x, y, z'
loop_
 _atom_site_type_symbol
 _atom_site_label
 _atom_site_symmetry_multiplicity
 _atom_site_fract_x
 _atom_site_fract_y
 _atom_site_fract_z
 _atom_site_occupancy
  In  In0  1  0.31425717  0.85913862  0.15179520  1
  In  In1  1  0.17674811  0.53267534  0.30717240  1
  In  In2  1  0.66659416  0.66929515  0.65294100  1
  In  In3  1  0.83090470  0.67296491  0.18017198  1
  In  In4  1  0.36328922  0.32628414  0.33157735  1
  In  In5  1  0.82827926  0.00208628  0.50694524  1
  In  In6  1  0.16045058  -0.00355920  0.15560550  1
  In  In7  1  0.67544633  -0.02406824  0.65061830  1
  In  In8  1  0.84776530  -0.02022517  0.15270014  1
  In  In9  1  0.65418180  0.50149440  0.50788017  1
  In  In10  1  0.81101685  0.81807210  0.34506463  1
  In  In11  1  0.51053300  0.32539694  0.82653904  1
  In  In12  1  0.50601817  0.68538768  0.18254464  1
  In  In13  1  0.53867381  0.86240939  0.35811089  1
  In  In14  1  0.49225211  0.68472486  0.82710587  1
  In  In15  1  0.83930184  0.52734336  0.34602000  1
  In  In16  1  -0.01955285  0.31229055  -0.00244236  1
  In  In17  1  0.68469359  0.50295468  0.83627939  1
  In  In18  1  0.82684152  0.50074866  0.00446221  1
  In  In19  1  0.15466221  0.82733910  0.34598991  1
  In  In20  1  -0.00794108  -0.00246980  0.32643431  1
  In  In21  1  0.52064687  0.33118988  0.51389764  1
  In  In22  1  -0.01208679  0.51799039  0.84352892  1
  In  In23  1  0.34083876  0.51670591  0.15679080  1
  In  In24  1  0.16675082  0.13818394  0.69481981  1
  In  In25  1  0.50112814  0.01345474  0.16065414  1
  In  In26  1  0.33480789  -0.00332848  0.66340077  1
  In  In27  1  0.32211116  0.16589149  0.84160224  1
  In  In28  1  0.16612731  0.15802086  0.00511087  1
  In  In29  1  0.83337873  0.52421618  0.68036600  1
  In  In30  1  0.16996579  0.51248603  0.66542397  1
  In  In31  1  0.01881847  0.49832424  0.16837960  1
  In  In32  1  0.66693036  0.82612549  0.15662675  1
  In  In33  1  0.67394002  0.15487821  0.49969225  1
  In  In34  1  0.33484039  -0.01266954  0.32363717  1
  In  In35  1  0.11865591  -0.02448575  0.82992598  1
  In  In36  1  0.15574157  0.14984527  0.33244337  1
  In  In37  1  -0.00790602  0.14299424  0.51725933  1
  In  In38  1  0.50712775  0.48508582  -0.00218227  1
  In  In39  1  0.51194941  0.31748713  0.17293727  1
  In  In40  1  -0.00715227  0.69147857  -0.02820972  1
  In  In41  1  0.52495848  0.17844475  0.66145305  1
  In  In42  1  0.50025055  0.83532057  0.00372002  1
  In  In43  1  0.14358106  0.67457758  0.15214079  1
  In  In44  1  0.51964290  0.00935210  0.85093900  1
  In  In45  1  0.48950382  0.49592799  0.64251225  1
  In  In46  1  0.17043548  0.33699457  0.13859220  1
  In  In47  1  -0.00478644  0.54499708  0.50036332  1
  In  In48  1  0.50320531  0.82295431  0.63738715  1
  In  In49  1  0.29908550  0.68019503  -0.02488521  1
  In  In50  1  -0.00415321  0.17792862  0.15204220  1
  In  In51  1  0.83593223  0.14065910  0.67600804  1
  In  In52  1  0.32439621  0.83293898  0.84483089  1
  In  In53  1  0.30686355  0.50448655  0.82875185  1
  In  In54  1  0.84723262  0.32142887  0.51090837  1
  In  In55  1  0.65919706  0.33134400  0.32622991  1
  In  In56  1  0.69052508  0.66109944  0.01029696  1
  In  In57  1  0.33683610  0.66688850  0.34503468  1
  In  In58  1  0.50716719  0.65992534  0.49920730  1
  In  In59  1  0.70463407  0.84301393  0.82580309  1
  In  In60  1  0.00627309  0.82687385  0.55266229  1
  In  In61  1  -0.00983377  0.32192182  0.37060350  1
  In  In62  1  0.83043312  0.34297308  0.15791008  1
  In  In63  1  0.17470482  0.33508136  0.84852359  1
  In  In64  1  0.16538510  0.35140637  0.49872009  1
  In  In65  1  0.84502021  -0.00060063  0.84091510  1
  In  In66  1  0.49925904  0.16172286  0.01200545  1
  In  In67  1  0.35419509  0.15589559  0.49766881  1
  In  In68  1  0.67903493  0.14690546  0.16922674  1
  In  In69  1  -0.01534267  0.31680796  0.68191902  1
  In  In70  1  0.32801235  0.50666177  0.48679549  1
  In  In71  1  0.29766096  0.80994366  0.52588954  1
  Te  Te72  1  0.05622799  0.06739303  0.06561138  1
  Te  Te73  1  0.08701379  0.05740024  0.43175000  1
  Te  Te74  1  0.04548729  0.08258685  0.75511077  1
  Te  Te75  1  0.07893027  0.42001996  0.05149291  1
  Te  Te76  1  0.08340894  0.44345714  0.40878094  1
  Te  Te77  1  0.07844110  0.41810912  0.75261409  1
  Te  Te78  1  0.06496431  0.77203040  0.07506883  1
  Te  Te79  1  0.06509426  0.75099352  0.43363887  1
  Te  Te80  1  0.04641514  0.81223640  0.70500484  1
  Te  Te81  1  0.39967200  0.06672461  0.06809126  1
  Te  Te82  1  0.42668919  0.07776183  0.39628774  1
  Te  Te83  1  0.42386210  0.08799868  0.74980236  1
  Te  Te84  1  0.41187602  0.40481920  0.08492465  1
  Te  Te85  1  0.43834881  0.42319090  0.42186589  1
  Te  Te86  1  0.41668821  0.42380813  0.75539839  1
  Te  Te87  1  0.40553871  0.73956875  0.07751140  1
  Te  Te88  1  0.42122804  0.76756395  0.41978610  1
  Te  Te89  1  0.40033197  0.75793898  0.73321468  1
  Te  Te90  1  0.74287940  0.05078899  0.07324401  1
  Te  Te91  1  0.73578297  0.05820998  0.40010417  1
  Te  Te92  1  0.73029768  0.06696728  0.75762115  1
  Te  Te93  1  0.73084019  0.42575153  0.08728874  1
  Te  Te94  1  0.75833259  0.40967267  0.42311736  1
  Te  Te95  1  0.76648198  0.41378661  0.75078541  1
  Te  Te96  1  0.77939703  0.76862621  0.06898514  1
  Te  Te97  1  0.73972503  0.74135170  0.44864434  1
  Te  Te98  1  0.76880280  0.74716001  0.73022589  1
  Te  Te99  1  0.08238930  0.26257156  0.25169344  1
  Te  Te100  1  0.08267297  0.24991800  0.58230587  1
  Te  Te101  1  0.07678701  0.23477897  0.90636096  1
  Te  Te102  1  0.05626809  0.61318056  0.26252631  1
  Te  Te103  1  0.09467597  0.61946265  0.58898531  1
  Te  Te104  1  0.09135597  0.59762042  0.91121072  1
  Te  Te105  1  0.07431721  0.90223599  0.24036039  1
  Te  Te106  1  0.12145436  0.90560958  0.61297581  1
  Te  Te107  1  0.01739688  0.90696228  0.92047065  1
  Te  Te108  1  0.42470837  0.22344037  0.24794760  1
  Te  Te109  1  0.41285334  0.25875509  0.59453378  1
  Te  Te110  1  0.41399773  0.25517181  0.92200231  1
  Te  Te111  1  0.42996588  0.57804337  0.26344482  1
  Te  Te112  1  0.39699560  0.60221869  0.58702091  1
  Te  Te113  1  0.41931331  0.58831693  0.92076550  1
  Te  Te114  1  0.43403120  0.88984389  0.24191128  1
  Te  Te115  1  0.41228702  0.91663817  0.56005275  1
  Te  Te116  1  0.41023187  0.93103191  0.92580106  1
  Te  Te117  1  0.76302058  0.24604756  0.25639875  1
  Te  Te118  1  0.75037868  0.24273731  0.59788258  1
  Te  Te119  1  0.80819558  0.21629686  0.90765415  1
  Te  Te120  1  0.74196932  0.57769037  0.24872177  1
  Te  Te121  1  0.76462368  0.59187561  0.56154186  1
  Te  Te122  1  0.77863825  0.60505664  0.89934280  1
  Te  Te123  1  0.74507685  0.91742271  0.24974017  1
  Te  Te124  1  0.77574129  0.88847686  0.58731924  1
  Te  Te125  1  0.75581747  0.92443071  0.93705801  1
  Te  Te126  1  0.26195746  0.23696623  0.08404827  1
  Te  Te127  1  0.24587275  0.25055936  0.41491152  1
  Te  Te128  1  0.25067288  0.25642782  0.74073298  1
  Te  Te129  1  0.23216662  0.57947254  0.07124877  1
  Te  Te130  1  0.22656171  0.60604093  0.43073602  1
  Te  Te131  1  0.24151324  0.61280206  0.75115950  1
  Te  Te132  1  0.22388433  0.91193881  0.05038704  1
  Te  Te133  1  0.24626137  0.91687060  0.42766217  1
  Te  Te134  1  0.23629645  0.91398973  0.74382704  1
  Te  Te135  1  0.60929476  0.24861774  0.07790833  1
  Te  Te136  1  0.57659881  0.23415646  0.41177097  1
  Te  Te137  1  0.61065990  0.23287954  0.76760500  1
  Te  Te138  1  0.57930498  0.58948830  0.08600390  1
  Te  Te139  1  0.58231935  0.57684464  0.40397086  1
  Te  Te140  1  0.57758116  0.58346983  0.74692794  1
  Te  Te141  1  0.59587123  0.93145166  0.06967473  1
  Te  Te142  1  0.62373873  0.95380135  0.43539800  1
  Te  Te143  1  0.57211010  0.89890345  0.75353236  1
  Te  Te144  1  0.87153965  0.22386449  0.06679940  1
  Te  Te145  1  0.89735955  0.21010096  0.41818774  1
  Te  Te146  1  0.89680886  0.23928900  0.77515239  1
  Te  Te147  1  0.92695050  0.58622869  0.08182688  1
  Te  Te148  1  0.91600831  0.63564825  0.41333493  1
  Te  Te149  1  0.94470680  0.61135935  0.73208495  1
  Te  Te150  1  0.95164918  0.92322978  0.06238268  1
  Te  Te151  1  0.91873792  0.90684580  0.42422437  1
  Te  Te152  1  0.91806744  0.89268719  0.76427368  1
  Te  Te153  1  0.25524773  0.08589189  0.23659691  1
  Te  Te154  1  0.24283289  0.08282250  0.57539308  1
  Te  Te155  1  0.22813116  0.06365758  0.90118590  1
  Te  Te156  1  0.25628388  0.41471418  0.25335084  1
  Te  Te157  1  0.26532111  0.41564058  0.59310578  1
  Te  Te158  1  0.25954162  0.41626712  0.93650451  1
  Te  Te159  1  0.25331292  0.74671360  0.24341517  1
  Te  Te160  1  0.21252476  0.72335558  0.61030843  1
  Te  Te161  1  0.20434621  0.76162788  0.89648218  1
  Te  Te162  1  0.58594508  0.07744993  0.26213374  1
  Te  Te163  1  0.57335874  0.06248422  0.57440321  1
  Te  Te164  1  0.60295005  0.10953761  0.91800143  1
  Te  Te165  1  0.58126357  0.42575588  0.24583190  1
  Te  Te166  1  0.60806503  0.40348114  0.61590670  1
  Te  Te167  1  0.60787157  0.40090206  0.92039986  1
  Te  Te168  1  0.60617406  0.75056700  0.27663545  1
  Te  Te169  1  0.61602432  0.76888077  0.54354780  1
  Te  Te170  1  0.59720627  0.75096443  0.91651762  1
  Te  Te171  1  0.90813482  0.09170567  0.24388416  1
  Te  Te172  1  0.93534517  0.04116777  0.61381927  1
  Te  Te173  1  0.90610792  0.10701802  0.92526952  1
  Te  Te174  1  0.92277372  0.41654592  0.25775727  1
  Te  Te175  1  0.93312243  0.42780837  0.58038547  1
  Te  Te176  1  0.90176056  0.40979418  0.90732423  1
  Te  Te177  1  0.91439908  0.77267305  0.24846777  1
  Te  Te178  1  0.91499642  0.73155410  0.62799766  1
  Te  Te179  1  0.92087011  0.78377065  0.87713866  1
