# generated using pymatgen
data_In2Te3
_symmetry_space_group_name_H-M   'P 1'
_cell_length_a   18.78768960
_cell_length_b   18.76673610
_cell_length_c   18.77300320
_cell_angle_alpha   89.93606226
_cell_angle_beta   89.99796172
_cell_angle_gamma   90.08321370
_symmetry_Int_Tables_number   1
_chemical_formula_structural   In2Te3
_chemical_formula_sum   'In72 Te108'
_cell_volume   6619.04218121
_cell_formula_units_Z   36
loop_
 _symmetry_equiv_pos_site_id
 _symmetry_equiv_pos_as_xyz
  1  'x, y, z'
loop_
 _atom_site_type_symbol
 _atom_site_label
 _atom_site_symmetry_multiplicity
 _atom_site_fract_x
 _atom_site_fract_y
 _atom_site_fract_z
 _atom_site_occupancy
  In  In0  1  0.32495229  0.84155180  0.50136017  1
  In  In1  1  0.34794434  0.32625436  0.35247319  1
  In  In2  1  -0.00596368  0.35007198  0.00907776  1
  In  In3  1  0.82089832  0.02813552  0.81697262  1
  In  In4  1  0.50401324  0.47798991  0.65564900  1
  In  In5  1  0.49940013  0.65337674  0.15279686  1
  In  In6  1  0.02905144  0.87312880  0.86469822  1
  In  In7  1  -0.02279326  0.66385363  0.30968636  1
  In  In8  1  0.67875512  0.84315568  0.16186574  1
  In  In9  1  -0.00114844  0.82045248  0.16762805  1
  In  In10  1  0.34076195  0.65057278  0.64833220  1
  In  In11  1  0.30337032  0.84605167  0.83533379  1
  In  In12  1  0.16905255  0.85181979  0.34995283  1
  In  In13  1  0.50821166  0.46914797  0.33867956  1
  In  In14  1  0.52672140  0.03865142  0.85687890  1
  In  In15  1  0.34658966  -0.00511218  0.67617801  1
  In  In16  1  0.01102344  0.00948330  0.67692177  1
  In  In17  1  0.51980071  0.30977080  0.17398585  1
  In  In18  1  0.52223356  0.47675993  -0.00730828  1
  In  In19  1  0.31784057  0.84795211  0.17365462  1
  In  In20  1  0.20609597  0.29575388  0.80953938  1
  In  In21  1  0.49455660  0.85015296  0.66028168  1
  In  In22  1  0.79192258  0.03448206  0.47814611  1
  In  In23  1  0.36714281  0.49878272  0.83100789  1
  In  In24  1  0.17673001  0.16437001  -0.00323127  1
  In  In25  1  0.16308680  0.48054969  0.02082196  1
  In  In26  1  0.83492105  0.84409468  0.64313416  1
  In  In27  1  0.15526547  0.66312955  0.84627402  1
  In  In28  1  0.30840037  0.67393117  0.34344536  1
  In  In29  1  0.65314825  0.84451091  0.82421859  1
  In  In30  1  -0.00827082  0.18730547  0.49649864  1
  In  In31  1  0.50154522  0.84659835  0.34289507  1
  In  In32  1  -0.00661491  0.48928359  0.84575974  1
  In  In33  1  0.32640531  0.17340324  0.16541216  1
  In  In34  1  0.49138661  0.17338797  0.61736380  1
  In  In35  1  0.01280112  0.50766243  0.49295130  1
  In  In36  1  0.82960088  0.33285228  0.17524683  1
  In  In37  1  0.82119511  0.31754640  0.48785729  1
  In  In38  1  0.67356404  0.65589179  0.00924783  1
  In  In39  1  -0.01462500  -0.00469364  0.32651929  1
  In  In40  1  0.65985998  0.49496539  0.50580475  1
  In  In41  1  0.49184759  0.84547084  0.02102122  1
  In  In42  1  0.00631390  0.15262101  0.17116770  1
  In  In43  1  0.00516328  0.15983095  0.83395865  1
  In  In44  1  0.81529900  0.17260125  0.65515174  1
  In  In45  1  0.83118091  0.48672355  0.32011858  1
  In  In46  1  0.32757207  0.49414402  0.17428626  1
  In  In47  1  0.19030514  0.66790295  0.48978215  1
  In  In48  1  0.82565634  0.84222799  -0.00156969  1
  In  In49  1  0.84257654  0.50702084  0.03616975  1
  In  In50  1  0.66348365  0.16907963  0.17400299  1
  In  In51  1  -0.00798504  0.68600036  0.68499713  1
  In  In52  1  0.30404314  0.64468574  -0.02786012  1
  In  In53  1  0.52024325  0.31058976  0.83300701  1
  In  In54  1  -0.01310717  0.85446962  0.49309079  1
  In  In55  1  0.65093408  0.64479083  0.66986380  1
  In  In56  1  0.33402318  0.31353874  -0.01035065  1
  In  In57  1  0.52298036  0.66286018  0.79612670  1
  In  In58  1  0.82833399  -0.00462124  0.17885718  1
  In  In59  1  0.68411344  0.65696889  0.33426818  1
  In  In60  1  0.17952340  0.01357532  0.52483871  1
  In  In61  1  0.15908472  0.50575996  0.33891085  1
  In  In62  1  0.50676569  0.01451257  0.16758234  1
  In  In63  1  -0.00355525  0.32698054  0.66255892  1
  In  In64  1  0.79193022  0.46751629  0.67835739  1
  In  In65  1  0.18238661  0.47646489  0.64854422  1
  In  In66  1  0.32410971  0.00194318  -0.00121851  1
  In  In67  1  0.65978179  0.83893263  0.49514045  1
  In  In68  1  0.83484312  0.66560955  0.84524568  1
  In  In69  1  0.81073452  0.17723897  -0.02874049  1
  In  In70  1  0.16425448  0.15696799  0.31172748  1
  In  In71  1  0.18290339  0.31823583  0.49878877  1
  Te  Te72  1  0.08258373  0.07134319  0.06918866  1
  Te  Te73  1  0.07503338  0.07293077  0.42545783  1
  Te  Te74  1  0.10863655  0.07832431  0.76451685  1
  Te  Te75  1  0.06555682  0.42256350  0.11825088  1
  Te  Te76  1  0.08017885  0.39640573  0.41447207  1
  Te  Te77  1  0.09033071  0.41025910  0.75393524  1
  Te  Te78  1  0.05075976  0.71906424  0.07544306  1
  Te  Te79  1  0.07899381  0.74782855  0.42008964  1
  Te  Te80  1  0.08978446  0.77237125  0.76049844  1
  Te  Te81  1  0.41973949  0.09572128  0.07220291  1
  Te  Te82  1  0.46403052  0.12915818  0.46761369  1
  Te  Te83  1  0.43499092  0.09604758  0.74842143  1
  Te  Te84  1  0.41772719  0.40790778  0.08591917  1
  Te  Te85  1  0.45776616  0.37494595  0.44578810  1
  Te  Te86  1  0.41658213  0.38758610  0.74478722  1
  Te  Te87  1  0.39527578  0.74469435  0.08482235  1
  Te  Te88  1  0.41649969  0.74733836  0.42424891  1
  Te  Te89  1  0.40668682  0.75478856  0.75380580  1
  Te  Te90  1  0.75251563  0.08563356  0.08038078  1
  Te  Te91  1  0.72918823  0.14952488  0.40541183  1
  Te  Te92  1  0.71498540  0.10513601  0.74509529  1
  Te  Te93  1  0.74614022  0.40226021  0.07458733  1
  Te  Te94  1  0.72974648  0.40657788  0.40304477  1
  Te  Te95  1  0.73933031  0.35427615  0.75532777  1
  Te  Te96  1  0.76873040  0.73841852  0.09577974  1
  Te  Te97  1  0.75477006  0.75308641  0.42110387  1
  Te  Te98  1  0.74643698  0.75135848  0.74395632  1
  Te  Te99  1  0.07540956  0.25611446  0.25045405  1
  Te  Te100  1  0.09692534  0.23354333  0.59732185  1
  Te  Te101  1  0.08606381  0.26851535  0.91476272  1
  Te  Te102  1  0.08281459  0.58686698  0.24174833  1
  Te  Te103  1  0.08982666  0.59405474  0.59515665  1
  Te  Te104  1  0.06862163  0.57978177  0.94203746  1
  Te  Te105  1  0.08939919  0.92546646  0.24272630  1
  Te  Te106  1  0.08989117  0.90819858  0.59118543  1
  Te  Te107  1  0.10488956  0.95532367  0.95999472  1
  Te  Te108  1  0.42905447  0.22885853  0.26531164  1
  Te  Te109  1  0.40075701  0.28291438  0.56334596  1
  Te  Te110  1  0.41374152  0.22851110  0.90142346  1
  Te  Te111  1  0.41676200  0.58260188  0.26295753  1
  Te  Te112  1  0.43450963  0.57400972  0.56640592  1
  Te  Te113  1  0.44283033  0.59540064  0.92861913  1
  Te  Te114  1  0.40920737  0.93510315  0.25806709  1
  Te  Te115  1  0.42770400  0.93986544  0.55736189  1
  Te  Te116  1  0.42805143  0.91730076  0.90165341  1
  Te  Te117  1  0.74814789  0.24928403  0.27056721  1
  Te  Te118  1  0.71977581  0.27073469  0.58982550  1
  Te  Te119  1  0.72518663  0.25502993  0.87720655  1
  Te  Te120  1  0.75819239  0.58225252  0.23232462  1
  Te  Te121  1  0.75949313  0.58314997  0.58196189  1
  Te  Te122  1  0.74727397  0.56512266  0.91276876  1
  Te  Te123  1  0.73009176  0.93056420  0.26925539  1
  Te  Te124  1  0.73560044  0.94218670  0.58981209  1
  Te  Te125  1  0.73975996  0.93447816  0.91137386  1
  Te  Te126  1  0.23122293  0.26958068  0.09363348  1
  Te  Te127  1  0.25993426  0.21538246  0.41528328  1
  Te  Te128  1  0.27216903  0.23221561  0.69646093  1
  Te  Te129  1  0.23703282  0.59108255  0.09914860  1
  Te  Te130  1  0.27175930  0.55281282  0.43232633  1
  Te  Te131  1  0.25315391  0.58189836  0.75793931  1
  Te  Te132  1  0.22727208  0.91496864  0.07414054  1
  Te  Te133  1  0.26554531  0.95221577  0.41329693  1
  Te  Te134  1  0.22844892  0.94270002  0.75266208  1
  Te  Te135  1  0.58114918  0.23209140  0.06005334  1
  Te  Te136  1  0.58642678  0.21030795  0.42960901  1
  Te  Te137  1  0.58453624  0.21771174  0.73212256  1
  Te  Te138  1  0.60153494  0.55477925  0.10015621  1
  Te  Te139  1  0.57628850  0.58552808  0.41551993  1
  Te  Te140  1  0.59893977  0.53590741  0.76507373  1
  Te  Te141  1  0.59967594  0.93866165  0.07101036  1
  Te  Te142  1  0.58730866  0.94347278  0.41605016  1
  Te  Te143  1  0.58186639  0.94684562  0.73871216  1
  Te  Te144  1  0.91217252  0.23563831  0.07436031  1
  Te  Te145  1  0.92167268  0.26339059  0.39283175  1
  Te  Te146  1  0.90708524  0.24787598  0.75641376  1
  Te  Te147  1  0.93769790  0.61132655  0.07557037  1
  Te  Te148  1  0.90468036  0.58213340  0.41729673  1
  Te  Te149  1  0.91136963  0.56741403  0.74118631  1
  Te  Te150  1  0.92226544  0.92481872  0.08227393  1
  Te  Te151  1  0.87977836  0.92478685  0.41223350  1
  Te  Te152  1  0.91372778  0.91102021  0.75645539  1
  Te  Te153  1  0.24579105  0.06658964  0.22883660  1
  Te  Te154  1  0.27093967  0.10577889  0.60090976  1
  Te  Te155  1  0.26376430  0.09478338  0.89972670  1
  Te  Te156  1  0.24797978  0.40077341  0.26290891  1
  Te  Te157  1  0.28632056  0.40053219  0.57390308  1
  Te  Te158  1  0.25470080  0.42408840  0.90858496  1
  Te  Te159  1  0.22243829  0.75074840  0.24542641  1
  Te  Te160  1  0.24395951  0.75998883  0.60105355  1
  Te  Te161  1  0.22202690  0.76840481  0.93903932  1
  Te  Te162  1  0.59213229  0.07857249  0.27068672  1
  Te  Te163  1  0.59356187  0.08774476  0.54140539  1
  Te  Te164  1  0.60582514  0.12833128  0.94413280  1
  Te  Te165  1  0.60427543  0.40558913  0.24752572  1
  Te  Te166  1  0.60134857  0.38415325  0.58926231  1
  Te  Te167  1  0.61603741  0.38189139  0.92741586  1
  Te  Te168  1  0.57425743  0.75532752  0.23961607  1
  Te  Te169  1  0.57275720  0.74488880  0.58307146  1
  Te  Te170  1  0.58486113  0.75243935  0.92663705  1
  Te  Te171  1  0.89661464  0.10237172  0.26531205  1
  Te  Te172  1  0.91368379  0.07415353  0.57762730  1
  Te  Te173  1  0.91852668  0.07494995  0.92522610  1
  Te  Te174  1  0.93447511  0.42426940  0.23167038  1
  Te  Te175  1  0.91315726  0.41914030  0.57454168  1
  Te  Te176  1  0.88829689  0.40894984  0.91717849  1
  Te  Te177  1  0.89358098  0.77481369  0.26213721  1
  Te  Te178  1  0.91265705  0.73884302  0.56564929  1
  Te  Te179  1  0.92709416  0.76352419  0.91374417  1
