# generated using pymatgen
data_In2Te3
_symmetry_space_group_name_H-M   'P 1'
_cell_length_a   18.96586243
_cell_length_b   18.97102679
_cell_length_c   18.97623079
_cell_angle_alpha   90.01310249
_cell_angle_beta   89.99952772
_cell_angle_gamma   89.94349623
_symmetry_Int_Tables_number   1
_chemical_formula_structural   In2Te3
_chemical_formula_sum   'In72 Te108'
_cell_volume   6827.68009388
_cell_formula_units_Z   36
loop_
 _symmetry_equiv_pos_site_id
 _symmetry_equiv_pos_as_xyz
  1  'x, y, z'
loop_
 _atom_site_type_symbol
 _atom_site_label
 _atom_site_symmetry_multiplicity
 _atom_site_fract_x
 _atom_site_fract_y
 _atom_site_fract_z
 _atom_site_occupancy
  In  In0  1  0.31443458  0.82547419  0.18457084  1
  In  In1  1  0.18428945  0.51661487  0.00030351  1
  In  In2  1  0.31251287  0.18730735  0.80512870  1
  In  In3  1  -0.00971783  0.17733660  0.83737573  1
  In  In4  1  0.70818656  0.68723106  0.02502649  1
  In  In5  1  0.00106706  0.84121563  0.84363454  1
  In  In6  1  -0.00522105  0.70983177  0.32388728  1
  In  In7  1  0.00558092  -0.03052959  0.64114780  1
  In  In8  1  0.15683053  0.14934929  0.34668932  1
  In  In9  1  0.02564137  0.33489470  0.34063108  1
  In  In10  1  0.80026021  0.01831820  0.82445593  1
  In  In11  1  0.84880703  0.18276979  0.00569017  1
  In  In12  1  0.50947666  0.48267659  0.34806809  1
  In  In13  1  0.48601016  0.00060535  0.84129881  1
  In  In14  1  0.32245765  0.51168743  0.16328535  1
  In  In15  1  0.51923619  0.67805122  0.17120672  1
  In  In16  1  0.01045738  0.49314941  0.49296859  1
  In  In17  1  0.29718534  0.67564413  -0.00968355  1
  In  In18  1  0.82726342  0.15146839  0.33399928  1
  In  In19  1  0.31936203  0.13134625  0.14285510  1
  In  In20  1  0.33421638  -0.01536283  0.34134573  1
  In  In21  1  0.53428020  0.83672632  0.31888924  1
  In  In22  1  0.32191027  0.32270646  -0.00349168  1
  In  In23  1  0.85135823  0.14353798  0.66448415  1
  In  In24  1  0.49924013  0.68368359  0.81708628  1
  In  In25  1  0.47946380  0.13917574  0.34415428  1
  In  In26  1  0.01002430  0.50362425  0.17275052  1
  In  In27  1  0.66140207  0.01542147  0.35183627  1
  In  In28  1  0.68307281  0.82506811  0.48436294  1
  In  In29  1  0.48710356  0.15096411  -0.00551965  1
  In  In30  1  0.66819227  0.16976829  0.18443548  1
  In  In31  1  0.85170373  0.34650484  0.47820417  1
  In  In32  1  0.48750456  0.50490344  0.64636838  1
  In  In33  1  0.84726765  0.82115651  0.64362594  1
  In  In34  1  0.50586054  0.84581812  0.02159891  1
  In  In35  1  0.31296724  0.66162212  0.33189434  1
  In  In36  1  0.65645635  0.65958732  0.67026763  1
  In  In37  1  0.82271736  0.35072264  0.83972591  1
  In  In38  1  0.67087237  0.33715132  0.66396044  1
  In  In39  1  0.01743184  0.69569403  0.03017425  1
  In  In40  1  -0.00129472  0.34146609  0.00276454  1
  In  In41  1  0.46819343  0.83743395  0.66568280  1
  In  In42  1  0.83225515  -0.02252195  0.18556767  1
  In  In43  1  0.83689118  0.51553465  -0.00158375  1
  In  In44  1  0.82674023  0.52214955  0.64413592  1
  In  In45  1  0.14371762  0.14777932  -0.00490034  1
  In  In46  1  0.32150002  0.83194057  0.49590513  1
  In  In47  1  0.50288163  0.32901851  0.19230132  1
  In  In48  1  0.69686712  0.33273778  0.01249957  1
  In  In49  1  0.14799097  0.67486425  0.82839529  1
  In  In50  1  0.07513876  0.31364252  0.66910849  1
  In  In51  1  0.17706397  0.14721486  0.63259258  1
  In  In52  1  -0.00307329  -0.01953775  0.03117081  1
  In  In53  1  0.34138544  0.33438932  0.34846669  1
  In  In54  1  0.49594280  0.17645162  0.64548472  1
  In  In55  1  0.83663815  0.53403674  0.31615387  1
  In  In56  1  0.68585014  0.35037645  0.33909769  1
  In  In57  1  0.17255193  0.50331140  0.34796547  1
  In  In58  1  0.48899501  0.65981141  0.49096679  1
  In  In59  1  0.48316494  0.33276104  0.49581631  1
  In  In60  1  0.35005798  0.49951319  0.81731102  1
  In  In61  1  0.51341866  0.50361578  0.00383246  1
  In  In62  1  0.31723365  -0.02971642  0.00148221  1
  In  In63  1  0.66124822  -0.02405725  0.02328660  1
  In  In64  1  -0.01325878  -0.05099144  0.33788432  1
  In  In65  1  0.50341228  0.36255958  0.81338113  1
  In  In66  1  0.66414481  0.16487880  0.48852258  1
  In  In67  1  0.17212396  0.01165356  0.81052794  1
  In  In68  1  0.65714839  0.83379910  0.83502757  1
  In  In69  1  0.85308411  0.64725336  0.82794529  1
  In  In70  1  0.17102875  0.84357962  0.65700082  1
  In  In71  1  0.18442120  0.48709630  0.64702369  1
  Te  Te72  1  0.08406041  0.07110068  0.10377971  1
  Te  Te73  1  0.08252907  0.03727391  0.41369086  1
  Te  Te74  1  0.06272449  0.08668985  0.73903846  1
  Te  Te75  1  0.10099792  0.42120425  0.08466395  1
  Te  Te76  1  0.11799426  0.39796940  0.44206579  1
  Te  Te77  1  0.09013773  0.43392118  0.74773275  1
  Te  Te78  1  0.09207018  0.79887233  0.10506257  1
  Te  Te79  1  0.05272980  0.77762750  0.44777123  1
  Te  Te80  1  0.06548230  0.75971955  0.73446407  1
  Te  Te81  1  0.42677564  0.04306188  0.08058868  1
  Te  Te82  1  0.36993282  0.09675532  0.43338003  1
  Te  Te83  1  0.41055194  0.09026186  0.74483794  1
  Te  Te84  1  0.41622205  0.41058012  0.08647518  1
  Te  Te85  1  0.38698046  0.45024008  0.44277620  1
  Te  Te86  1  0.39578608  0.39736939  0.71190950  1
  Te  Te87  1  0.40698693  0.74128852  0.08846079  1
  Te  Te88  1  0.42178853  0.75547231  0.39265972  1
  Te  Te89  1  0.38727183  0.74156067  0.74440636  1
  Te  Te90  1  0.75485226  0.08494464  0.09102454  1
  Te  Te91  1  0.77149841  0.06475793  0.44412158  1
  Te  Te92  1  0.72778188  0.09044005  0.72092527  1
  Te  Te93  1  0.77860947  0.42019342  0.09334190  1
  Te  Te94  1  0.75818099  0.45109156  0.42256426  1
  Te  Te95  1  0.74390685  0.43961520  0.74705537  1
  Te  Te96  1  0.76629909  0.78185192  0.12034260  1
  Te  Te97  1  0.79901336  0.79571952  0.39280983  1
  Te  Te98  1  0.75621384  0.75022790  0.75390626  1
  Te  Te99  1  0.10224997  0.24796024  0.25240940  1
  Te  Te100  1  0.06701431  0.21440004  0.56339837  1
  Te  Te101  1  0.09140866  0.26217399  0.90986479  1
  Te  Te102  1  0.08530920  0.59516985  0.26446625  1
  Te  Te103  1  0.10327394  0.58223889  0.56558447  1
  Te  Te104  1  0.07321872  0.59279379  0.93132777  1
  Te  Te105  1  0.03807611  0.84306418  0.24311299  1
  Te  Te106  1  0.13046838  0.95723550  0.55501156  1
  Te  Te107  1  0.09152733  0.93709937  0.91544286  1
  Te  Te108  1  0.40085604  0.22778662  0.23870301  1
  Te  Te109  1  0.39141233  0.24481129  0.56752361  1
  Te  Te110  1  0.42547952  0.25841633  0.90420792  1
  Te  Te111  1  0.42544120  0.57607479  0.25336023  1
  Te  Te112  1  0.40870686  0.62369905  0.60898451  1
  Te  Te113  1  0.41230920  0.58807010  0.92873779  1
  Te  Te114  1  0.42503634  0.91123211  0.24336374  1
  Te  Te115  1  0.39147948  0.93157472  0.58114798  1
  Te  Te116  1  0.41062404  0.88981724  0.91224745  1
  Te  Te117  1  0.76838308  0.26256966  0.24664385  1
  Te  Te118  1  0.75541601  0.25980722  0.56384025  1
  Te  Te119  1  0.74787039  0.23679252  0.90634182  1
  Te  Te120  1  0.75175532  0.62655911  0.23745979  1
  Te  Te121  1  0.75254161  0.62297291  0.56655392  1
  Te  Te122  1  0.73870023  0.59071258  0.91070394  1
  Te  Te123  1  0.74990643  0.91142437  0.29023234  1
  Te  Te124  1  0.74675203  0.90844600  0.58562796  1
  Te  Te125  1  0.75417699  0.91080287  0.92232002  1
  Te  Te126  1  0.23316400  0.24187123  0.08456319  1
  Te  Te127  1  0.25901497  0.23537172  0.41986074  1
  Te  Te128  1  0.21309455  0.26348750  0.72573883  1
  Te  Te129  1  0.22590897  0.61445539  0.11024229  1
  Te  Te130  1  0.22855997  0.60619379  0.44043899  1
  Te  Te131  1  0.24558428  0.58646978  0.75359310  1
  Te  Te132  1  0.22281346  0.90259362  0.09439381  1
  Te  Te133  1  0.23198327  0.88784308  0.38968841  1
  Te  Te134  1  0.26142222  0.91504703  0.74945010  1
  Te  Te135  1  0.57493891  0.24637929  0.08340110  1
  Te  Te136  1  0.57435575  0.25435980  0.39170050  1
  Te  Te137  1  0.58197941  0.24993266  0.74920432  1
  Te  Te138  1  0.60631380  0.58564826  0.08803282  1
  Te  Te139  1  0.59021114  0.57507219  0.42728648  1
  Te  Te140  1  0.57392369  0.56777693  0.75833406  1
  Te  Te141  1  0.60818859  0.87963260  0.12161703  1
  Te  Te142  1  0.57109545  0.92569252  0.43396725  1
  Te  Te143  1  0.57281063  0.92028913  0.74601361  1
  Te  Te144  1  0.93883996  0.24856968  0.09802517  1
  Te  Te145  1  0.92758554  0.23700286  0.40929634  1
  Te  Te146  1  0.90536598  0.26251028  0.74550109  1
  Te  Te147  1  0.92025877  0.59787665  0.09576260  1
  Te  Te148  1  0.93126019  0.59599695  0.41439834  1
  Te  Te149  1  0.93315946  0.58101342  0.72682894  1
  Te  Te150  1  0.89113144  0.88951187  0.08084654  1
  Te  Te151  1  0.92425971  0.87208124  0.45295633  1
  Te  Te152  1  0.90632476  0.92478251  0.75602411  1
  Te  Te153  1  0.24017834  0.05966452  0.24670138  1
  Te  Te154  1  0.25694932  0.03958720  0.57294618  1
  Te  Te155  1  0.26992070  0.09382312  0.91809514  1
  Te  Te156  1  0.25220216  0.41201244  0.25159203  1
  Te  Te157  1  0.29725646  0.43311030  0.56941498  1
  Te  Te158  1  0.25172990  0.41930907  0.90489658  1
  Te  Te159  1  0.21848939  0.76522863  0.28209542  1
  Te  Te160  1  0.23375574  0.74081331  0.57135303  1
  Te  Te161  1  0.21660750  0.77065469  0.91655321  1
  Te  Te162  1  0.57094171  0.07153570  0.24215908  1
  Te  Te163  1  0.57192948  0.08111680  0.56374314  1
  Te  Te164  1  0.59341581  0.07122871  0.92227953  1
  Te  Te165  1  0.60487557  0.43005432  0.23799684  1
  Te  Te166  1  0.58566531  0.41849373  0.56780021  1
  Te  Te167  1  0.59880748  0.41082491  0.92172680  1
  Te  Te168  1  0.61245949  0.71554865  0.28044037  1
  Te  Te169  1  0.57580892  0.75890919  0.58448480  1
  Te  Te170  1  0.58523981  0.74191074  0.93371687  1
  Te  Te171  1  0.92806272  0.06962138  0.25635497  1
  Te  Te172  1  0.92580066  0.06657820  0.56492545  1
  Te  Te173  1  0.91662105  0.07391562  0.92051738  1
  Te  Te174  1  0.92443604  0.42019061  0.26441779  1
  Te  Te175  1  0.92553948  0.41298764  0.59100744  1
  Te  Te176  1  0.92769074  0.43550061  0.90680686  1
  Te  Te177  1  0.85995339  0.73285530  0.24814868  1
  Te  Te178  1  0.95186301  0.75643213  0.56390421  1
  Te  Te179  1  0.91618208  0.74548655  0.92410433  1
