# generated using pymatgen
data_In2Te3
_symmetry_space_group_name_H-M   'P 1'
_cell_length_a   18.95595813
_cell_length_b   18.94580961
_cell_length_c   18.96291720
_cell_angle_alpha   90.07588526
_cell_angle_beta   89.92657390
_cell_angle_gamma   89.90741207
_symmetry_Int_Tables_number   1
_chemical_formula_structural   In2Te3
_chemical_formula_sum   'In72 Te108'
_cell_volume   6810.24525913
_cell_formula_units_Z   36
loop_
 _symmetry_equiv_pos_site_id
 _symmetry_equiv_pos_as_xyz
  1  'x, y, z'
loop_
 _atom_site_type_symbol
 _atom_site_label
 _atom_site_symmetry_multiplicity
 _atom_site_fract_x
 _atom_site_fract_y
 _atom_site_fract_z
 _atom_site_occupancy
  In  In0  1  0.01019920  0.16152174  0.17120887  1
  In  In1  1  0.32135863  0.49884844  0.16821344  1
  In  In2  1  0.67867907  0.66497732  0.65430688  1
  In  In3  1  0.34720758  -0.01188255  0.68245874  1
  In  In4  1  0.01043514  0.66875142  0.31260567  1
  In  In5  1  0.48209815  0.29527265  0.21991668  1
  In  In6  1  0.00195502  0.49707809  0.50599684  1
  In  In7  1  0.51376436  0.00093560  0.82130781  1
  In  In8  1  0.04552053  0.82758025  0.48071749  1
  In  In9  1  0.16095449  0.32606716  0.16412919  1
  In  In10  1  0.00037969  0.02541958  0.69264785  1
  In  In11  1  0.69899919  0.01717211  0.01117514  1
  In  In12  1  0.48867318  0.51797566  0.34187577  1
  In  In13  1  0.85564738  0.81087260  0.65347808  1
  In  In14  1  0.84127190  0.01875429  0.84091659  1
  In  In15  1  0.32457947  0.35422726  0.00918734  1
  In  In16  1  0.16664840  0.15877632  0.00963454  1
  In  In17  1  0.02359936  0.83439131  0.85749815  1
  In  In18  1  0.31641601  0.19662030  0.84087786  1
  In  In19  1  0.84243090  0.34058416  0.17700084  1
  In  In20  1  0.84526423  0.67161196  0.82051131  1
  In  In21  1  0.46666811  0.80619659  0.35765077  1
  In  In22  1  0.47321789  0.80887415  0.63369637  1
  In  In23  1  0.49031312  0.81751541  0.01175032  1
  In  In24  1  0.19261441  0.34202749  0.49786519  1
  In  In25  1  0.47330278  0.64060239  0.86230245  1
  In  In26  1  0.15945993  0.50345235  0.00213944  1
  In  In27  1  0.68067812  0.16842279  0.81760381  1
  In  In28  1  0.17620184  0.84071747  0.00401916  1
  In  In29  1  0.65479098  0.32735436  0.64101554  1
  In  In30  1  0.83462413  0.49013931  0.01692358  1
  In  In31  1  0.48066395  0.16926322  0.01174674  1
  In  In32  1  0.00303413  0.84250790  0.17749922  1
  In  In33  1  0.17555116  0.50941414  0.34689701  1
  In  In34  1  -0.00611699  0.51682263  0.82446151  1
  In  In35  1  0.82587093  0.67317158  0.48400419  1
  In  In36  1  0.00640748  0.18944219  0.87142164  1
  In  In37  1  0.51075026  -0.00481529  0.52245900  1
  In  In38  1  0.00065151  -0.00681125  0.31571026  1
  In  In39  1  0.19550223  0.81348324  0.64295928  1
  In  In40  1  0.50419298  0.38557366  0.82488605  1
  In  In41  1  0.17832263  0.67921947  0.19442348  1
  In  In42  1  0.84701639  0.35458804  0.83056991  1
  In  In43  1  0.48476253  0.53926176  0.64730074  1
  In  In44  1  0.17084121  0.17692073  0.67804596  1
  In  In45  1  0.48752986  0.34030189  0.47156954  1
  In  In46  1  0.67522492  0.00866182  0.33567934  1
  In  In47  1  0.51334065  -0.01053216  0.18938832  1
  In  In48  1  0.16580916  0.00477665  0.49471669  1
  In  In49  1  0.32639864  0.00181150  0.33567477  1
  In  In50  1  0.02879826  0.63519019  0.66977000  1
  In  In51  1  0.61653897  0.83846198  0.83963699  1
  In  In52  1  0.03049117  0.34885253  0.65325867  1
  In  In53  1  0.62806658  0.33189925  -0.00791630  1
  In  In54  1  0.20144983  0.64406961  0.80978442  1
  In  In55  1  0.67723623  0.81276907  0.47705719  1
  In  In56  1  0.49857796  0.18059968  0.62952519  1
  In  In57  1  0.82333839  0.83475779  0.03282864  1
  In  In58  1  0.81817410  0.18988868  0.66025883  1
  In  In59  1  0.49772600  0.63672998  0.13204884  1
  In  In60  1  -0.02599267  0.17093443  0.46883181  1
  In  In61  1  0.33417360  0.83076150  0.80617421  1
  In  In62  1  0.33136495  -0.01927014  0.02773068  1
  In  In63  1  0.35170407  0.17381384  0.49311305  1
  In  In64  1  0.65831978  0.48124904  0.84635467  1
  In  In65  1  0.83378624  0.35381062  0.45489603  1
  In  In66  1  0.82555547  0.18244043  0.03353267  1
  In  In67  1  0.65749190  0.83186809  0.17521776  1
  In  In68  1  0.83421855  -0.01245992  0.47986271  1
  In  In69  1  -0.01749997  0.63997938  0.02579883  1
  In  In70  1  0.66580899  0.35117574  0.33347129  1
  In  In71  1  0.66753348  0.63457323  0.29692318  1
  Te  Te72  1  0.11548989  0.07379405  0.11612749  1
  Te  Te73  1  0.08270899  0.08917423  0.40062857  1
  Te  Te74  1  0.09490951  0.09700193  0.78295849  1
  Te  Te75  1  0.07928405  0.43816120  0.10578424  1
  Te  Te76  1  0.08407689  0.40747230  0.41415486  1
  Te  Te77  1  0.09231481  0.42802750  0.75879896  1
  Te  Te78  1  0.08180813  0.73841405  0.08382072  1
  Te  Te79  1  0.11693832  0.71217324  0.41423644  1
  Te  Te80  1  0.09109484  0.75280940  0.74589995  1
  Te  Te81  1  0.41228294  0.07853892  0.11005850  1
  Te  Te82  1  0.43587524  0.07353344  0.41767684  1
  Te  Te83  1  0.42135658  0.10168925  0.75036189  1
  Te  Te84  1  0.42149265  0.39523633  0.11671642  1
  Te  Te85  1  0.38502291  0.42627970  0.40526447  1
  Te  Te86  1  0.40694876  0.44640171  0.73308403  1
  Te  Te87  1  0.39766624  0.73575177  0.08781333  1
  Te  Te88  1  0.38762314  0.72014961  0.45103542  1
  Te  Te89  1  0.41695752  0.72024253  0.74409913  1
  Te  Te90  1  0.76171446  0.08518355  0.12455483  1
  Te  Te91  1  0.76835397  0.09590468  0.40943081  1
  Te  Te92  1  0.75127412  0.06850218  0.72843343  1
  Te  Te93  1  0.73382634  0.39556965  0.07812892  1
  Te  Te94  1  0.72569633  0.45154169  0.42643771  1
  Te  Te95  1  0.74087473  0.40965597  0.73889853  1
  Te  Te96  1  0.72544496  0.74022521  0.08128489  1
  Te  Te97  1  0.75620269  0.74328465  0.37024825  1
  Te  Te98  1  0.74287548  0.76385644  0.75375292  1
  Te  Te99  1  0.06529965  0.26630989  0.26033749  1
  Te  Te100  1  0.08176035  0.23384520  0.56574957  1
  Te  Te101  1  0.11328934  0.26924926  0.92865650  1
  Te  Te102  1  0.08644393  0.56003533  0.23381020  1
  Te  Te103  1  0.11550848  0.57758076  0.56374856  1
  Te  Te104  1  0.08102648  0.61061216  0.90748059  1
  Te  Te105  1  0.10726044  0.90188238  0.26462111  1
  Te  Te106  1  0.07265993  0.93034802  0.59586879  1
  Te  Te107  1  0.09618694  0.93792216  0.92762077  1
  Te  Te108  1  0.37312966  0.22074947  0.28729471  1
  Te  Te109  1  0.39666886  0.28146662  0.58963316  1
  Te  Te110  1  0.42986260  0.27491121  0.91302549  1
  Te  Te111  1  0.40228827  0.60103527  0.24700858  1
  Te  Te112  1  0.39095795  0.58662356  0.53995764  1
  Te  Te113  1  0.38148511  0.54976339  0.92621213  1
  Te  Te114  1  0.40933289  0.89865649  0.25145430  1
  Te  Te115  1  0.38973586  0.91146713  0.56009867  1
  Te  Te116  1  0.41722407  0.91512444  0.90427337  1
  Te  Te117  1  0.76238166  0.25844224  0.26913571  1
  Te  Te118  1  0.74852905  0.25655780  0.54568387  1
  Te  Te119  1  0.75721484  0.25731216  0.91376010  1
  Te  Te120  1  0.76857352  0.52956362  0.24595881  1
  Te  Te121  1  0.75842324  0.57538611  0.57021210  1
  Te  Te122  1  0.76891263  0.57085811  0.90422441  1
  Te  Te123  1  0.74993283  0.92170024  0.24307196  1
  Te  Te124  1  0.75691756  0.89737095  0.57549386  1
  Te  Te125  1  0.73580439  0.92142355  0.89752391  1
  Te  Te126  1  0.26681515  0.24277215  0.09084638  1
  Te  Te127  1  0.24842033  0.23686027  0.40428587  1
  Te  Te128  1  0.24751084  0.28130218  0.74536081  1
  Te  Te129  1  0.24572233  0.59886603  0.08215181  1
  Te  Te130  1  0.30008915  0.56058456  0.41199030  1
  Te  Te131  1  0.25351587  0.54493890  0.71469376  1
  Te  Te132  1  0.23913812  0.91150752  0.11752013  1
  Te  Te133  1  0.24443484  0.90578947  0.41648101  1
  Te  Te134  1  0.22836494  0.92254189  0.74622298  1
  Te  Te135  1  0.57828413  0.24013660  0.10136634  1
  Te  Te136  1  0.57536310  0.25041021  0.39738796  1
  Te  Te137  1  0.57687203  0.26018803  0.75555139  1
  Te  Te138  1  0.60559139  0.55892415  0.07563065  1
  Te  Te139  1  0.60055475  0.58009845  0.41689095  1
  Te  Te140  1  0.59239698  0.58785528  0.75439146  1
  Te  Te141  1  0.58037492  0.92868595  0.06187297  1
  Te  Te142  1  0.57432357  0.90361568  0.41082627  1
  Te  Te143  1  0.56655425  0.90630212  0.71467974  1
  Te  Te144  1  0.93660007  0.26886712  0.08198824  1
  Te  Te145  1  0.91832461  0.26483687  0.36927551  1
  Te  Te146  1  0.92540054  0.24962078  0.75043103  1
  Te  Te147  1  0.87803130  0.59020071  0.11916430  1
  Te  Te148  1  0.92466236  0.58429278  0.40906228  1
  Te  Te149  1  0.89931961  0.57293325  0.71962938  1
  Te  Te150  1  0.92833131  0.92223515  0.07699516  1
  Te  Te151  1  0.92856903  0.89321350  0.40891274  1
  Te  Te152  1  0.91767471  0.90799692  0.75530506  1
  Te  Te153  1  0.25563630  0.11987115  0.28101138  1
  Te  Te154  1  0.25956337  0.08437181  0.58823424  1
  Te  Te155  1  0.27337845  0.08133159  0.92432400  1
  Te  Te156  1  0.24955125  0.40522099  0.26087755  1
  Te  Te157  1  0.21323507  0.45203728  0.59556460  1
  Te  Te158  1  0.26531065  0.44757711  0.90897331  1
  Te  Te159  1  0.21712609  0.76450595  0.31005451  1
  Te  Te160  1  0.29213115  0.72573917  0.57694747  1
  Te  Te161  1  0.25495881  0.74982056  0.90594194  1
  Te  Te162  1  0.57941392  0.09544643  0.26508213  1
  Te  Te163  1  0.60317191  0.09105658  0.58367592  1
  Te  Te164  1  0.59089047  0.09519851  0.92005389  1
  Te  Te165  1  0.56188717  0.42238098  0.24715104  1
  Te  Te166  1  0.56144025  0.42480369  0.57576383  1
  Te  Te167  1  0.55532296  0.46680013  0.96315983  1
  Te  Te168  1  0.56373333  0.74212960  0.25290670  1
  Te  Te169  1  0.57960337  0.73021125  0.55924503  1
  Te  Te170  1  0.58086506  0.72356801  0.93159711  1
  Te  Te171  1  0.90855441  0.07492093  0.23533062  1
  Te  Te172  1  0.91175240  0.08536536  0.58445413  1
  Te  Te173  1  0.91782491  0.09109290  0.94633887  1
  Te  Te174  1  0.89034676  0.44942518  0.26467585  1
  Te  Te175  1  0.91030779  0.40182807  0.58209770  1
  Te  Te176  1  0.93964175  0.42070924  0.92944283  1
  Te  Te177  1  0.91069895  0.74504686  0.23749807  1
  Te  Te178  1  0.95094258  0.73329125  0.56642381  1
  Te  Te179  1  0.91397695  0.75321886  0.92778134  1
