# generated using pymatgen
data_In2Te3
_symmetry_space_group_name_H-M   'P 1'
_cell_length_a   18.77018466
_cell_length_b   18.76767977
_cell_length_c   18.76984489
_cell_angle_alpha   89.88985369
_cell_angle_beta   89.94590704
_cell_angle_gamma   89.93635491
_symmetry_Int_Tables_number   1
_chemical_formula_structural   In2Te3
_chemical_formula_sum   'In72 Te108'
_cell_volume   6612.08686370
_cell_formula_units_Z   36
loop_
 _symmetry_equiv_pos_site_id
 _symmetry_equiv_pos_as_xyz
  1  'x, y, z'
loop_
 _atom_site_type_symbol
 _atom_site_label
 _atom_site_symmetry_multiplicity
 _atom_site_fract_x
 _atom_site_fract_y
 _atom_site_fract_z
 _atom_site_occupancy
  In  In0  1  0.86881528  0.04039442  0.18685002  1
  In  In1  1  0.19193237  0.36085852  0.52340697  1
  In  In2  1  0.15150062  0.50091647  0.32485825  1
  In  In3  1  0.00518525  0.66375772  0.65685480  1
  In  In4  1  0.81658859  0.50418407  0.65645606  1
  In  In5  1  0.50643538  0.33796300  0.18410374  1
  In  In6  1  0.69190756  0.00418697  -0.01002953  1
  In  In7  1  0.82447036  0.14462719  0.65172882  1
  In  In8  1  0.16684291  0.17539395  0.31457911  1
  In  In9  1  0.32710060  0.49752768  0.16606478  1
  In  In10  1  0.02201008  0.17210124  0.83453845  1
  In  In11  1  0.34876353  0.66490196  0.32914088  1
  In  In12  1  0.49668840  0.82262108  0.36058054  1
  In  In13  1  0.64047886  0.33312446  0.68356944  1
  In  In14  1  0.01455497  0.82817785  0.48954135  1
  In  In15  1  0.13255711  0.00490753  0.17274987  1
  In  In16  1  0.18392162  0.83045018  0.66214787  1
  In  In17  1  0.31127196  0.20096901  0.15082542  1
  In  In18  1  0.19394851  0.63088166  0.80605785  1
  In  In19  1  0.17195541  0.67548061  0.51059052  1
  In  In20  1  0.49363462  0.19623386  0.00175307  1
  In  In21  1  0.50851347  0.17267474  0.66916256  1
  In  In22  1  0.84083976  0.65645507  0.15163231  1
  In  In23  1  0.49273631  0.81981340  0.62842229  1
  In  In24  1  0.83149398  0.83325745  -0.01612358  1
  In  In25  1  -0.00577620  0.66587578  0.00805742  1
  In  In26  1  0.33239785  0.01356627  -0.02433027  1
  In  In27  1  0.65661879  -0.00457457  0.66800961  1
  In  In28  1  0.84991881  0.33831755  0.48090709  1
  In  In29  1  0.65134184  0.83046499  0.18565127  1
  In  In30  1  0.51314070  -0.01360872  0.83063286  1
  In  In31  1  0.48041381  0.82061789  0.01284542  1
  In  In32  1  0.17585465  0.66155898  0.19181840  1
  In  In33  1  0.82254048  0.81520139  0.33904778  1
  In  In34  1  0.32899653  -0.01307244  0.35988886  1
  In  In35  1  0.32915871  0.81232494  0.14834201  1
  In  In36  1  0.17237932  0.00175127  0.48932746  1
  In  In37  1  0.84251585  0.49991680  0.33512346  1
  In  In38  1  0.17953499  0.81321021  -0.01045378  1
  In  In39  1  -0.00789528  0.19088908  0.48594965  1
  In  In40  1  0.83371886  0.18330295  0.01557228  1
  In  In41  1  0.80858938  0.79360553  0.69802242  1
  In  In42  1  0.00350511  0.48717207  0.84728719  1
  In  In43  1  0.33923867  0.14551793  0.48577545  1
  In  In44  1  0.82977849  -0.01136954  0.50139900  1
  In  In45  1  0.64800778  0.63479257  0.35837598  1
  In  In46  1  0.66671460  0.63294983  -0.01942537  1
  In  In47  1  -0.01112018  0.84476110  0.19617782  1
  In  In48  1  0.18215117  0.14343748  0.64566620  1
  In  In49  1  0.83470501  0.34744873  0.84944550  1
  In  In50  1  0.33612278  0.17030914  0.84664913  1
  In  In51  1  0.66289103  0.35526023  -0.00034615  1
  In  In52  1  0.49572981  0.67440889  0.81787818  1
  In  In53  1  0.48466639  0.35011602  0.50492289  1
  In  In54  1  0.65925348  -0.01223949  0.33789700  1
  In  In55  1  0.66725309  0.34846161  0.32567807  1
  In  In56  1  0.81831899  0.65308374  0.48685882  1
  In  In57  1  0.65961613  0.16978710  0.50652874  1
  In  In58  1  0.18753909  0.00912340  0.81909741  1
  In  In59  1  -0.01477916  0.83566538  0.83920247  1
  In  In60  1  0.32566161  0.36213790  0.68848463  1
  In  In61  1  0.81834222  0.34377321  0.16097458  1
  In  In62  1  0.48401495  0.51516492  0.66165156  1
  In  In63  1  0.50712446  0.01048809  0.18500945  1
  In  In64  1  0.01402626  0.02297507  0.01512358  1
  In  In65  1  -0.00461843  0.34933879  0.68269655  1
  In  In66  1  0.15795728  0.34268795  0.86311759  1
  In  In67  1  0.34659595  0.34746304  0.32990548  1
  In  In68  1  0.50157780  0.50190801  -0.00329772  1
  In  In69  1  0.33384297  0.66281646  -0.00867275  1
  In  In70  1  0.01625631  0.32749342  0.32569555  1
  In  In71  1  0.82293241  0.00466794  0.81228651  1
  Te  Te72  1  0.09384011  0.12181805  0.09037980  1
  Te  Te73  1  0.07412213  0.08572483  0.40127035  1
  Te  Te74  1  0.07532999  0.07112421  0.73557287  1
  Te  Te75  1  0.13699433  0.39334042  0.02123144  1
  Te  Te76  1  0.08126578  0.41606727  0.43212620  1
  Te  Te77  1  0.10575308  0.43104433  0.74538590  1
  Te  Te78  1  0.07939421  0.76223741  0.09380758  1
  Te  Te79  1  0.07941418  0.72728766  0.40528991  1
  Te  Te80  1  0.08512511  0.74867452  0.76107237  1
  Te  Te81  1  0.41268124  0.08702988  0.08356629  1
  Te  Te82  1  0.43836156  0.07714840  0.40056970  1
  Te  Te83  1  0.41901255  0.08049816  0.75493539  1
  Te  Te84  1  0.41574006  0.40594196  0.08161000  1
  Te  Te85  1  0.40648363  0.44592515  0.42157282  1
  Te  Te86  1  0.44305864  0.41165181  0.76321090  1
  Te  Te87  1  0.42984133  0.70712849  0.10175377  1
  Te  Te88  1  0.40947888  0.73654056  0.44843238  1
  Te  Te89  1  0.40223648  0.73210902  0.71476294  1
  Te  Te90  1  0.74806466  0.08958520  0.10190259  1
  Te  Te91  1  0.75274780  0.08803382  0.41642538  1
  Te  Te92  1  0.71988492  0.10328697  0.75573459  1
  Te  Te93  1  0.74064400  0.44726695  0.08579194  1
  Te  Te94  1  0.74181677  0.43287861  0.43019011  1
  Te  Te95  1  0.73689499  0.42487236  0.76105686  1
  Te  Te96  1  0.74300848  0.75544608  0.08374443  1
  Te  Te97  1  0.71240036  0.76307694  0.43159500  1
  Te  Te98  1  0.72788026  0.68777740  0.76908451  1
  Te  Te99  1  0.09279345  0.25946158  0.21628201  1
  Te  Te100  1  0.08755073  0.25519969  0.58911909  1
  Te  Te101  1  0.04418290  0.27566592  0.93801797  1
  Te  Te102  1  0.06678813  0.56774401  0.22208102  1
  Te  Te103  1  0.09371605  0.57193975  0.58445976  1
  Te  Te104  1  0.09328854  0.59097092  0.91603811  1
  Te  Te105  1  0.09660843  0.90625814  0.27567418  1
  Te  Te106  1  0.08476354  0.92048823  0.58842041  1
  Te  Te107  1  0.08721071  0.92021407  0.91770208  1
  Te  Te108  1  0.41680448  0.23485301  0.25666993  1
  Te  Te109  1  0.39864991  0.24992003  0.59020605  1
  Te  Te110  1  0.41060087  0.27978438  0.91256846  1
  Te  Te111  1  0.42765444  0.56028745  0.25773254  1
  Te  Te112  1  0.44135437  0.61221879  0.55279430  1
  Te  Te113  1  0.40945182  0.57369754  0.89526332  1
  Te  Te114  1  0.41906686  0.90039684  0.24324337  1
  Te  Te115  1  0.39820293  0.92777922  0.59525443  1
  Te  Te116  1  0.40766502  0.90083393  0.90479076  1
  Te  Te117  1  0.74704930  0.24881100  0.25129128  1
  Te  Te118  1  0.75542899  0.26749859  0.58658835  1
  Te  Te119  1  0.73975550  0.24763099  0.91592335  1
  Te  Te120  1  0.74808994  0.58670284  0.25146941  1
  Te  Te121  1  0.72780568  0.61069957  0.59820062  1
  Te  Te122  1  0.76645348  0.58936894  0.88335269  1
  Te  Te123  1  0.76513819  0.91918098  0.23838717  1
  Te  Te124  1  0.75213214  0.90020175  0.59754288  1
  Te  Te125  1  0.73616863  0.90083203  0.88565637  1
  Te  Te126  1  0.25592333  0.29138544  0.04831470  1
  Te  Te127  1  0.24427350  0.25322099  0.42412162  1
  Te  Te128  1  0.23669987  0.24477663  0.74852845  1
  Te  Te129  1  0.23551070  0.58244435  0.07581465  1
  Te  Te130  1  0.24747428  0.58133972  0.40965229  1
  Te  Te131  1  0.28026856  0.53674915  0.73132810  1
  Te  Te132  1  0.24914333  0.92217340  0.07594429  1
  Te  Te133  1  0.25571866  0.88840701  0.44169503  1
  Te  Te134  1  0.27372536  0.91326774  0.74840081  1
  Te  Te135  1  0.59809036  0.25256591  0.09631355  1
  Te  Te136  1  0.57490551  0.26032293  0.41856698  1
  Te  Te137  1  0.56379534  0.25265030  0.78046938  1
  Te  Te138  1  0.59256750  0.57181648  0.09205124  1
  Te  Te139  1  0.55433549  0.57724342  0.45846790  1
  Te  Te140  1  0.59172100  0.60046593  0.72785968  1
  Te  Te141  1  0.58273820  0.92030145  0.07375530  1
  Te  Te142  1  0.58085183  0.91457943  0.44192538  1
  Te  Te143  1  0.58336760  0.88477284  0.74279185  1
  Te  Te144  1  0.92527349  0.25468024  0.10440966  1
  Te  Te145  1  0.89662527  0.23966999  0.37463929  1
  Te  Te146  1  0.90686599  0.24209313  0.74838961  1
  Te  Te147  1  0.91356336  0.55571737  0.06845190  1
  Te  Te148  1  0.92985673  0.58475802  0.42028463  1
  Te  Te149  1  0.92137712  0.57144436  0.74617744  1
  Te  Te150  1  0.91447414  0.92135430  0.07755764  1
  Te  Te151  1  0.91991721  0.91469081  0.40351503  1
  Te  Te152  1  0.90995850  0.91051089  0.72994905  1
  Te  Te153  1  0.26069295  0.07669128  0.24405980  1
  Te  Te154  1  0.28993405  0.04269731  0.59274677  1
  Te  Te155  1  0.22158298  0.10892030  0.93012799  1
  Te  Te156  1  0.23464571  0.40120570  0.24194241  1
  Te  Te157  1  0.27661955  0.46739379  0.58945126  1
  Te  Te158  1  0.25357178  0.43042420  0.93341782  1
  Te  Te159  1  0.24845509  0.76842667  0.27030407  1
  Te  Te160  1  0.27245481  0.71735313  0.61662459  1
  Te  Te161  1  0.26410963  0.74628244  0.88335438  1
  Te  Te162  1  0.59733739  0.09791743  0.26002327  1
  Te  Te163  1  0.56398352  0.06905990  0.57140658  1
  Te  Te164  1  0.57679118  0.08406738  0.92885840  1
  Te  Te165  1  0.57119443  0.44527325  0.26352507  1
  Te  Te166  1  0.59091375  0.43064389  0.57946891  1
  Te  Te167  1  0.58543061  0.42996459  0.89687120  1
  Te  Te168  1  0.56928079  0.72976918  0.26176297  1
  Te  Te169  1  0.60196966  0.76218993  0.54500167  1
  Te  Te170  1  0.57983717  0.74801261  0.92274787  1
  Te  Te171  1  0.96618534  0.09497930  0.27836940  1
  Te  Te172  1  0.93453953  0.07667734  0.57313705  1
  Te  Te173  1  0.91046371  0.08114370  0.91192499  1
  Te  Te174  1  0.93106388  0.42171911  0.24005396  1
  Te  Te175  1  0.92603596  0.43215247  0.57420060  1
  Te  Te176  1  0.91065513  0.42681130  0.94940911  1
  Te  Te177  1  0.92092813  0.72584894  0.26372640  1
  Te  Te178  1  0.90591803  0.75327980  0.57760403  1
  Te  Te179  1  0.89962988  0.72472714  0.90111426  1
