# generated using pymatgen
data_In2Te3
_symmetry_space_group_name_H-M   'P 1'
_cell_length_a   18.98016940
_cell_length_b   18.96148504
_cell_length_c   18.97146852
_cell_angle_alpha   90.06156077
_cell_angle_beta   90.04787187
_cell_angle_gamma   90.05679014
_symmetry_Int_Tables_number   1
_chemical_formula_structural   In2Te3
_chemical_formula_sum   'In72 Te108'
_cell_volume   6827.67382378
_cell_formula_units_Z   36
loop_
 _symmetry_equiv_pos_site_id
 _symmetry_equiv_pos_as_xyz
  1  'x, y, z'
loop_
 _atom_site_type_symbol
 _atom_site_label
 _atom_site_symmetry_multiplicity
 _atom_site_fract_x
 _atom_site_fract_y
 _atom_site_fract_z
 _atom_site_occupancy
  In  In0  1  0.34103730  0.34672577  0.63370163  1
  In  In1  1  -0.02810262  0.49228444  0.51051972  1
  In  In2  1  0.37793856  0.35106523  0.36018409  1
  In  In3  1  0.51382486  0.50718894  0.00695468  1
  In  In4  1  0.35440370  0.49348911  0.19413305  1
  In  In5  1  0.50033578  0.82253647  0.67867122  1
  In  In6  1  0.33916305  0.84379018  0.16364438  1
  In  In7  1  0.15655669  0.64876283  0.82046805  1
  In  In8  1  0.30844493  0.65924118  0.01245474  1
  In  In9  1  0.67373002  0.83161974  0.85328449  1
  In  In10  1  0.48295565  0.01043621  0.82829693  1
  In  In11  1  0.69478946  0.00666636  0.66822287  1
  In  In12  1  0.51938656  0.34606843  0.84187068  1
  In  In13  1  0.65481503  0.34486069  0.64043373  1
  In  In14  1  0.47775739  0.66750811  0.82095845  1
  In  In15  1  0.52666539  0.30578139  0.18242938  1
  In  In16  1  0.34135380  0.16965131  0.83826492  1
  In  In17  1  0.88249135  0.72067020  -0.02217824  1
  In  In18  1  0.31776876  0.01485037  0.33453728  1
  In  In19  1  0.68732680  0.47734443  0.16511545  1
  In  In20  1  0.49054036  0.66200308  0.17775724  1
  In  In21  1  0.49949582  0.81342029  0.34867539  1
  In  In22  1  -0.01834909  0.07248040  0.68474642  1
  In  In23  1  -0.01786028  0.33823208  0.00243990  1
  In  In24  1  0.17345479  0.19254780  -0.02954330  1
  In  In25  1  0.11991537  0.78562685  -0.01796308  1
  In  In26  1  -0.00132243  -0.00798307  -0.00225772  1
  In  In27  1  -0.00183918  0.50722411  0.83702345  1
  In  In28  1  0.17192120  0.16426740  0.66246011  1
  In  In29  1  0.51408734  0.02747743  0.17165134  1
  In  In30  1  0.83697717  0.83690416  0.67062381  1
  In  In31  1  0.18568539  0.18112252  0.30470930  1
  In  In32  1  0.52268908  0.64181625  0.50528193  1
  In  In33  1  0.67690279  0.15850398  0.82165915  1
  In  In34  1  0.80985688  0.66134647  0.51159835  1
  In  In35  1  0.67856263  0.18505214  0.49443655  1
  In  In36  1  0.01278828  0.80519189  0.50679072  1
  In  In37  1  0.17558933  0.81866508  0.66840279  1
  In  In38  1  0.01361308  0.19772394  0.14444867  1
  In  In39  1  0.84920031  0.31326479  0.80542011  1
  In  In40  1  0.34933869  -0.01574560  0.01126690  1
  In  In41  1  0.16074949  0.37552314  0.16426901  1
  In  In42  1  -0.02028011  -0.00258747  0.34677331  1
  In  In43  1  0.16889474  0.81072262  0.34080043  1
  In  In44  1  0.81642497  0.19936908  0.33457367  1
  In  In45  1  0.15684817  0.61535197  0.21186159  1
  In  In46  1  0.84956896  0.80495278  0.32109541  1
  In  In47  1  0.68994006  0.51827807  0.86405667  1
  In  In48  1  0.84273738  0.46967331  0.32465339  1
  In  In49  1  0.30310379  0.49673745  0.81969110  1
  In  In50  1  0.65134352  0.34253116  0.34734298  1
  In  In51  1  0.84391797  0.49830806  0.68015965  1
  In  In52  1  0.33490962  -0.01007713  0.67785658  1
  In  In53  1  0.66889812  0.00235552  0.32805098  1
  In  In54  1  0.15422246  0.35129137  0.50161042  1
  In  In55  1  0.35200487  0.17752495  0.50705299  1
  In  In56  1  0.51304925  0.00698880  0.50686270  1
  In  In57  1  0.68273557  0.00604566  0.00268577  1
  In  In58  1  0.14467955  0.34928451  0.81266941  1
  In  In59  1  0.32753841  0.34192280  -0.02182165  1
  In  In60  1  0.82074966  0.02755841  0.82035850  1
  In  In61  1  0.15204360  -0.02158027  0.49314549  1
  In  In62  1  -0.00093840  0.17964987  0.48798911  1
  In  In63  1  0.82487653  0.15435442  0.00544615  1
  In  In64  1  -0.01878322  0.81169317  0.13693066  1
  In  In65  1  0.66097774  0.66413173  0.32449401  1
  In  In66  1  0.31569526  0.65510424  0.37265261  1
  In  In67  1  0.15702139  -0.01035569  0.17840879  1
  In  In68  1  0.51704538  0.86758719  -0.01147155  1
  In  In69  1  0.81622208  0.03721981  0.17700398  1
  In  In70  1  0.64591898  0.64889457  0.68633674  1
  In  In71  1  0.14229347  0.63849155  0.51494691  1
  Te  Te72  1  0.09558748  0.09022458  0.07395201  1
  Te  Te73  1  0.10382796  0.08204824  0.39303528  1
  Te  Te74  1  0.10600486  0.08076036  0.76140243  1
  Te  Te75  1  0.04751955  0.44069459  0.08944461  1
  Te  Te76  1  0.06545896  0.42871655  0.41094416  1
  Te  Te77  1  0.07360839  0.44361563  0.72430740  1
  Te  Te78  1  0.08747314  0.70682288  0.10585878  1
  Te  Te79  1  0.06961569  0.71519109  0.39915961  1
  Te  Te80  1  0.06859256  0.74271924  0.74268290  1
  Te  Te81  1  0.43246056  0.08984907  0.06783259  1
  Te  Te82  1  0.42636553  0.08794098  0.41018191  1
  Te  Te83  1  0.42154717  0.10473114  0.72694416  1
  Te  Te84  1  0.41819540  0.41415701  0.07993052  1
  Te  Te85  1  0.44008605  0.44213551  0.45923424  1
  Te  Te86  1  0.40854127  0.40830797  0.75696355  1
  Te  Te87  1  0.42022133  0.75252428  0.07285357  1
  Te  Te88  1  0.41614847  0.73915295  0.44938569  1
  Te  Te89  1  0.39434099  0.72704226  0.71657822  1
  Te  Te90  1  0.70705391  0.12179200  0.10688710  1
  Te  Te91  1  0.76347608  0.08466166  0.41625249  1
  Te  Te92  1  0.77418754  0.13060562  0.70694264  1
  Te  Te93  1  0.79149410  0.45760140  0.06322551  1
  Te  Te94  1  0.74786698  0.42192166  0.42876444  1
  Te  Te95  1  0.73614032  0.41255103  0.75728173  1
  Te  Te96  1  0.75871768  0.74046708  0.05387899  1
  Te  Te97  1  0.74126890  0.75610002  0.41575872  1
  Te  Te98  1  0.74417045  0.74540017  0.75249689  1
  Te  Te99  1  0.08249381  0.27837335  0.25245695  1
  Te  Te100  1  0.07662717  0.25906117  0.59316738  1
  Te  Te101  1  0.05912760  0.25693857  0.89711939  1
  Te  Te102  1  0.06066538  0.52470008  0.27886519  1
  Te  Te103  1  0.05634581  0.56447858  0.61089056  1
  Te  Te104  1  0.08793076  0.57793307  0.92928077  1
  Te  Te105  1  0.07064259  0.89860855  0.26358791  1
  Te  Te106  1  0.06945823  0.91316594  0.59703383  1
  Te  Te107  1  0.06887042  0.90038221  0.90883357  1
  Te  Te108  1  0.40860027  0.25657459  0.25327540  1
  Te  Te109  1  0.44998308  0.26732983  0.57140059  1
  Te  Te110  1  0.43611230  0.24951566  0.92592137  1
  Te  Te111  1  0.42538082  0.58614100  0.29040585  1
  Te  Te112  1  0.44151333  0.54216396  0.58170564  1
  Te  Te113  1  0.40108753  0.57243487  0.92477854  1
  Te  Te114  1  0.42333407  0.92123124  0.26208938  1
  Te  Te115  1  0.42203454  0.91199714  0.58230597  1
  Te  Te116  1  0.40381728  0.90005831  0.89463033  1
  Te  Te117  1  0.74448422  0.28857647  0.24416703  1
  Te  Te118  1  0.76351086  0.29736997  0.54941168  1
  Te  Te119  1  0.75606881  0.25103140  0.91087519  1
  Te  Te120  1  0.76148024  0.57911353  0.25094554  1
  Te  Te121  1  0.73380433  0.56298232  0.59759374  1
  Te  Te122  1  0.75240004  0.63443758  0.93924918  1
  Te  Te123  1  0.76516163  0.91527484  0.25038099  1
  Te  Te124  1  0.74928228  0.90813331  0.57689187  1
  Te  Te125  1  0.77644485  0.92037505  0.92035880  1
  Te  Te126  1  0.24008691  0.27007799  0.08030974  1
  Te  Te127  1  0.24939429  0.25335042  0.42462825  1
  Te  Te128  1  0.25481778  0.26220753  0.75135639  1
  Te  Te129  1  0.24727888  0.55574234  0.10392951  1
  Te  Te130  1  0.23981918  0.55061947  0.44252208  1
  Te  Te131  1  0.26188394  0.60162877  0.72715888  1
  Te  Te132  1  0.22906153  0.90147628  0.07784823  1
  Te  Te133  1  0.26139180  0.90250661  0.41928314  1
  Te  Te134  1  0.23965568  0.91663837  0.75841679  1
  Te  Te135  1  0.61965516  0.24992359  0.08796348  1
  Te  Te136  1  0.56588656  0.25623079  0.43239288  1
  Te  Te137  1  0.58678722  0.25339688  0.74327448  1
  Te  Te138  1  0.59758785  0.58978613  0.09945667  1
  Te  Te139  1  0.61335839  0.56415393  0.42017128  1
  Te  Te140  1  0.56874583  0.55499443  0.77581624  1
  Te  Te141  1  0.60113227  0.92117970  0.09920287  1
  Te  Te142  1  0.59161098  0.90959210  0.42187899  1
  Te  Te143  1  0.59208731  0.92535955  0.75631850  1
  Te  Te144  1  0.88691245  0.26195991  0.09429961  1
  Te  Te145  1  0.93043270  0.26847211  0.39447065  1
  Te  Te146  1  0.91853248  0.20862724  0.72722526  1
  Te  Te147  1  0.86128145  0.58908524  0.05874706  1
  Te  Te148  1  0.89651803  0.58427727  0.41657785  1
  Te  Te149  1  0.89692376  0.60107229  0.77536999  1
  Te  Te150  1  0.90274422  0.93436626  0.09772508  1
  Te  Te151  1  0.91308649  0.89268749  0.43018183  1
  Te  Te152  1  0.91732588  0.93964020  0.74679145  1
  Te  Te153  1  0.26701227  0.08983008  0.21334504  1
  Te  Te154  1  0.25193975  0.07451764  0.56660011  1
  Te  Te155  1  0.25910556  0.07716435  0.92398337  1
  Te  Te156  1  0.26097630  0.40992719  0.27670629  1
  Te  Te157  1  0.24348961  0.44161568  0.57862030  1
  Te  Te158  1  0.21528212  0.42723581  0.92233367  1
  Te  Te159  1  0.26466940  0.73746606  0.24393152  1
  Te  Te160  1  0.23354800  0.74809643  0.55412667  1
  Te  Te161  1  0.24585252  0.74584338  0.90863383  1
  Te  Te162  1  0.58386574  0.10696906  0.27219605  1
  Te  Te163  1  0.59860944  0.09658249  0.59172312  1
  Te  Te164  1  0.58433932  0.08256704  0.91478441  1
  Te  Te165  1  0.57038553  0.43236373  0.25095213  1
  Te  Te166  1  0.55044178  0.42977742  0.57365632  1
  Te  Te167  1  0.61247544  0.41200706  0.94291990  1
  Te  Te168  1  0.58704547  0.76458146  0.23553532  1
  Te  Te169  1  0.59554110  0.75109822  0.58643849  1
  Te  Te170  1  0.56881561  0.74350341  0.91846348  1
  Te  Te171  1  0.94031166  0.09815816  0.24044469  1
  Te  Te172  1  0.91985301  0.07569962  0.55184291  1
  Te  Te173  1  0.92567985  0.09386358  0.91282051  1
  Te  Te174  1  0.94351284  0.44314948  0.21792846  1
  Te  Te175  1  0.90010419  0.39199322  0.59417867  1
  Te  Te176  1  0.89514978  0.41784032  0.90669867  1
  Te  Te177  1  0.91835254  0.71668952  0.22733436  1
  Te  Te178  1  0.91613105  0.72976941  0.59552419  1
  Te  Te179  1  0.95191149  0.72989063  0.84707621  1
