# generated using pymatgen
data_In2Te3
_symmetry_space_group_name_H-M   'P 1'
_cell_length_a   18.84556861
_cell_length_b   18.84460335
_cell_length_c   18.83971171
_cell_angle_alpha   89.94572024
_cell_angle_beta   90.13511541
_cell_angle_gamma   90.05262208
_symmetry_Int_Tables_number   1
_chemical_formula_structural   In2Te3
_chemical_formula_sum   'In72 Te108'
_cell_volume   6690.65928125
_cell_formula_units_Z   36
loop_
 _symmetry_equiv_pos_site_id
 _symmetry_equiv_pos_as_xyz
  1  'x, y, z'
loop_
 _atom_site_type_symbol
 _atom_site_label
 _atom_site_symmetry_multiplicity
 _atom_site_fract_x
 _atom_site_fract_y
 _atom_site_fract_z
 _atom_site_occupancy
  In  In0  1  0.20036075  0.46158497  0.63492068  1
  In  In1  1  0.15533213  0.17861423  0.34421722  1
  In  In2  1  0.65665295  0.00264423  0.32267078  1
  In  In3  1  0.36333819  0.82964544  0.84308536  1
  In  In4  1  0.80410132  0.63687302  0.17784756  1
  In  In5  1  0.14346948  0.81122406  0.32949216  1
  In  In6  1  0.49823478  0.34400423  0.82021250  1
  In  In7  1  -0.01839780  0.17539801  0.50433888  1
  In  In8  1  0.64707643  0.48748837  0.48855349  1
  In  In9  1  0.35627641  0.65620313  0.64008540  1
  In  In10  1  0.34352799  0.49330238  0.83821421  1
  In  In11  1  -0.00514549  0.51131586  0.82644543  1
  In  In12  1  0.18856652  0.32952246  0.51951330  1
  In  In13  1  0.64546772  -0.01874060  0.00855808  1
  In  In14  1  0.18530441  0.33184584  0.19208373  1
  In  In15  1  0.00787397  -0.00254976  0.68277088  1
  In  In16  1  0.65794397  0.18466184  0.14742134  1
  In  In17  1  0.80915288  0.49307596  0.63889454  1
  In  In18  1  0.01718770  0.17294228  0.81489109  1
  In  In19  1  0.82058346  0.17352633  -0.03471114  1
  In  In20  1  0.33571661  0.83151085  0.50670534  1
  In  In21  1  0.01030464  0.51060886  0.49927878  1
  In  In22  1  0.02405834  -0.03837796  -0.00946654  1
  In  In23  1  0.80608001  0.35445099  0.79789445  1
  In  In24  1  0.49484907  0.00099244  0.16223288  1
  In  In25  1  0.48559854  0.49243027  0.36268004  1
  In  In26  1  0.34542226  0.46623669  0.16538527  1
  In  In27  1  0.34627305  0.67355754  0.01409682  1
  In  In28  1  0.48573409  0.18183384  -0.01275616  1
  In  In29  1  -0.00697106  0.49538988  0.18057139  1
  In  In30  1  0.33743497  0.03510795  0.33847827  1
  In  In31  1  0.19450249  0.32850194  0.85126989  1
  In  In32  1  -0.02877612  0.66802812  0.63190306  1
  In  In33  1  0.65520497  0.19933044  0.81244388  1
  In  In34  1  0.48352817  0.49458819  0.00031644  1
  In  In35  1  0.80082419  -0.00108689  0.20484494  1
  In  In36  1  -0.03601653  -0.02357823  0.34552349  1
  In  In37  1  0.31379251  0.64367326  0.35026912  1
  In  In38  1  0.47933725  0.01638212  0.83840969  1
  In  In39  1  0.82240842  0.51376938  0.00964671  1
  In  In40  1  0.50602240  0.82766911  0.33649464  1
  In  In41  1  0.81846192  0.18687219  0.35594951  1
  In  In42  1  0.35869378  0.19400872  0.18550979  1
  In  In43  1  0.00756879  0.82592355  0.17207036  1
  In  In44  1  0.66150722  0.66460805  -0.01653922  1
  In  In45  1  0.64858035  0.03533973  0.63718315  1
  In  In46  1  0.20819867  -0.02452508  0.13747136  1
  In  In47  1  0.20656314  0.14644664  -0.01230331  1
  In  In48  1  0.36073168  0.02080812  0.67094881  1
  In  In49  1  0.16483963  0.82669530  0.66820253  1
  In  In50  1  0.00513400  0.84977245  0.85136495  1
  In  In51  1  0.83486149  0.34791587  0.18858646  1
  In  In52  1  0.02310930  0.17026762  0.17124255  1
  In  In53  1  -0.00929945  0.33865816  0.01781932  1
  In  In54  1  0.84808190  0.81760434  0.01622851  1
  In  In55  1  0.65551186  0.81135397  0.82502062  1
  In  In56  1  0.32334204  0.35690948  0.67469426  1
  In  In57  1  0.16593806  0.66542367  0.16000772  1
  In  In58  1  0.34368680  0.17440048  0.49392935  1
  In  In59  1  0.78634513  0.18531328  0.62340286  1
  In  In60  1  0.16168646  0.64912587  0.83125302  1
  In  In61  1  0.83277784  -0.03055660  0.49473138  1
  In  In62  1  0.00273404  0.33476742  0.66506511  1
  In  In63  1  0.64400713  0.48080633  0.20199584  1
  In  In64  1  0.50967495  0.84573727  0.66291976  1
  In  In65  1  0.84124937  -0.00863532  0.82409757  1
  In  In66  1  0.02030237  0.68620177  -0.01437562  1
  In  In67  1  0.66660196  0.82948128  0.50089970  1
  In  In68  1  0.64948486  0.64862427  0.66741298  1
  In  In69  1  0.17531238  -0.00840049  0.50792362  1
  In  In70  1  0.50277102  0.68533362  0.17079602  1
  In  In71  1  -0.00761623  0.66295355  0.34546628  1
  Te  Te72  1  0.09237547  0.07702176  0.07390356  1
  Te  Te73  1  0.07439939  0.07363766  0.42144409  1
  Te  Te74  1  0.11288342  0.07371535  0.75651219  1
  Te  Te75  1  0.09248760  0.41555092  0.09732922  1
  Te  Te76  1  0.10292105  0.41553191  0.43267255  1
  Te  Te77  1  0.09210659  0.41089771  0.76227494  1
  Te  Te78  1  0.10938219  0.77612170  0.06921686  1
  Te  Te79  1  0.08111934  0.73837737  0.43931608  1
  Te  Te80  1  0.06802594  0.74128350  0.75217297  1
  Te  Te81  1  0.40437642  0.09292447  0.08003499  1
  Te  Te82  1  0.44485212  0.09900350  0.41616601  1
  Te  Te83  1  0.42916934  0.12494189  0.75203759  1
  Te  Te84  1  0.43529673  0.37997548  0.08339462  1
  Te  Te85  1  0.43337738  0.40031747  0.46984506  1
  Te  Te86  1  0.43537169  0.45213660  0.72247584  1
  Te  Te87  1  0.40667623  0.77860111  0.10237035  1
  Te  Te88  1  0.41420734  0.73359657  0.42149468  1
  Te  Te89  1  0.43599057  0.73755302  0.74174019  1
  Te  Te90  1  0.75071083  0.08259973  0.07854114  1
  Te  Te91  1  0.74142325  0.07728520  0.43134353  1
  Te  Te92  1  0.75128326  0.09094376  0.75167793  1
  Te  Te93  1  0.73949109  0.41949261  0.09286387  1
  Te  Te94  1  0.72013055  0.38900352  0.40568730  1
  Te  Te95  1  0.69546465  0.43675326  0.72825969  1
  Te  Te96  1  0.73854084  0.74503429  0.09203660  1
  Te  Te97  1  0.75460528  0.77237803  0.39741404  1
  Te  Te98  1  0.74383443  0.74504677  0.73151377  1
  Te  Te99  1  0.06297093  0.27630078  0.27040359  1
  Te  Te100  1  0.09202346  0.23465782  0.59283484  1
  Te  Te101  1  0.08173039  0.24754463  0.93339541  1
  Te  Te102  1  0.09146050  0.58017909  0.26084823  1
  Te  Te103  1  0.08316910  0.56528560  0.62043227  1
  Te  Te104  1  0.09110045  0.56112142  0.93447499  1
  Te  Te105  1  0.08556731  0.93184647  0.25070929  1
  Te  Te106  1  0.07082016  0.90539214  0.57638774  1
  Te  Te107  1  0.13010118  0.92194979  0.89394042  1
  Te  Te108  1  0.44126951  0.27291685  0.27566420  1
  Te  Te109  1  0.41292251  0.28279659  0.57545527  1
  Te  Te110  1  0.40216145  0.24783814  0.88335860  1
  Te  Te111  1  0.41730816  0.58040192  0.24480824  1
  Te  Te112  1  0.43782365  0.54949339  0.57696348  1
  Te  Te113  1  0.42681002  0.60188371  0.90719728  1
  Te  Te114  1  0.40986990  0.92402208  0.26318265  1
  Te  Te115  1  0.43103992  0.93475539  0.56642037  1
  Te  Te116  1  0.42192174  0.92646420  0.94278025  1
  Te  Te117  1  0.72750090  0.26470706  0.26115904  1
  Te  Te118  1  0.73107531  0.29473965  0.52675333  1
  Te  Te119  1  0.73102006  0.28492943  0.91532773  1
  Te  Te120  1  0.74639843  0.55155289  0.28370073  1
  Te  Te121  1  0.74014907  0.59689706  0.55471407  1
  Te  Te122  1  0.75498580  0.58529024  0.90104533  1
  Te  Te123  1  0.74793135  0.88486573  0.28731364  1
  Te  Te124  1  0.74008623  0.91749935  0.60411098  1
  Te  Te125  1  0.75972860  0.91132043  0.92518673  1
  Te  Te126  1  0.25943848  0.25331897  0.08398410  1
  Te  Te127  1  0.26439486  0.26724312  0.40107729  1
  Te  Te128  1  0.25375673  0.24665274  0.74537139  1
  Te  Te129  1  0.25981044  0.57194525  0.08659154  1
  Te  Te130  1  0.20903763  0.56845554  0.42436338  1
  Te  Te131  1  0.25602835  0.57590814  0.73623211  1
  Te  Te132  1  0.30278823  0.90059669  0.05675194  1
  Te  Te133  1  0.25174695  0.91084910  0.40431471  1
  Te  Te134  1  0.28840655  0.89484912  0.72478380  1
  Te  Te135  1  0.56922714  0.27491939  0.06921771  1
  Te  Te136  1  0.62697277  0.19781492  0.46084983  1
  Te  Te137  1  0.57707892  0.27271011  0.70903788  1
  Te  Te138  1  0.58313002  0.57721831  0.09243945  1
  Te  Te139  1  0.58923446  0.59390497  0.39750921  1
  Te  Te140  1  0.60377798  0.55553987  0.77437323  1
  Te  Te141  1  0.59720392  0.90222471  0.12171613  1
  Te  Te142  1  0.57400604  0.92933648  0.42857355  1
  Te  Te143  1  0.58478939  0.93961325  0.75827023  1
  Te  Te144  1  0.90154257  0.23823573  0.09086604  1
  Te  Te145  1  0.91939932  0.27570777  0.41759802  1
  Te  Te146  1  0.89947634  0.24401882  0.73996067  1
  Te  Te147  1  0.93191353  0.59956034  0.08328831  1
  Te  Te148  1  0.90019707  0.58356961  0.43123384  1
  Te  Te149  1  0.89677004  0.57947736  0.73350925  1
  Te  Te150  1  0.91211011  0.92750927  0.10160133  1
  Te  Te151  1  0.90849604  0.85764148  0.42314380  1
  Te  Te152  1  0.91135586  0.89104997  0.73484541  1
  Te  Te153  1  0.23731651  0.09768164  0.24140086  1
  Te  Te154  1  0.25320563  0.09306910  0.58725126  1
  Te  Te155  1  0.23159147  0.05224397  0.88078830  1
  Te  Te156  1  0.26091763  0.42399344  0.27870546  1
  Te  Te157  1  0.30687099  0.48986507  0.51182995  1
  Te  Te158  1  0.26318889  0.42335247  0.93941842  1
  Te  Te159  1  0.25697468  0.74746245  0.25099705  1
  Te  Te160  1  0.24086535  0.73225235  0.57343608  1
  Te  Te161  1  0.25449868  0.74121686  0.90820403  1
  Te  Te162  1  0.57238102  0.10430174  0.24480527  1
  Te  Te163  1  0.55468046  0.12977340  0.57314439  1
  Te  Te164  1  0.59983939  0.09706341  0.91938332  1
  Te  Te165  1  0.55037781  0.38490867  0.27356748  1
  Te  Te166  1  0.61190023  0.39013929  0.59973875  1
  Te  Te167  1  0.58164494  0.43819862  0.90276309  1
  Te  Te168  1  0.59651160  0.72202281  0.28153942  1
  Te  Te169  1  0.56596636  0.73914648  0.57142986  1
  Te  Te170  1  0.56513340  0.76233117  0.92814256  1
  Te  Te171  1  0.91347577  0.09899739  0.26051082  1
  Te  Te172  1  0.90572216  0.07457582  0.59004465  1
  Te  Te173  1  0.93328733  0.07716264  0.91113419  1
  Te  Te174  1  0.90317921  0.43894487  0.28221760  1
  Te  Te175  1  0.91182547  0.40613735  0.56866746  1
  Te  Te176  1  0.90827928  0.41062010  0.91126274  1
  Te  Te177  1  0.90797829  0.73634652  0.24022416  1
  Te  Te178  1  0.89515380  0.74479557  0.53266608  1
  Te  Te179  1  0.90594963  0.73764547  0.90154445  1
