# generated using pymatgen
data_In2Te3
_symmetry_space_group_name_H-M   'P 1'
_cell_length_a   18.86978888
_cell_length_b   18.87479115
_cell_length_c   18.88077035
_cell_angle_alpha   90.09574340
_cell_angle_beta   90.00087589
_cell_angle_gamma   89.96541231
_symmetry_Int_Tables_number   1
_chemical_formula_structural   In2Te3
_chemical_formula_sum   'In72 Te108'
_cell_volume   6724.62731400
_cell_formula_units_Z   36
loop_
 _symmetry_equiv_pos_site_id
 _symmetry_equiv_pos_as_xyz
  1  'x, y, z'
loop_
 _atom_site_type_symbol
 _atom_site_label
 _atom_site_symmetry_multiplicity
 _atom_site_fract_x
 _atom_site_fract_y
 _atom_site_fract_z
 _atom_site_occupancy
  In  In0  1  0.49368309  0.85310115  0.00243724  1
  In  In1  1  0.29745740  0.51271358  0.20765683  1
  In  In2  1  0.32544994  0.33018063  0.67834472  1
  In  In3  1  0.51330286  0.68815329  0.49910993  1
  In  In4  1  0.18700261  0.18192706  0.32809601  1
  In  In5  1  0.52321712  0.48780129  0.00624481  1
  In  In6  1  0.18333321  0.68168258  0.84060929  1
  In  In7  1  0.67259687  0.83909891  0.82655040  1
  In  In8  1  0.14330485  0.00159982  0.17538040  1
  In  In9  1  0.33567339  0.32388229  -0.00221020  1
  In  In10  1  0.01522853  0.31984541  0.34994774  1
  In  In11  1  0.85344804  0.82945285  -0.01209389  1
  In  In12  1  -0.00629431  -0.01166267  0.67811431  1
  In  In13  1  0.85072620  0.17144283  0.69051606  1
  In  In14  1  0.32398609  0.48441152  0.85391253  1
  In  In15  1  0.49731557  0.83000045  0.35066379  1
  In  In16  1  0.65981165  0.33210626  0.31153621  1
  In  In17  1  0.65238176  0.48413261  0.51287441  1
  In  In18  1  0.17152741  0.00790580  0.82694374  1
  In  In19  1  0.68359557  0.67837478  0.31912346  1
  In  In20  1  0.64232568  0.04972545  -0.02857300  1
  In  In21  1  -0.01009534  0.47712667  0.85186019  1
  In  In22  1  0.48918128  0.34613198  0.16521714  1
  In  In23  1  0.32124251  0.67823569  0.00644078  1
  In  In24  1  0.65572750  0.00786600  0.68005254  1
  In  In25  1  0.46997272  0.35053205  0.50594911  1
  In  In26  1  0.48159084  0.49302770  0.33228359  1
  In  In27  1  0.31199662  0.53304876  0.46578473  1
  In  In28  1  -0.00022812  0.00263337  0.34303545  1
  In  In29  1  0.01656829  0.49428898  0.16576016  1
  In  In30  1  0.31914567  0.84153467  0.17604518  1
  In  In31  1  0.00954976  0.83587133  0.51402808  1
  In  In32  1  0.33425716  0.17311102  0.81708792  1
  In  In33  1  0.65234236  -0.00669433  0.30994483  1
  In  In34  1  -0.00606826  0.64742300  0.00808576  1
  In  In35  1  0.69203681  0.62840920  -0.01923753  1
  In  In36  1  0.00691816  0.17556233  0.51665480  1
  In  In37  1  0.79804532  -0.00701487  0.49545791  1
  In  In38  1  0.82699534  0.33870867  0.14373918  1
  In  In39  1  0.00112501  0.64362271  0.66172643  1
  In  In40  1  0.43000647  0.03455277  0.50856801  1
  In  In41  1  0.50931565  0.16197051  0.69135182  1
  In  In42  1  0.82868450  0.50582018  0.33381672  1
  In  In43  1  0.19365794  0.31363924  0.51770496  1
  In  In44  1  0.67864514  0.31781828  -0.02614012  1
  In  In45  1  0.85360665  0.65405896  0.49590144  1
  In  In46  1  0.18591795  0.47535317  0.00196417  1
  In  In47  1  0.66246302  0.18309080  0.48855946  1
  In  In48  1  0.47958860  -0.00428125  0.17007141  1
  In  In49  1  0.65696662  0.15670917  0.16047043  1
  In  In50  1  -0.00021689  0.48653989  0.48158345  1
  In  In51  1  -0.02186509  0.16451295  0.14663645  1
  In  In52  1  0.35121346  0.68152775  0.65234315  1
  In  In53  1  0.17397973  0.83091667  0.35094439  1
  In  In54  1  0.31742647  0.86020946  0.50574192  1
  In  In55  1  0.14964932  0.50722808  0.67335466  1
  In  In56  1  0.33882394  0.01324040  -0.01705817  1
  In  In57  1  0.82320538  0.45925037  0.71803854  1
  In  In58  1  0.80942595  0.00489282  0.14468334  1
  In  In59  1  0.33910638  0.18294006  0.16155706  1
  In  In60  1  0.01955373  0.19591337  0.85728008  1
  In  In61  1  0.66443642  0.82910367  0.53218908  1
  In  In62  1  0.00289367  -0.01049167  -0.00483000  1
  In  In63  1  0.50366813  0.50050303  0.68598882  1
  In  In64  1  0.84044594  -0.00307884  0.82915642  1
  In  In65  1  0.67296168  0.82141392  0.15048248  1
  In  In66  1  0.18285518  0.84590582  0.67253061  1
  In  In67  1  0.87857420  0.78976392  0.29725242  1
  In  In68  1  0.68783117  0.66588565  0.66981595  1
  In  In69  1  0.85722258  0.32417022  0.51314720  1
  In  In70  1  0.15044490  0.81282404  0.00649301  1
  In  In71  1  0.51279248  0.66918674  0.82949375  1
  Te  Te72  1  0.08857357  0.09263418  0.06741261  1
  Te  Te73  1  0.09178499  0.09720849  0.41793629  1
  Te  Te74  1  0.07300617  0.09513004  0.74969592  1
  Te  Te75  1  0.07382507  0.39710782  0.06566501  1
  Te  Te76  1  0.11768793  0.40591238  0.42236958  1
  Te  Te77  1  0.07793206  0.40811833  0.75368272  1
  Te  Te78  1  0.06937122  0.73697515  0.10541142  1
  Te  Te79  1  0.06583224  0.74903595  0.41017718  1
  Te  Te80  1  0.08985229  0.74402193  0.73898554  1
  Te  Te81  1  0.42983982  0.09834843  0.07074678  1
  Te  Te82  1  0.39841919  0.12425098  0.39719720  1
  Te  Te83  1  0.40360364  0.06923219  0.73623468  1
  Te  Te84  1  0.39575010  0.43611355  0.08381954  1
  Te  Te85  1  0.37501861  0.40958507  0.40163589  1
  Te  Te86  1  0.42280024  0.40309616  0.77109344  1
  Te  Te87  1  0.41786632  0.75834736  0.09386692  1
  Te  Te88  1  0.39698961  0.74563609  0.42402250  1
  Te  Te89  1  0.41120539  0.75431294  0.76476181  1
  Te  Te90  1  0.75592397  0.11276983  0.05093805  1
  Te  Te91  1  0.73855921  0.08947619  0.39421562  1
  Te  Te92  1  0.74300361  0.09706873  0.76836174  1
  Te  Te93  1  0.72317502  0.41645420  0.07592900  1
  Te  Te94  1  0.75030660  0.40222043  0.42420535  1
  Te  Te95  1  0.71925430  0.36332744  0.76387530  1
  Te  Te96  1  0.76583382  0.73546325  0.06963887  1
  Te  Te97  1  0.75306304  0.75195655  0.43290512  1
  Te  Te98  1  0.76552508  0.74229570  0.76804893  1
  Te  Te99  1  0.07900664  0.23999176  0.23750955  1
  Te  Te100  1  0.08034775  0.27012229  0.60094304  1
  Te  Te101  1  0.09235559  0.29653105  0.94061674  1
  Te  Te102  1  0.12131751  0.54007913  0.26508969  1
  Te  Te103  1  0.09243929  0.58497079  0.55522684  1
  Te  Te104  1  0.10179110  0.57475501  0.91104984  1
  Te  Te105  1  0.06832926  0.89960057  0.25468728  1
  Te  Te106  1  0.09781197  0.93930944  0.57972201  1
  Te  Te107  1  0.08630029  0.90409244  0.90189223  1
  Te  Te108  1  0.40727449  0.26959239  0.26086105  1
  Te  Te109  1  0.41679660  0.24072036  0.59497610  1
  Te  Te110  1  0.42726006  0.23829824  0.91628270  1
  Te  Te111  1  0.41423548  0.59179316  0.24867045  1
  Te  Te112  1  0.43358985  0.57118538  0.56907592  1
  Te  Te113  1  0.41369726  0.58855571  0.92099145  1
  Te  Te114  1  0.40129519  0.92247252  0.27718698  1
  Te  Te115  1  0.44138662  0.90396168  0.57505195  1
  Te  Te116  1  0.44535532  0.94896303  0.90115163  1
  Te  Te117  1  0.75580195  0.23975111  0.24169878  1
  Te  Te118  1  0.75461368  0.24491370  0.59213722  1
  Te  Te119  1  0.79907761  0.29666346  0.88004452  1
  Te  Te120  1  0.75464636  0.58308238  0.23383179  1
  Te  Te121  1  0.76337148  0.56354322  0.58182114  1
  Te  Te122  1  0.77889691  0.53989781  0.90301316  1
  Te  Te123  1  0.75841341  0.89785258  0.25310307  1
  Te  Te124  1  0.75821463  0.91155067  0.61804155  1
  Te  Te125  1  0.74389759  0.93113361  0.93454896  1
  Te  Te126  1  0.23883413  0.26279302  0.08894726  1
  Te  Te127  1  0.27893384  0.21012115  0.44620341  1
  Te  Te128  1  0.23069426  0.22776216  0.72456119  1
  Te  Te129  1  0.22956025  0.59182228  0.08829672  1
  Te  Te130  1  0.23797843  0.60345034  0.35956362  1
  Te  Te131  1  0.26684665  0.58395335  0.74905950  1
  Te  Te132  1  0.24178489  0.92555955  0.07347682  1
  Te  Te133  1  0.24007800  0.95085228  0.41108985  1
  Te  Te134  1  0.27380907  0.93895864  0.74430398  1
  Te  Te135  1  0.57908142  0.25814901  0.08051575  1
  Te  Te136  1  0.56455370  0.26984110  0.41177896  1
  Te  Te137  1  0.59919093  0.24709737  0.77317798  1
  Te  Te138  1  0.58424877  0.60049805  0.07687588  1
  Te  Te139  1  0.59527546  0.58503986  0.41403202  1
  Te  Te140  1  0.61192502  0.57246926  0.76518519  1
  Te  Te141  1  0.59807951  0.94080733  0.08814506  1
  Te  Te142  1  0.59307344  0.91778720  0.42842527  1
  Te  Te143  1  0.57000057  0.93203236  0.77434235  1
  Te  Te144  1  0.91477419  0.26047396  0.05476876  1
  Te  Te145  1  0.90989431  0.22641980  0.40968781  1
  Te  Te146  1  0.92678584  0.27363312  0.76723225  1
  Te  Te147  1  0.90418921  0.57043375  0.10114291  1
  Te  Te148  1  0.94138814  0.59324929  0.38770984  1
  Te  Te149  1  0.91019288  0.57757878  0.76409210  1
  Te  Te150  1  0.92126491  0.91224685  0.09711639  1
  Te  Te151  1  0.90452090  0.91081109  0.42151399  1
  Te  Te152  1  0.92405825  0.89464014  0.76545187  1
  Te  Te153  1  0.25606845  0.07757857  0.24027022  1
  Te  Te154  1  0.28585705  0.00633394  0.55293942  1
  Te  Te155  1  0.23806941  0.10710910  0.92118863  1
  Te  Te156  1  0.20179944  0.41246411  0.25443310  1
  Te  Te157  1  0.26444755  0.43954310  0.58712933  1
  Te  Te158  1  0.22482478  0.37238975  0.88804201  1
  Te  Te159  1  0.23999081  0.74159388  0.25077112  1
  Te  Te160  1  0.23817255  0.74222656  0.57465716  1
  Te  Te161  1  0.26971874  0.78482534  0.91085210  1
  Te  Te162  1  0.55506611  0.09752195  0.25826329  1
  Te  Te163  1  0.58081107  0.08219872  0.56814453  1
  Te  Te164  1  0.56678459  0.14672369  0.88774024  1
  Te  Te165  1  0.58854580  0.44072115  0.23626186  1
  Te  Te166  1  0.57986496  0.39183929  0.60648770  1
  Te  Te167  1  0.58507546  0.40957119  0.89972226  1
  Te  Te168  1  0.57354472  0.75205907  0.24388902  1
  Te  Te169  1  0.57090899  0.75332216  0.62432217  1
  Te  Te170  1  0.58938366  0.75487474  0.93276960  1
  Te  Te171  1  0.90491576  0.07264396  0.24344300  1
  Te  Te172  1  0.90285817  0.07251674  0.57737808  1
  Te  Te173  1  0.92235614  0.09077809  0.91621678  1
  Te  Te174  1  0.92273835  0.40558530  0.26138073  1
  Te  Te175  1  0.92245092  0.42858395  0.59946334  1
  Te  Te176  1  0.87742277  0.42355678  0.93642526  1
  Te  Te177  1  0.93804546  0.70086420  0.19622311  1
  Te  Te178  1  0.91335623  0.75050052  0.59674108  1
  Te  Te179  1  0.93838629  0.74038597  0.90856221  1
