# generated using pymatgen
data_In2Te3
_symmetry_space_group_name_H-M   'P 1'
_cell_length_a   18.97904918
_cell_length_b   19.00585831
_cell_length_c   18.98261439
_cell_angle_alpha   89.98124681
_cell_angle_beta   90.10474128
_cell_angle_gamma   89.84610831
_symmetry_Int_Tables_number   1
_chemical_formula_structural   In2Te3
_chemical_formula_sum   'In72 Te108'
_cell_volume   6847.24153559
_cell_formula_units_Z   36
loop_
 _symmetry_equiv_pos_site_id
 _symmetry_equiv_pos_as_xyz
  1  'x, y, z'
loop_
 _atom_site_type_symbol
 _atom_site_label
 _atom_site_symmetry_multiplicity
 _atom_site_fract_x
 _atom_site_fract_y
 _atom_site_fract_z
 _atom_site_occupancy
  In  In0  1  0.01888400  0.13075680  0.14141261  1
  In  In1  1  0.82384873  0.46583975  -0.01704509  1
  In  In2  1  0.81660788  -0.01197424  0.17177376  1
  In  In3  1  0.84942673  0.68817562  0.17651893  1
  In  In4  1  0.84429453  0.66925847  0.84122630  1
  In  In5  1  0.67887266  0.34349870  0.32645477  1
  In  In6  1  0.66894521  0.02039812  0.66845927  1
  In  In7  1  0.31162715  0.86104788  0.51367923  1
  In  In8  1  0.69496278  0.51585628  0.81280694  1
  In  In9  1  -0.00545936  0.00006438  0.66306077  1
  In  In10  1  -0.00211879  0.48721379  0.48272094  1
  In  In11  1  -0.00741309  -0.01184885  0.35297274  1
  In  In12  1  0.52254423  0.87475484  0.68037409  1
  In  In13  1  0.86491702  0.32664238  0.81544444  1
  In  In14  1  0.01150069  0.49527773  0.14242686  1
  In  In15  1  0.18645605  0.67947114  0.18493076  1
  In  In16  1  0.32101881  0.50876016  0.49389078  1
  In  In17  1  -0.01353084  0.65998065  0.64655496  1
  In  In18  1  0.34269028  0.15681884  0.50776306  1
  In  In19  1  0.31320293  0.67428712  0.64072219  1
  In  In20  1  0.65896485  0.52755735  0.14294596  1
  In  In21  1  0.51529275  0.15274694  0.34139763  1
  In  In22  1  0.66231157  0.30635286  0.00668262  1
  In  In23  1  0.85672495  0.30335053  0.16722834  1
  In  In24  1  0.82280867  0.28740227  0.53067395  1
  In  In25  1  0.18285997  0.12894526  -0.01058770  1
  In  In26  1  0.02729974  0.70173720  0.37073517  1
  In  In27  1  0.15614333  0.00570584  0.52038776  1
  In  In28  1  0.83684644  0.49715292  0.64556956  1
  In  In29  1  0.65295143  0.69630764  0.01812293  1
  In  In30  1  0.15114271  0.29553569  0.53330402  1
  In  In31  1  0.33773001  0.69762329  0.35432414  1
  In  In32  1  0.48076066  0.50525436  0.65029385  1
  In  In33  1  0.51388927  0.00109252  0.18566264  1
  In  In34  1  0.51663607  0.51182318  -0.01759341  1
  In  In35  1  0.64035978  0.51640478  0.47976904  1
  In  In36  1  0.14067110  0.49003757  0.32263942  1
  In  In37  1  0.81686483  0.87353802  -0.01735890  1
  In  In38  1  0.84196422  0.12708629  -0.00627122  1
  In  In39  1  0.01269972  0.66600072  0.02184748  1
  In  In40  1  0.15990723  0.30271231  0.78287091  1
  In  In41  1  0.66786962  0.16169132  0.82859168  1
  In  In42  1  0.66550028  0.69721184  0.68745054  1
  In  In43  1  0.33768049  0.83549138  0.84171266  1
  In  In44  1  0.48538558  0.84079137  0.00372788  1
  In  In45  1  0.32221562  0.32983299  0.37281117  1
  In  In46  1  0.47456064  0.67911424  0.83703249  1
  In  In47  1  0.34031231  0.00181262  0.69339744  1
  In  In48  1  0.82246617  0.13978432  0.35968197  1
  In  In49  1  0.30859962  0.88748902  0.18047897  1
  In  In50  1  0.84982030  0.49416392  0.30966931  1
  In  In51  1  0.50430429  0.16577817  0.00025991  1
  In  In52  1  0.50132610  0.14357608  0.65628525  1
  In  In53  1  0.16543713  0.49345630  0.65420762  1
  In  In54  1  0.33540412  0.67771792  0.00427022  1
  In  In55  1  0.51976790  0.56887879  0.31269304  1
  In  In56  1  0.63791846  0.82995877  0.21557983  1
  In  In57  1  0.48792804  0.34696227  0.50066566  1
  In  In58  1  0.81257750  0.68761782  0.49557003  1
  In  In59  1  0.64878650  0.86104210  0.47963419  1
  In  In60  1  0.17843051  -0.02072800  0.84408659  1
  In  In61  1  -0.00831167  0.84868532  0.79579407  1
  In  In62  1  0.48236053  0.33422791  0.17731303  1
  In  In63  1  0.31247413  0.31527853  -0.02778186  1
  In  In64  1  0.17710163  0.50314317  -0.02432170  1
  In  In65  1  0.32404010  0.12026321  0.19969038  1
  In  In66  1  0.34774863  0.47248503  0.17111557  1
  In  In67  1  0.02229733  0.84071415  0.17054059  1
  In  In68  1  0.15675285  0.29344440  0.15362561  1
  In  In69  1  0.00575977  0.15247750  0.83486596  1
  In  In70  1  0.83302538  0.00837771  0.51404997  1
  In  In71  1  0.51055278  0.34332843  0.80400628  1
  Te  Te72  1  0.12377987  0.03334498  0.08719488  1
  Te  Te73  1  0.06131326  0.08870677  0.43968305  1
  Te  Te74  1  0.09779243  0.06904098  0.74972026  1
  Te  Te75  1  0.10046817  0.40203922  0.06512671  1
  Te  Te76  1  0.09010665  0.38611295  0.41889283  1
  Te  Te77  1  0.07364280  0.40775083  0.72939328  1
  Te  Te78  1  0.11563328  0.76171101  0.07911080  1
  Te  Te79  1  0.09077887  0.79977931  0.45879585  1
  Te  Te80  1  0.06672499  0.73445373  0.74560006  1
  Te  Te81  1  0.42065126  0.07560248  0.09128271  1
  Te  Te82  1  0.41312792  0.07307882  0.41041904  1
  Te  Te83  1  0.43620460  0.08125048  0.77172413  1
  Te  Te84  1  0.42410127  0.40623626  0.05204405  1
  Te  Te85  1  0.42478528  0.43988680  0.39882073  1
  Te  Te86  1  0.40459148  0.41973370  0.73957228  1
  Te  Te87  1  0.38971391  0.77739609  0.10148192  1
  Te  Te88  1  0.42082911  0.78713560  0.43812483  1
  Te  Te89  1  0.41973482  0.76035872  0.72244357  1
  Te  Te90  1  0.74496854  0.09019763  0.09478346  1
  Te  Te91  1  0.71918506  0.08337187  0.45005606  1
  Te  Te92  1  0.77437041  0.10728297  0.73654670  1
  Te  Te93  1  0.74537520  0.40122531  0.10164654  1
  Te  Te94  1  0.75528913  0.43800125  0.41716269  1
  Te  Te95  1  0.75641050  0.40406685  0.73601904  1
  Te  Te96  1  0.75429130  0.77577552  0.09575620  1
  Te  Te97  1  0.74743166  0.77993662  0.40045987  1
  Te  Te98  1  0.75832404  0.76689330  0.77472804  1
  Te  Te99  1  0.08776264  0.20717621  0.24655250  1
  Te  Te100  1  0.04620603  0.21702931  0.60265288  1
  Te  Te101  1  0.10568138  0.23366822  0.91470664  1
  Te  Te102  1  0.06672002  0.60132357  0.24312229  1
  Te  Te103  1  0.08506243  0.58211056  0.55957615  1
  Te  Te104  1  0.06746352  0.58082374  0.91732435  1
  Te  Te105  1  0.09660822  0.93339403  0.26030918  1
  Te  Te106  1  0.07005314  0.89811594  0.57880504  1
  Te  Te107  1  0.05779413  0.92024460  0.90784069  1
  Te  Te108  1  0.40374980  0.24611672  0.27272552  1
  Te  Te109  1  0.41501123  0.25676027  0.59552524  1
  Te  Te110  1  0.43095374  0.25360247  0.90065828  1
  Te  Te111  1  0.38787236  0.59796460  0.24581274  1
  Te  Te112  1  0.42094675  0.60439791  0.55423712  1
  Te  Te113  1  0.39708847  0.57291208  0.91112220  1
  Te  Te114  1  0.42843530  0.91180583  0.27062448  1
  Te  Te115  1  0.42419545  0.93950025  0.58478907  1
  Te  Te116  1  0.43415809  0.92888725  0.89870039  1
  Te  Te117  1  0.75404690  0.23598839  0.25447036  1
  Te  Te118  1  0.74396698  0.20262453  0.61724069  1
  Te  Te119  1  0.76870086  0.24953408  0.91375125  1
  Te  Te120  1  0.75277983  0.59246861  0.24555513  1
  Te  Te121  1  0.73062364  0.59020532  0.59053376  1
  Te  Te122  1  0.73485598  0.59042729  0.93847029  1
  Te  Te123  1  0.74605535  0.90962324  0.27616763  1
  Te  Te124  1  0.74160619  0.91216927  0.58938170  1
  Te  Te125  1  0.71877817  0.95961799  0.91576187  1
  Te  Te126  1  0.27991852  0.22896758  0.09265667  1
  Te  Te127  1  0.23225922  0.22196631  0.42298027  1
  Te  Te128  1  0.25509960  0.22635789  0.70469541  1
  Te  Te129  1  0.24794155  0.56823346  0.09501443  1
  Te  Te130  1  0.23841996  0.58219141  0.39098290  1
  Te  Te131  1  0.25380609  0.58065134  0.73378587  1
  Te  Te132  1  0.25630356  0.95887262  0.06299446  1
  Te  Te133  1  0.25523757  0.96125869  0.41682819  1
  Te  Te134  1  0.24402674  0.89340162  0.73601939  1
  Te  Te135  1  0.57988123  0.23702143  0.11335693  1
  Te  Te136  1  0.58671219  0.26659561  0.41812220  1
  Te  Te137  1  0.59631102  0.24820236  0.72564659  1
  Te  Te138  1  0.54501185  0.61573616  0.08749134  1
  Te  Te139  1  0.59820933  0.64194476  0.41414198  1
  Te  Te140  1  0.57237040  0.58501731  0.75644029  1
  Te  Te141  1  0.58936119  0.90619691  0.09356168  1
  Te  Te142  1  0.53801845  0.88296789  0.37962748  1
  Te  Te143  1  0.62273484  0.92808463  0.77695926  1
  Te  Te144  1  0.93623104  0.23283230  0.06303388  1
  Te  Te145  1  0.89663352  0.25564322  0.41004992  1
  Te  Te146  1  0.94746927  0.23997931  0.72618769  1
  Te  Te147  1  0.89297184  0.56958014  0.08423464  1
  Te  Te148  1  0.91619330  0.59443395  0.41090903  1
  Te  Te149  1  0.91381857  0.56919691  0.75304196  1
  Te  Te150  1  0.92188732  0.91827651  0.08778132  1
  Te  Te151  1  0.90680720  0.90653864  0.43773019  1
  Te  Te152  1  0.88932005  0.94022500  0.74650732  1
  Te  Te153  1  0.23407752  0.02959696  0.27064076  1
  Te  Te154  1  0.24541826  0.09894860  0.61623552  1
  Te  Te155  1  0.27856657  0.07664799  0.89296484  1
  Te  Te156  1  0.24230575  0.39647949  0.25088227  1
  Te  Te157  1  0.25682780  0.40086683  0.57388127  1
  Te  Te158  1  0.23909780  0.40460551  0.87906866  1
  Te  Te159  1  0.23922569  0.78383884  0.27791821  1
  Te  Te160  1  0.22361207  0.74405795  0.54407322  1
  Te  Te161  1  0.24582589  0.74804593  0.91374035  1
  Te  Te162  1  0.61115706  0.06320258  0.27698949  1
  Te  Te163  1  0.59037990  0.08063903  0.55528943  1
  Te  Te164  1  0.60943934  0.07778704  0.93768776  1
  Te  Te165  1  0.58070396  0.43795845  0.24240025  1
  Te  Te166  1  0.58970398  0.42084300  0.58571557  1
  Te  Te167  1  0.60776374  0.41272088  0.90986509  1
  Te  Te168  1  0.57218021  0.70626611  0.26202129  1
  Te  Te169  1  0.58164470  0.76938364  0.58710404  1
  Te  Te170  1  0.57919450  0.76332628  0.90508049  1
  Te  Te171  1  0.91506911  0.08385354  0.24836982  1
  Te  Te172  1  0.94699875  0.10431477  0.55856903  1
  Te  Te173  1  0.95233253  0.05148361  0.93090425  1
  Te  Te174  1  0.94761839  0.39930900  0.24262701  1
  Te  Te175  1  0.92360988  0.39573134  0.57644515  1
  Te  Te176  1  0.93692168  0.41447450  0.90903012  1
  Te  Te177  1  0.93329337  0.77111565  0.27200090  1
  Te  Te178  1  0.89213917  0.75820900  0.59367515  1
  Te  Te179  1  0.90893499  0.75100822  0.95086827  1
