# generated using pymatgen
data_In2Te3
_symmetry_space_group_name_H-M   'P 1'
_cell_length_a   18.76450218
_cell_length_b   18.76582066
_cell_length_c   18.76936240
_cell_angle_alpha   90.02080931
_cell_angle_beta   89.90227506
_cell_angle_gamma   89.95169360
_symmetry_Int_Tables_number   1
_chemical_formula_structural   In2Te3
_chemical_formula_sum   'In72 Te108'
_cell_volume   6609.26725567
_cell_formula_units_Z   36
loop_
 _symmetry_equiv_pos_site_id
 _symmetry_equiv_pos_as_xyz
  1  'x, y, z'
loop_
 _atom_site_type_symbol
 _atom_site_label
 _atom_site_symmetry_multiplicity
 _atom_site_fract_x
 _atom_site_fract_y
 _atom_site_fract_z
 _atom_site_occupancy
  In  In0  1  0.51270281  0.33134639  0.82834956  1
  In  In1  1  0.67729488  0.66493718  -0.00307254  1
  In  In2  1  0.00150759  0.64597125  0.66568816  1
  In  In3  1  -0.01013287  0.80973106  0.82065063  1
  In  In4  1  0.31903760  0.33714523  -0.00485921  1
  In  In5  1  0.00322884  0.32111664  0.00930662  1
  In  In6  1  0.35420839  0.48689413  0.17622323  1
  In  In7  1  0.67950420  -0.01013406  0.00527236  1
  In  In8  1  0.15247717  0.01659992  0.48805488  1
  In  In9  1  0.49395704  0.16585698  0.01298690  1
  In  In10  1  0.83475446  0.34859163  0.82551634  1
  In  In11  1  0.85171258  0.16107172  0.00859697  1
  In  In12  1  0.15421590  0.48763460  -0.00751278  1
  In  In13  1  0.00578849  0.66120478  0.00914607  1
  In  In14  1  0.35120930  0.01023417  0.67458493  1
  In  In15  1  0.00842680  0.50510524  0.50909688  1
  In  In16  1  0.15646264  0.66232202  0.16270087  1
  In  In17  1  0.50909203  0.66493537  0.50055523  1
  In  In18  1  0.32093265  0.83540014  0.16808164  1
  In  In19  1  0.32097832  0.50101720  0.51132970  1
  In  In20  1  0.83139848  0.66228042  0.51047098  1
  In  In21  1  0.66404386  0.00733540  0.33747743  1
  In  In22  1  0.48792928  0.17899421  0.33972885  1
  In  In23  1  0.66282561  0.35105685  0.00513244  1
  In  In24  1  0.48748176  0.82051038  0.68377843  1
  In  In25  1  0.34083123  0.66432760  -0.01310157  1
  In  In26  1  0.86372236  -0.02541249  0.47512512  1
  In  In27  1  0.67905700  0.81344745  0.16677131  1
  In  In28  1  0.84116994  -0.00620365  0.15937860  1
  In  In29  1  -0.01054146  -0.01387854  -0.00278718  1
  In  In30  1  0.81356428  0.81291707  0.00707288  1
  In  In31  1  0.83959618  0.50916930  0.00206620  1
  In  In32  1  0.82153827  0.17477451  0.32785954  1
  In  In33  1  0.82400543  0.50705056  0.66883640  1
  In  In34  1  0.17700857  0.34516618  0.50748365  1
  In  In35  1  0.14929239  0.00748775  0.84770118  1
  In  In36  1  0.51824777  0.51247182  0.34989626  1
  In  In37  1  0.19878990  0.20161129  0.68934628  1
  In  In38  1  0.16610297  0.50391211  0.33501284  1
  In  In39  1  0.66983772  0.34057642  0.33885892  1
  In  In40  1  0.52250305  0.82309089  0.32023702  1
  In  In41  1  0.49143566  0.66535528  0.82463500  1
  In  In42  1  0.31579737  0.02734850  0.32686643  1
  In  In43  1  0.67423418  0.81422641  0.48905031  1
  In  In44  1  0.33836697  0.83494247  0.51927213  1
  In  In45  1  0.02716075  0.35847104  0.68944892  1
  In  In46  1  0.50408245  0.33620151  0.19428136  1
  In  In47  1  0.18253010  0.16543650  -0.01266006  1
  In  In48  1  0.34220384  0.18551750  0.49723659  1
  In  In49  1  0.14954975  0.81864064  0.33561893  1
  In  In50  1  0.66048117  0.17144875  0.81965810  1
  In  In51  1  0.83331400  0.49173743  0.28202043  1
  In  In52  1  -0.00420442  0.16561897  0.48414510  1
  In  In53  1  0.50491272  0.65802813  0.16807023  1
  In  In54  1  0.50374967  0.33470364  0.52919448  1
  In  In55  1  0.50975528  0.01049006  0.15858173  1
  In  In56  1  0.32360679  0.83199049  0.84866341  1
  In  In57  1  0.00244747  0.00005811  0.65013589  1
  In  In58  1  0.32318465  0.00146402  -0.00747727  1
  In  In59  1  0.79746786  0.31543592  0.52277130  1
  In  In60  1  0.16687487  -0.01109831  0.17979780  1
  In  In61  1  0.82786673  0.81415886  0.67459988  1
  In  In62  1  0.67421153  0.81090057  0.83117664  1
  In  In63  1  -0.01391118  0.18521958  0.83519785  1
  In  In64  1  0.51286510  0.49344931  0.67403666  1
  In  In65  1  0.30722343  0.33574443  0.34274746  1
  In  In66  1  0.47718394  0.01158537  0.81094035  1
  In  In67  1  0.00084917  0.67542399  0.33543535  1
  In  In68  1  0.66628020  0.02890144  0.65442016  1
  In  In69  1  0.15750718  0.82815804  0.65371995  1
  In  In70  1  0.00216168  0.18857457  0.17346086  1
  In  In71  1  0.49982908  0.52947000  -0.02207358  1
  Te  Te72  1  0.07412672  0.08857195  0.07177825  1
  Te  Te73  1  0.07406981  0.08771459  0.38577772  1
  Te  Te74  1  0.08307549  0.09574621  0.74104465  1
  Te  Te75  1  0.06991824  0.42234008  0.09572060  1
  Te  Te76  1  0.07458163  0.40497356  0.41119566  1
  Te  Te77  1  0.08656059  0.46979136  0.76938474  1
  Te  Te78  1  0.07073986  0.76269497  0.09804190  1
  Te  Te79  1  0.10133619  0.72018395  0.43534383  1
  Te  Te80  1  0.10122601  0.72913627  0.75497377  1
  Te  Te81  1  0.39252907  0.08864175  0.09761248  1
  Te  Te82  1  0.42149381  0.07358768  0.42818317  1
  Te  Te83  1  0.43539860  0.12448571  0.72331404  1
  Te  Te84  1  0.43812889  0.41492309  0.06877171  1
  Te  Te85  1  0.41789458  0.41071496  0.41581645  1
  Te  Te86  1  0.41332439  0.40668957  0.74597206  1
  Te  Te87  1  0.42026738  0.75369981  0.08366904  1
  Te  Te88  1  0.42177226  0.75549957  0.41366116  1
  Te  Te89  1  0.37802727  0.73404867  0.74397727  1
  Te  Te90  1  0.74384045  0.09337946  0.09580134  1
  Te  Te91  1  0.75898247  0.07935861  0.43125391  1
  Te  Te92  1  0.75879682  0.08136918  0.75599080  1
  Te  Te93  1  0.75847340  0.42114186  0.09224319  1
  Te  Te94  1  0.76990796  0.42159266  0.41602962  1
  Te  Te95  1  0.73356755  0.40500420  0.73316279  1
  Te  Te96  1  0.78043696  0.70421939  0.11873205  1
  Te  Te97  1  0.77736630  0.75098589  0.40001658  1
  Te  Te98  1  0.75221187  0.71326988  0.75200027  1
  Te  Te99  1  0.05349878  0.29551832  0.26119445  1
  Te  Te100  1  0.08312999  0.24683427  0.58776112  1
  Te  Te101  1  0.09723896  0.26169275  0.90161867  1
  Te  Te102  1  0.06430188  0.57089496  0.24257156  1
  Te  Te103  1  0.11442581  0.57933772  0.58540094  1
  Te  Te104  1  0.08796919  0.58894033  0.90604585  1
  Te  Te105  1  0.06429998  0.91628151  0.26009667  1
  Te  Te106  1  0.07099809  0.90455707  0.55298869  1
  Te  Te107  1  0.07972150  0.89218013  0.91661374  1
  Te  Te108  1  0.39122880  0.24866415  0.24517056  1
  Te  Te109  1  0.40642640  0.25587608  0.61085865  1
  Te  Te110  1  0.41538718  0.24691029  0.91334369  1
  Te  Te111  1  0.41200784  0.59025640  0.27117524  1
  Te  Te112  1  0.41601412  0.58713991  0.59299050  1
  Te  Te113  1  0.38781766  0.56404127  0.88120660  1
  Te  Te114  1  0.41823166  0.92215655  0.25302427  1
  Te  Te115  1  0.44228485  0.92758429  0.58410449  1
  Te  Te116  1  0.42816018  0.91571404  0.92167427  1
  Te  Te117  1  0.74079922  0.25873422  0.23742851  1
  Te  Te118  1  0.70800349  0.22332542  0.60263145  1
  Te  Te119  1  0.75530125  0.24785705  0.92322837  1
  Te  Te120  1  0.74953098  0.60488504  0.24189014  1
  Te  Te121  1  0.72885894  0.57231909  0.57244463  1
  Te  Te122  1  0.75083079  0.57824711  0.90325835  1
  Te  Te123  1  0.75321662  0.91338478  0.25728655  1
  Te  Te124  1  0.75608787  0.91326733  0.57795621  1
  Te  Te125  1  0.76283105  0.91439483  0.90332736  1
  Te  Te126  1  0.23666811  0.25792394  0.08845322  1
  Te  Te127  1  0.22354937  0.23079513  0.41329045  1
  Te  Te128  1  0.25979212  0.30321689  0.77584749  1
  Te  Te129  1  0.26276489  0.57171134  0.08534061  1
  Te  Te130  1  0.24602951  0.59234343  0.42240949  1
  Te  Te131  1  0.20924336  0.53104571  0.70077010  1
  Te  Te132  1  0.23011658  0.90629764  0.06757725  1
  Te  Te133  1  0.25340634  0.91558749  0.41399862  1
  Te  Te134  1  0.24290616  0.92396994  0.74568981  1
  Te  Te135  1  0.58762045  0.25161181  0.09621474  1
  Te  Te136  1  0.58780328  0.24936172  0.43023056  1
  Te  Te137  1  0.61070060  0.27737707  0.72357355  1
  Te  Te138  1  0.59841916  0.56866778  0.08728916  1
  Te  Te139  1  0.61693056  0.58488564  0.43362394  1
  Te  Te140  1  0.59536349  0.58959418  0.75354588  1
  Te  Te141  1  0.58224372  0.90001029  0.08185575  1
  Te  Te142  1  0.57885206  0.91813314  0.42644747  1
  Te  Te143  1  0.58856556  0.91990846  0.75355324  1
  Te  Te144  1  0.89043304  0.27251219  0.10350457  1
  Te  Te145  1  0.90217716  0.26671778  0.41967884  1
  Te  Te146  1  0.90924179  0.25641965  0.72752077  1
  Te  Te147  1  0.91636873  0.58849378  0.10422691  1
  Te  Te148  1  0.90904617  0.56850777  0.41093496  1
  Te  Te149  1  0.91914381  0.57065339  0.76263232  1
  Te  Te150  1  0.92262319  0.88456444  0.08992368  1
  Te  Te151  1  0.94354159  0.88966347  0.38322570  1
  Te  Te152  1  0.91458637  0.91995014  0.74636426  1
  Te  Te153  1  0.22857663  0.10832050  0.24029831  1
  Te  Te154  1  0.24539472  0.08590296  0.58808041  1
  Te  Te155  1  0.27039869  0.09397202  0.88299224  1
  Te  Te156  1  0.23458973  0.41069247  0.23186559  1
  Te  Te157  1  0.26140323  0.40696076  0.61587228  1
  Te  Te158  1  0.24341967  0.41409706  0.89114394  1
  Te  Te159  1  0.25360410  0.73427039  0.25826372  1
  Te  Te160  1  0.25278478  0.73595336  0.58635544  1
  Te  Te161  1  0.23322641  0.74330760  0.92414188  1
  Te  Te162  1  0.58812826  0.10510552  0.24898031  1
  Te  Te163  1  0.58800206  0.12491593  0.57697866  1
  Te  Te164  1  0.58186311  0.07629264  0.92171507  1
  Te  Te165  1  0.60116243  0.44102340  0.24351272  1
  Te  Te166  1  0.60207206  0.43943813  0.56514758  1
  Te  Te167  1  0.59573510  0.43850059  0.89975187  1
  Te  Te168  1  0.61167138  0.71202791  0.26734269  1
  Te  Te169  1  0.59232711  0.74664841  0.60128682  1
  Te  Te170  1  0.57109569  0.75038301  0.92595795  1
  Te  Te171  1  0.92113665  0.08434043  0.25286681  1
  Te  Te172  1  0.90280070  0.08867410  0.57784871  1
  Te  Te173  1  0.90765483  0.06990049  0.89905273  1
  Te  Te174  1  0.93943826  0.39894845  0.23886362  1
  Te  Te175  1  0.91885046  0.40655613  0.58546142  1
  Te  Te176  1  0.93369306  0.42030639  0.91423517  1
  Te  Te177  1  0.89954358  0.77373688  0.28834891  1
  Te  Te178  1  0.93174395  0.75378365  0.58004968  1
  Te  Te179  1  0.90010712  0.72931975  0.91242041  1
