# generated using pymatgen
data_In2Te3
_symmetry_space_group_name_H-M   'P 1'
_cell_length_a   19.00672535
_cell_length_b   19.02572262
_cell_length_c   19.00019103
_cell_angle_alpha   89.96495271
_cell_angle_beta   89.88833569
_cell_angle_gamma   90.05041353
_symmetry_Int_Tables_number   1
_chemical_formula_structural   In2Te3
_chemical_formula_sum   'In72 Te108'
_cell_volume   6870.76908340
_cell_formula_units_Z   36
loop_
 _symmetry_equiv_pos_site_id
 _symmetry_equiv_pos_as_xyz
  1  'x, y, z'
loop_
 _atom_site_type_symbol
 _atom_site_label
 _atom_site_symmetry_multiplicity
 _atom_site_fract_x
 _atom_site_fract_y
 _atom_site_fract_z
 _atom_site_occupancy
  In  In0  1  0.82818763  0.33367230  0.50925865  1
  In  In1  1  0.35942897  0.33091273  0.64016483  1
  In  In2  1  0.66279284  0.63676240  -0.01233486  1
  In  In3  1  0.83270351  0.16571268  0.31741294  1
  In  In4  1  0.66590641  0.34909916  0.01077831  1
  In  In5  1  0.33326179  0.20651657  0.18270436  1
  In  In6  1  0.00183325  0.35473841  0.67337190  1
  In  In7  1  0.65204252  0.49183970  0.49408745  1
  In  In8  1  0.47421025  0.66027465  0.82866343  1
  In  In9  1  0.82521529  0.47378664  0.66764573  1
  In  In10  1  0.30133271  0.00607219  0.66303300  1
  In  In11  1  -0.01556941  0.64089405  0.35825558  1
  In  In12  1  0.00225052  0.18383149  0.82544897  1
  In  In13  1  0.64900326  0.64206426  0.66238063  1
  In  In14  1  0.33764813  0.64760762  0.34976023  1
  In  In15  1  0.13368992  0.83473230  0.69271094  1
  In  In16  1  0.49363367  0.65900563  0.18923553  1
  In  In17  1  0.66676994  0.31398944  0.32507535  1
  In  In18  1  0.83307551  0.81855159  -0.01307558  1
  In  In19  1  0.51039099  0.15975728  0.36606870  1
  In  In20  1  -0.00654079  0.85083181  0.49758627  1
  In  In21  1  0.82543604  0.65657884  0.83082592  1
  In  In22  1  0.48118407  0.86288711  -0.02424621  1
  In  In23  1  0.67936572  0.49708078  0.16825202  1
  In  In24  1  0.67017841  0.14128918  0.81816726  1
  In  In25  1  0.17180799  0.51227015  0.00015993  1
  In  In26  1  0.51655871  0.31105648  0.85133187  1
  In  In27  1  0.46579870  0.01671400  0.81797594  1
  In  In28  1  0.36054050  0.37162641  0.38149303  1
  In  In29  1  0.33011916  0.65421175  0.00293743  1
  In  In30  1  0.16421295  0.66376855  0.51607574  1
  In  In31  1  0.84394865  0.32184397  0.85038430  1
  In  In32  1  -0.00948519  0.13548811  0.50222681  1
  In  In33  1  0.16092400  0.35003312  0.81563449  1
  In  In34  1  0.67686271  0.82912499  0.83890122  1
  In  In35  1  0.68020804  -0.01108948  0.32546616  1
  In  In36  1  0.32086335  0.32795903  -0.00482644  1
  In  In37  1  0.46139024  0.51856281  0.67543643  1
  In  In38  1  0.85486126  0.85051694  0.65698141  1
  In  In39  1  0.83083164  0.82184430  0.34501788  1
  In  In40  1  0.51137698  0.81141531  0.67333408  1
  In  In41  1  0.18767072  0.35077441  0.18823818  1
  In  In42  1  0.66754079  0.65394664  0.34942585  1
  In  In43  1  0.83355778  0.67505625  0.15845754  1
  In  In44  1  0.68257845  -0.01070176  0.66233969  1
  In  In45  1  0.31869940  0.82952571  0.14433546  1
  In  In46  1  0.65663049  0.15478291  0.48300399  1
  In  In47  1  0.50132985  0.82927635  0.31658997  1
  In  In48  1  0.49396653  0.17110420  0.00944551  1
  In  In49  1  0.49685597  0.34610302  0.15614531  1
  In  In50  1  0.85069276  0.15853236  0.00083193  1
  In  In51  1  0.12976280  0.02925030  0.00031178  1
  In  In52  1  0.00202579  0.33649170  -0.00352916  1
  In  In53  1  0.84622989  0.00435188  0.17776714  1
  In  In54  1  0.34998172  0.85428986  0.83107968  1
  In  In55  1  0.00652696  0.84469808  0.14970779  1
  In  In56  1  0.01972169  0.67278444  0.00133788  1
  In  In57  1  0.49391441  -0.01005144  0.49388903  1
  In  In58  1  0.15962878  0.84204234  -0.00196057  1
  In  In59  1  -0.00836166  0.52003953  0.18227727  1
  In  In60  1  0.65841027  0.32071663  0.66718279  1
  In  In61  1  0.68395883  -0.01191743  -0.00305544  1
  In  In62  1  0.52345785  0.01355026  0.16879879  1
  In  In63  1  0.00812213  0.67118577  0.67314481  1
  In  In64  1  0.17287268  0.18581255  0.64281333  1
  In  In65  1  0.32432115  0.82381109  0.49495107  1
  In  In66  1  0.15445715  0.84550821  0.31104738  1
  In  In67  1  0.14697322  0.18281443  0.35304743  1
  In  In68  1  0.15755007  0.36315449  0.48841339  1
  In  In69  1  0.00697229  0.00487060  0.67297031  1
  In  In70  1  0.32825219  0.02151373  0.33392009  1
  In  In71  1  -0.00286386  0.36724150  0.34149563  1
  Te  Te72  1  0.05034472  0.06246013  0.12119821  1
  Te  Te73  1  0.07968331  0.06655573  0.41091560  1
  Te  Te74  1  0.09944206  0.10035173  0.74489548  1
  Te  Te75  1  0.08747507  0.42698121  0.09581047  1
  Te  Te76  1  0.10988391  0.45601424  0.38266987  1
  Te  Te77  1  0.09766733  0.45169011  0.72781196  1
  Te  Te78  1  0.10669614  0.74180135  0.10287615  1
  Te  Te79  1  0.08649937  0.75490227  0.41354193  1
  Te  Te80  1  0.10831861  0.71410537  0.77436985  1
  Te  Te81  1  0.41096501  0.09515473  0.11022706  1
  Te  Te82  1  0.39744366  0.09631443  0.44610560  1
  Te  Te83  1  0.39784157  0.10009493  0.72115830  1
  Te  Te84  1  0.39113284  0.41860636  0.08713040  1
  Te  Te85  1  0.43075019  0.47603737  0.45982570  1
  Te  Te86  1  0.42723596  0.39381263  0.76095334  1
  Te  Te87  1  0.43462041  0.75647363  0.08131941  1
  Te  Te88  1  0.43061113  0.74596318  0.42050929  1
  Te  Te89  1  0.39104067  0.74275097  0.73485613  1
  Te  Te90  1  0.74923506  0.08371870  0.09133981  1
  Te  Te91  1  0.76578373  0.07225339  0.41737708  1
  Te  Te92  1  0.77332179  0.07341620  0.74044659  1
  Te  Te93  1  0.76920547  0.42810161  0.07523324  1
  Te  Te94  1  0.74821094  0.41178426  0.40840918  1
  Te  Te95  1  0.73912685  0.39985134  0.76739553  1
  Te  Te96  1  0.73170199  0.74423663  0.06985959  1
  Te  Te97  1  0.75325706  0.73716476  0.43424867  1
  Te  Te98  1  0.74575162  0.74578558  0.73484666  1
  Te  Te99  1  0.07682359  0.27091990  0.25324158  1
  Te  Te100  1  0.06742792  0.26331922  0.56362392  1
  Te  Te101  1  0.10003693  0.25355945  0.91619281  1
  Te  Te102  1  0.09057336  0.58303445  0.27270262  1
  Te  Te103  1  0.08475511  0.56932097  0.59745213  1
  Te  Te104  1  0.10272138  0.60008927  0.90274731  1
  Te  Te105  1  0.08583141  0.94716957  0.22510455  1
  Te  Te106  1  0.09559856  0.92561360  0.57829308  1
  Te  Te107  1  0.06506619  0.92201306  0.92206197  1
  Te  Te108  1  0.43534037  0.26080244  0.27998736  1
  Te  Te109  1  0.44353052  0.27006633  0.53835932  1
  Te  Te110  1  0.39785839  0.22836633  0.91099785  1
  Te  Te111  1  0.40095113  0.56066251  0.24678655  1
  Te  Te112  1  0.39188091  0.58914147  0.55913550  1
  Te  Te113  1  0.40411654  0.56567234  0.91417645  1
  Te  Te114  1  0.41370812  0.92935892  0.24464752  1
  Te  Te115  1  0.41319395  0.90810318  0.59293658  1
  Te  Te116  1  0.37425572  0.96938935  0.93884124  1
  Te  Te117  1  0.76855130  0.26603271  0.23276456  1
  Te  Te118  1  0.74530215  0.23102520  0.58236305  1
  Te  Te119  1  0.73282876  0.23628114  0.91770095  1
  Te  Te120  1  0.76681758  0.58317641  0.25814053  1
  Te  Te121  1  0.75232286  0.57072146  0.57783560  1
  Te  Te122  1  0.75856284  0.55684917  0.91455326  1
  Te  Te123  1  0.75507185  0.89690852  0.23361727  1
  Te  Te124  1  0.74568923  0.89568519  0.57134052  1
  Te  Te125  1  0.77597012  0.92722444  0.89344662  1
  Te  Te126  1  0.22669235  0.24706816  0.08310863  1
  Te  Te127  1  0.25345127  0.26947563  0.41939025  1
  Te  Te128  1  0.25735700  0.26224061  0.73984876  1
  Te  Te129  1  0.24135120  0.59361454  0.10034579  1
  Te  Te130  1  0.24592174  0.56978751  0.43552974  1
  Te  Te131  1  0.30913656  0.54014742  0.67649507  1
  Te  Te132  1  0.23479318  0.93657203  0.09022022  1
  Te  Te133  1  0.24470508  0.92017627  0.40963639  1
  Te  Te134  1  0.23093733  0.92457357  0.76854594  1
  Te  Te135  1  0.59107721  0.24490490  0.09682964  1
  Te  Te136  1  0.57141652  0.27931058  0.44993711  1
  Te  Te137  1  0.56976048  0.22123907  0.73938142  1
  Te  Te138  1  0.57261483  0.57289927  0.09016244  1
  Te  Te139  1  0.55940735  0.56758599  0.40576267  1
  Te  Te140  1  0.57843551  0.56836480  0.77051262  1
  Te  Te141  1  0.58539849  0.90824749  0.08043793  1
  Te  Te142  1  0.58982499  0.90511073  0.41375712  1
  Te  Te143  1  0.57130811  0.91853517  0.76645422  1
  Te  Te144  1  0.91886612  0.25553358  0.08484093  1
  Te  Te145  1  0.91654712  0.25008260  0.41700413  1
  Te  Te146  1  0.90697354  0.25285813  0.72963391  1
  Te  Te147  1  0.91472909  0.58629971  0.06726157  1
  Te  Te148  1  0.91946509  0.54974440  0.44812559  1
  Te  Te149  1  0.91295345  0.57032340  0.74325034  1
  Te  Te150  1  0.91004937  0.92226192  0.06464347  1
  Te  Te151  1  0.91954839  0.92553679  0.39698079  1
  Te  Te152  1  0.95156497  0.89529344  0.75565179  1
  Te  Te153  1  0.23947634  0.10874069  0.25146078  1
  Te  Te154  1  0.23735250  0.08562180  0.55798219  1
  Te  Te155  1  0.25017450  0.05909989  0.92343687  1
  Te  Te156  1  0.29666764  0.42547951  0.25624227  1
  Te  Te157  1  0.24599460  0.41957434  0.59544003  1
  Te  Te158  1  0.25482178  0.42959427  0.90337063  1
  Te  Te159  1  0.26589547  0.75474956  0.26264912  1
  Te  Te160  1  0.23828318  0.76293822  0.60196591  1
  Te  Te161  1  0.26608770  0.76370250  0.92064959  1
  Te  Te162  1  0.60381822  0.10233895  0.26067569  1
  Te  Te163  1  0.58051346  0.07290887  0.58600300  1
  Te  Te164  1  0.57539951  0.07092688  0.92505000  1
  Te  Te165  1  0.58194345  0.41988998  0.25665690  1
  Te  Te166  1  0.57707575  0.43305763  0.61069394  1
  Te  Te167  1  0.55543499  0.41641313  0.94411138  1
  Te  Te168  1  0.60366348  0.74556031  0.24521390  1
  Te  Te169  1  0.57328953  0.72795367  0.57248598  1
  Te  Te170  1  0.57129245  0.74955125  0.91203602  1
  Te  Te171  1  0.94208347  0.10270735  0.23483868  1
  Te  Te172  1  0.90006578  0.06799188  0.59395017  1
  Te  Te173  1  0.93017544  0.08418721  0.90440560  1
  Te  Te174  1  0.90084849  0.42796386  0.25059465  1
  Te  Te175  1  0.93266098  0.43681902  0.55393893  1
  Te  Te176  1  0.94273254  0.41951236  0.89264304  1
  Te  Te177  1  0.93451637  0.74769220  0.24533551  1
  Te  Te178  1  0.91935377  0.74266882  0.57247038  1
  Te  Te179  1  0.92837102  0.74328481  0.90004979  1
