# generated using pymatgen
data_In2Te3
_symmetry_space_group_name_H-M   'P 1'
_cell_length_a   19.01255715
_cell_length_b   19.02093363
_cell_length_c   18.97163558
_cell_angle_alpha   89.91638417
_cell_angle_beta   90.16812684
_cell_angle_gamma   90.03962619
_symmetry_Int_Tables_number   1
_chemical_formula_structural   In2Te3
_chemical_formula_sum   'In72 Te108'
_cell_volume   6860.79908801
_cell_formula_units_Z   36
loop_
 _symmetry_equiv_pos_site_id
 _symmetry_equiv_pos_as_xyz
  1  'x, y, z'
loop_
 _atom_site_type_symbol
 _atom_site_label
 _atom_site_symmetry_multiplicity
 _atom_site_fract_x
 _atom_site_fract_y
 _atom_site_fract_z
 _atom_site_occupancy
  In  In0  1  0.84064018  0.77829957  0.35813871  1
  In  In1  1  -0.01150935  0.16814274  0.52062817  1
  In  In2  1  0.52381465  0.15426746  0.33691497  1
  In  In3  1  0.49900469  0.79532126  -0.01595892  1
  In  In4  1  0.83429589  0.17354195  0.31372572  1
  In  In5  1  0.81780488  0.35631049  0.81316218  1
  In  In6  1  0.83011622  0.33117244  0.50395431  1
  In  In7  1  0.84220364  0.34111534  0.18278206  1
  In  In8  1  -0.00777608  0.49271064  0.17331349  1
  In  In9  1  0.68828870  0.16014530  0.47108392  1
  In  In10  1  0.54369848  0.81441177  0.64081877  1
  In  In11  1  0.50858952  0.84935863  0.31641069  1
  In  In12  1  0.32757794  0.33376327  -0.01068220  1
  In  In13  1  -0.01880046  0.81873189  0.82516536  1
  In  In14  1  0.13568602  0.16606601  -0.01779859  1
  In  In15  1  0.74596395  0.55843548  0.73022303  1
  In  In16  1  0.52932006  0.16513714  -0.03169453  1
  In  In17  1  0.15832652  0.81547017  0.34987574  1
  In  In18  1  0.65555576  0.65766445  0.39452679  1
  In  In19  1  0.31350256  0.71377117  -0.04510448  1
  In  In20  1  0.82800050  0.15336424  0.67681687  1
  In  In21  1  0.36019294  0.83066488  0.49711386  1
  In  In22  1  0.33586046  0.50060865  0.52509315  1
  In  In23  1  -0.11186454  0.61227284  0.55745122  1
  In  In24  1  0.51965497  0.16416535  0.69117631  1
  In  In25  1  0.68618199  0.51181715  0.18609252  1
  In  In26  1  0.33587671  0.35374072  0.67113325  1
  In  In27  1  0.32815139  0.68329883  0.70217572  1
  In  In28  1  0.52120076  0.50767406  0.34556587  1
  In  In29  1  0.48535287  0.52082998  0.68060210  1
  In  In30  1  0.36750127  0.29617143  0.36132396  1
  In  In31  1  0.67464960  0.34300770  -0.01246230  1
  In  In32  1  0.54608080  0.36161752  0.77464066  1
  In  In33  1  0.17538167  0.67292475  0.17597318  1
  In  In34  1  0.49951998  0.49408048  -0.01401204  1
  In  In35  1  0.50450056  0.66545727  0.17063061  1
  In  In36  1  -0.01586662  -0.00889238  0.30830883  1
  In  In37  1  0.81111060  -0.00708044  0.15210156  1
  In  In38  1  0.19494035  0.49388576  0.33894221  1
  In  In39  1  0.15817582  0.64704405  0.53558678  1
  In  In40  1  0.35998858  0.13031639  0.55050288  1
  In  In41  1  0.35163658  0.13507847  0.82067188  1
  In  In42  1  0.13988340  0.51614471  -0.00261642  1
  In  In43  1  0.00424186  0.82255837  0.18403173  1
  In  In44  1  0.68832141  -0.00452549  0.66314719  1
  In  In45  1  0.68709761  0.34141829  0.33029320  1
  In  In46  1  0.33196311  -0.04122485  -0.03055879  1
  In  In47  1  0.50547932  0.01429789  0.14504772  1
  In  In48  1  -0.02088167  0.79995715  0.52198477  1
  In  In49  1  0.81005006  0.83640057  0.01651313  1
  In  In50  1  0.15131119  0.17415369  0.66957616  1
  In  In51  1  0.70440950  0.63866341  -0.02436824  1
  In  In52  1  0.54417556  -0.04028473  0.50430990  1
  In  In53  1  -0.02016755  0.64935976  0.00019275  1
  In  In54  1  0.34031079  0.47953209  0.18405500  1
  In  In55  1  0.14982528  0.21472041  0.34739471  1
  In  In56  1  0.68039777  0.83385181  0.16862686  1
  In  In57  1  0.02613215  0.34657090  0.31867047  1
  In  In58  1  -0.05150341  -0.04574617  0.67606593  1
  In  In59  1  0.15693650  0.01882704  0.50645090  1
  In  In60  1  0.15229112  0.82524375  0.68531554  1
  In  In61  1  0.18193750  0.01433311  0.13494276  1
  In  In62  1  -0.04096442  0.16319148  0.83731344  1
  In  In63  1  -0.03989911  -0.01143269  -0.05945258  1
  In  In64  1  0.13866892  -0.01627743  0.81337097  1
  In  In65  1  0.20248918  0.35067447  0.50102960  1
  In  In66  1  -0.01398669  0.39074200  0.66301748  1
  In  In67  1  0.50087395  0.65817747  0.84660381  1
  In  In68  1  0.34446580  0.16355589  0.15807194  1
  In  In69  1  0.14443095  0.35248620  0.81420958  1
  In  In70  1  0.33091021  0.00597579  0.32253390  1
  In  In71  1  0.15407050  0.35632170  0.15539352  1
  Te  Te72  1  0.06404467  0.06160886  0.05853005  1
  Te  Te73  1  0.06412798  0.08862522  0.40740509  1
  Te  Te74  1  0.05123085  0.08339470  0.73819882  1
  Te  Te75  1  0.04870807  0.40827615  0.05700224  1
  Te  Te76  1  0.09216433  0.42936488  0.42966896  1
  Te  Te77  1  0.05878221  0.46468221  0.76892936  1
  Te  Te78  1  0.07956245  0.74059182  0.08188111  1
  Te  Te79  1  0.07434983  0.72131984  0.42967594  1
  Te  Te80  1  0.05173005  0.72662968  0.73189047  1
  Te  Te81  1  0.40081291  0.07691529  0.04950242  1
  Te  Te82  1  0.42312917  0.07532763  0.42103450  1
  Te  Te83  1  0.45164037  0.05193827  0.75721584  1
  Te  Te84  1  0.42399718  0.40407283  0.08334589  1
  Te  Te85  1  0.42120049  0.41749271  0.42787325  1
  Te  Te86  1  0.40743337  0.43093227  0.77679381  1
  Te  Te87  1  0.40011470  0.73073476  0.08160401  1
  Te  Te88  1  0.44442005  0.75018478  0.40756369  1
  Te  Te89  1  0.44630528  0.76085050  0.74939475  1
  Te  Te90  1  0.70861885  0.04785743  0.06003191  1
  Te  Te91  1  0.78260876  0.07206260  0.40474082  1
  Te  Te92  1  0.73686707  0.08639112  0.76901435  1
  Te  Te93  1  0.75994944  0.42524058  0.08724584  1
  Te  Te94  1  0.73410299  0.42545963  0.44220716  1
  Te  Te95  1  0.74378992  0.41112154  0.69737155  1
  Te  Te96  1  0.75265317  0.72140348  0.09613839  1
  Te  Te97  1  0.71755178  0.79142478  0.45408994  1
  Te  Te98  1  0.80532143  0.70371520  0.73106750  1
  Te  Te99  1  0.06441655  0.23981891  0.21338075  1
  Te  Te100  1  0.08523493  0.27314776  0.57503970  1
  Te  Te101  1  0.05531653  0.26331101  0.90017347  1
  Te  Te102  1  0.09543593  0.57054229  0.25525379  1
  Te  Te103  1  0.03165524  0.62069870  0.61085491  1
  Te  Te104  1  0.09360977  0.62319253  0.91050124  1
  Te  Te105  1  0.10891216  0.92580086  0.24928507  1
  Te  Te106  1  0.07456967  0.91465842  0.57959403  1
  Te  Te107  1  0.07942028  0.89240600  0.91568519  1
  Te  Te108  1  0.44235462  0.24298703  0.24035899  1
  Te  Te109  1  0.42899248  0.25304250  0.60430720  1
  Te  Te110  1  0.41502997  0.24534902  0.90400036  1
  Te  Te111  1  0.41648211  0.58319142  0.26315992  1
  Te  Te112  1  0.41379994  0.61107050  0.58642872  1
  Te  Te113  1  0.39264806  0.58693370  0.92566140  1
  Te  Te114  1  0.40822634  0.92247394  0.22732562  1
  Te  Te115  1  0.43225799  0.91852143  0.59508426  1
  Te  Te116  1  0.44572079  0.90350105  0.89897037  1
  Te  Te117  1  0.73325736  0.24168824  0.22507392  1
  Te  Te118  1  0.74217022  0.24115085  0.58779976  1
  Te  Te119  1  0.78455435  0.26575148  0.92509136  1
  Te  Te120  1  0.74796394  0.58417956  0.29824626  1
  Te  Te121  1  0.74817944  0.64370608  0.60097324  1
  Te  Te122  1  0.79160193  0.53839553  0.90812596  1
  Te  Te123  1  0.78588666  0.89003651  0.25884762  1
  Te  Te124  1  0.74629282  0.89583599  0.56644597  1
  Te  Te125  1  0.71829589  0.93398454  0.95431147  1
  Te  Te126  1  0.23652800  0.24527261  0.07394393  1
  Te  Te127  1  0.26585581  0.21777663  0.45397700  1
  Te  Te128  1  0.24947313  0.25250177  0.75448271  1
  Te  Te129  1  0.24637101  0.56136007  0.09949294  1
  Te  Te130  1  0.25862044  0.59317400  0.43129548  1
  Te  Te131  1  0.24015858  0.57044024  0.71488882  1
  Te  Te132  1  0.24659359  0.90081357  0.07147822  1
  Te  Te133  1  0.25179637  0.92815848  0.42818459  1
  Te  Te134  1  0.25419321  0.90726770  0.75812459  1
  Te  Te135  1  0.58711817  0.25417232  0.06649894  1
  Te  Te136  1  0.58851219  0.26228494  0.41989536  1
  Te  Te137  1  0.60692401  0.22811750  0.78993271  1
  Te  Te138  1  0.58849618  0.58209984  0.07463842  1
  Te  Te139  1  0.59650309  0.54229086  0.46692119  1
  Te  Te140  1  0.59667169  0.59938463  0.74787321  1
  Te  Te141  1  0.56426247  0.88582562  0.08919689  1
  Te  Te142  1  0.60561205  0.94749180  0.37111742  1
  Te  Te143  1  0.63748094  0.87637136  0.73478937  1
  Te  Te144  1  0.95177468  0.27759211  0.11121817  1
  Te  Te145  1  0.92624159  0.25698360  0.40931715  1
  Te  Te146  1  0.92458950  0.26708620  0.72401587  1
  Te  Te147  1  0.89798074  0.57008600  0.09291366  1
  Te  Te148  1  0.87265183  0.63580032  0.40925425  1
  Te  Te149  1  0.88788216  0.58061861  0.78505622  1
  Te  Te150  1  0.92581155  0.90952412  0.08457070  1
  Te  Te151  1  0.93236442  0.89545222  0.41048249  1
  Te  Te152  1  0.88767026  0.94003177  0.81184217  1
  Te  Te153  1  0.24100237  0.10876291  0.25484245  1
  Te  Te154  1  0.24584219  0.06316897  0.62247580  1
  Te  Te155  1  0.22873705  0.08132208  0.89695873  1
  Te  Te156  1  0.26282577  0.37085762  0.26770760  1
  Te  Te157  1  0.21966687  0.44935578  0.62040624  1
  Te  Te158  1  0.23354419  0.42446314  0.91572657  1
  Te  Te159  1  0.25859892  0.75224017  0.26689827  1
  Te  Te160  1  0.24743205  0.76587798  0.57691336  1
  Te  Te161  1  0.25397076  0.76335259  0.83101495  1
  Te  Te162  1  0.60060750  0.06439626  0.24794071  1
  Te  Te163  1  0.59161629  0.08656916  0.57095881  1
  Te  Te164  1  0.60404341  0.04181346  0.94077108  1
  Te  Te165  1  0.58441073  0.41651918  0.24352832  1
  Te  Te166  1  0.58446291  0.41594662  0.64176387  1
  Te  Te167  1  0.60363948  0.43937652  0.89371598  1
  Te  Te168  1  0.60437958  0.73281621  0.26338223  1
  Te  Te169  1  0.57997343  0.74900273  0.51011727  1
  Te  Te170  1  0.61922628  0.73833207  0.90522854  1
  Te  Te171  1  0.91185190  0.08666318  0.21609566  1
  Te  Te172  1  0.89837086  0.06318116  0.57647646  1
  Te  Te173  1  0.88678937  0.11488724  0.95600643  1
  Te  Te174  1  0.90673102  0.43318691  0.28544579  1
  Te  Te175  1  0.90279696  0.45532923  0.55783775  1
  Te  Te176  1  0.91777345  0.45236705  0.87252124  1
  Te  Te177  1  0.93564469  0.71836530  0.25862505  1
  Te  Te178  1  0.87339092  0.82870000  0.62787840  1
  Te  Te179  1  0.89122820  0.74862154  0.92454715  1
