# generated using pymatgen
data_In2Te3
_symmetry_space_group_name_H-M   'P 1'
_cell_length_a   18.75863939
_cell_length_b   18.74529622
_cell_length_c   18.75616840
_cell_angle_alpha   89.97175844
_cell_angle_beta   90.03445020
_cell_angle_gamma   89.95537870
_symmetry_Int_Tables_number   1
_chemical_formula_structural   In2Te3
_chemical_formula_sum   'In72 Te108'
_cell_volume   6595.34476412
_cell_formula_units_Z   36
loop_
 _symmetry_equiv_pos_site_id
 _symmetry_equiv_pos_as_xyz
  1  'x, y, z'
loop_
 _atom_site_type_symbol
 _atom_site_label
 _atom_site_symmetry_multiplicity
 _atom_site_fract_x
 _atom_site_fract_y
 _atom_site_fract_z
 _atom_site_occupancy
  In  In0  1  0.15560123  0.33375476  0.15838776  1
  In  In1  1  -0.01762024  0.51559424  0.49665280  1
  In  In2  1  0.64777152  -0.02236849  0.33200406  1
  In  In3  1  0.34852701  0.51465082  0.18371947  1
  In  In4  1  0.66514928  0.67401836  0.34363579  1
  In  In5  1  0.16131128  0.18303157  0.00496165  1
  In  In6  1  0.67390567  0.50371127  0.14635172  1
  In  In7  1  0.67061684  0.82504762  0.16708276  1
  In  In8  1  0.85460251  -0.03096368  0.48595284  1
  In  In9  1  0.50389609  -0.00504059  0.83208011  1
  In  In10  1  0.16124436  0.15481958  0.66839009  1
  In  In11  1  0.35114211  0.48738268  0.82942293  1
  In  In12  1  0.13277199  0.00700625  0.84784204  1
  In  In13  1  0.66861686  0.33594568  0.35570843  1
  In  In14  1  0.68825220  0.00159279  0.65596443  1
  In  In15  1  0.48129405  0.32981564  0.17165363  1
  In  In16  1  0.84373840  0.49246413  0.34440773  1
  In  In17  1  0.51896017  0.51162066  -0.00291271  1
  In  In18  1  0.14010669  -0.02582384  0.47206317  1
  In  In19  1  0.50639579  0.83219304  0.64776861  1
  In  In20  1  -0.01169385  -0.00805777  0.00579161  1
  In  In21  1  0.68658573  0.14138249  0.15772091  1
  In  In22  1  0.15546594  0.48448508  0.67410368  1
  In  In23  1  0.15694863  0.82912317  0.63347571  1
  In  In24  1  0.65792970  0.34900961  -0.00549864  1
  In  In25  1  0.32646711  0.31002559  -0.01590647  1
  In  In26  1  0.00337654  0.34094673  0.32851174  1
  In  In27  1  0.00818177  0.16822483  0.83066279  1
  In  In28  1  0.33055909  -0.01538818  0.32698213  1
  In  In29  1  0.49519553  -0.01303489  0.17380709  1
  In  In30  1  0.70675646  0.84487770  0.85837477  1
  In  In31  1  0.14146410  0.33589757  0.82477569  1
  In  In32  1  0.51344110  -0.01525576  0.49787963  1
  In  In33  1  0.81113024  0.34076456  0.51038562  1
  In  In34  1  -0.02087060  0.64924722  0.66648009  1
  In  In35  1  0.63879546  0.65672670  0.67668270  1
  In  In36  1  0.84211104  0.13967962  0.33312918  1
  In  In37  1  0.35530739  0.17588202  0.85941712  1
  In  In38  1  0.49869466  0.51991513  0.33603729  1
  In  In39  1  0.65983386  0.32614809  0.66522609  1
  In  In40  1  0.15556915  0.67076021  0.84846457  1
  In  In41  1  -0.02251361  0.67774364  -0.02083248  1
  In  In42  1  0.13523585  0.68690882  0.21304756  1
  In  In43  1  0.32573266  0.53373943  0.48979612  1
  In  In44  1  0.83275054  0.50926318  0.67836513  1
  In  In45  1  0.33304499  0.18116868  0.49307691  1
  In  In46  1  0.33007208  0.82164326  0.81300657  1
  In  In47  1  0.66089112  0.18145150  0.50479282  1
  In  In48  1  0.86334614  -0.01498057  0.17782343  1
  In  In49  1  0.83646694  0.33453082  0.15480742  1
  In  In50  1  0.32061818  -0.01484209  0.03219240  1
  In  In51  1  0.49078140  0.16685789  -0.02093676  1
  In  In52  1  0.34198518  0.66741709  0.01978898  1
  In  In53  1  0.83546882  0.83554533  0.66876579  1
  In  In54  1  0.69015773  0.64298642  -0.01331442  1
  In  In55  1  0.85685520  0.34251187  0.83962178  1
  In  In56  1  0.31857261  0.32741257  0.32229178  1
  In  In57  1  0.51133048  0.81164971  0.00362306  1
  In  In58  1  0.84613062  0.16460972  0.01137911  1
  In  In59  1  0.85413714  0.69482106  0.17723098  1
  In  In60  1  0.15441143  0.32690109  0.49514664  1
  In  In61  1  0.67357276  0.15919217  0.80901430  1
  In  In62  1  0.15434150  0.68962085  0.45748238  1
  In  In63  1  0.14672024  0.51454262  0.01754257  1
  In  In64  1  0.51155887  0.34323875  0.50861803  1
  In  In65  1  0.15441442  0.86110237  0.02578670  1
  In  In66  1  0.83881729  0.67432270  0.48516749  1
  In  In67  1  0.15858412  -0.02575382  0.19496511  1
  In  In68  1  0.34058847  -0.00634032  0.66118680  1
  In  In69  1  0.35216100  0.66364389  0.65996398  1
  In  In70  1  0.35362959  0.35359016  0.68702187  1
  In  In71  1  0.00228007  0.14763787  0.50156710  1
  Te  Te72  1  0.09795910  0.06784241  0.08156690  1
  Te  Te73  1  0.07481809  0.08071332  0.39156148  1
  Te  Te74  1  0.05560499  0.06135619  0.72824965  1
  Te  Te75  1  0.05811749  0.41551849  0.08047008  1
  Te  Te76  1  0.08761322  0.43697020  0.41351993  1
  Te  Te77  1  0.04632350  0.42493229  0.75346415  1
  Te  Te78  1  0.08060413  0.74011934  0.07992885  1
  Te  Te79  1  0.05342257  0.78978957  0.40188479  1
  Te  Te80  1  0.08087173  0.74411282  0.73736847  1
  Te  Te81  1  0.41550132  0.09004363  0.08922999  1
  Te  Te82  1  0.41618342  0.07575465  0.42024469  1
  Te  Te83  1  0.42140394  0.09072329  0.74579670  1
  Te  Te84  1  0.40848263  0.42648962  0.07169015  1
  Te  Te85  1  0.40840005  0.41523718  0.41323352  1
  Te  Te86  1  0.45635036  0.45662614  0.72519967  1
  Te  Te87  1  0.41321757  0.76562352  0.10427337  1
  Te  Te88  1  0.37138001  0.77882658  0.37909338  1
  Te  Te89  1  0.44379405  0.74039450  0.75618607  1
  Te  Te90  1  0.75879775  0.04248924  0.06683601  1
  Te  Te91  1  0.73754379  0.07394874  0.42346381  1
  Te  Te92  1  0.77513487  0.06488874  0.75640092  1
  Te  Te93  1  0.77626232  0.43589158  0.05519886  1
  Te  Te94  1  0.73003461  0.44979309  0.43704592  1
  Te  Te95  1  0.74644244  0.41325064  0.75868503  1
  Te  Te96  1  0.76152074  0.75254742  0.06773379  1
  Te  Te97  1  0.76628652  0.76919588  0.39769762  1
  Te  Te98  1  0.74516086  0.74259680  0.75046867  1
  Te  Te99  1  0.07695499  0.24271774  0.24648189  1
  Te  Te100  1  0.06803842  0.25348869  0.59603336  1
  Te  Te101  1  0.05768968  0.26998489  0.93524142  1
  Te  Te102  1  0.06340564  0.57992471  0.28277946  1
  Te  Te103  1  0.09875694  0.59058528  0.57564960  1
  Te  Te104  1  0.06181425  0.56575868  0.90095559  1
  Te  Te105  1  0.06333955  0.87865768  0.26454783  1
  Te  Te106  1  0.05653007  0.92596968  0.58509271  1
  Te  Te107  1  0.05991942  0.88847674  0.90572973  1
  Te  Te108  1  0.41365291  0.23287822  0.25874103  1
  Te  Te109  1  0.42336311  0.25096554  0.59442686  1
  Te  Te110  1  0.45159065  0.29224126  0.89687245  1
  Te  Te111  1  0.41817251  0.61947311  0.26048464  1
  Te  Te112  1  0.44028030  0.59169895  0.56328407  1
  Te  Te113  1  0.42230889  0.59717489  0.91165270  1
  Te  Te114  1  0.44084906  0.89147952  0.27846968  1
  Te  Te115  1  0.39950662  0.89764784  0.56039593  1
  Te  Te116  1  0.40851879  0.91350785  0.92015456  1
  Te  Te117  1  0.74965374  0.25099942  0.25565012  1
  Te  Te118  1  0.76539591  0.23020351  0.60469323  1
  Te  Te119  1  0.74914793  0.24747855  0.92309037  1
  Te  Te120  1  0.75683748  0.58402742  0.24683109  1
  Te  Te121  1  0.75237653  0.59799442  0.58440359  1
  Te  Te122  1  0.79606655  0.57169476  0.90676259  1
  Te  Te123  1  0.76212398  0.90543873  0.26191115  1
  Te  Te124  1  0.74201248  0.89616508  0.56050005  1
  Te  Te125  1  0.77781583  0.93624141  0.94924219  1
  Te  Te126  1  0.26551734  0.23840056  0.10243052  1
  Te  Te127  1  0.22379428  0.23215270  0.39840617  1
  Te  Te128  1  0.25097570  0.24956261  0.75365334  1
  Te  Te129  1  0.23517185  0.60123576  0.10849639  1
  Te  Te130  1  0.24250685  0.59315249  0.38237572  1
  Te  Te131  1  0.24958501  0.58546465  0.75320794  1
  Te  Te132  1  0.26694239  0.88111283  0.12899793  1
  Te  Te133  1  0.24205134  0.88512148  0.40264635  1
  Te  Te134  1  0.23518224  0.92391149  0.74924858  1
  Te  Te135  1  0.58838059  0.24709452  0.08887992  1
  Te  Te136  1  0.56097355  0.24029470  0.40444278  1
  Te  Te137  1  0.56867075  0.24694901  0.75248647  1
  Te  Te138  1  0.57814852  0.60983169  0.09630924  1
  Te  Te139  1  0.57097992  0.60260052  0.43686179  1
  Te  Te140  1  0.58171802  0.55488309  0.76708287  1
  Te  Te141  1  0.59061443  0.92124990  0.07459228  1
  Te  Te142  1  0.58041443  0.87832506  0.41890922  1
  Te  Te143  1  0.59750981  0.90712188  0.74926719  1
  Te  Te144  1  0.93580146  0.23648151  0.10442228  1
  Te  Te145  1  0.90363691  0.25976105  0.41779217  1
  Te  Te146  1  0.91895138  0.24864760  0.74416900  1
  Te  Te147  1  0.93165083  0.59891324  0.09610488  1
  Te  Te148  1  0.94153911  0.61007509  0.37967844  1
  Te  Te149  1  0.89253961  0.60320923  0.78127215  1
  Te  Te150  1  0.91991974  0.88542395  0.08271154  1
  Te  Te151  1  0.94802656  0.90703817  0.38510058  1
  Te  Te152  1  0.90960729  0.88814417  0.78699876  1
  Te  Te153  1  0.24963885  0.07838048  0.24627932  1
  Te  Te154  1  0.24406413  0.07279984  0.56792554  1
  Te  Te155  1  0.25015576  0.07536899  0.92008553  1
  Te  Te156  1  0.23702996  0.43136857  0.24694318  1
  Te  Te157  1  0.25725026  0.41192597  0.57539979  1
  Te  Te158  1  0.23905119  0.42097608  0.91796378  1
  Te  Te159  1  0.25202776  0.75258979  0.29533741  1
  Te  Te160  1  0.25939179  0.74058212  0.56489575  1
  Te  Te161  1  0.24824390  0.76314115  0.92902304  1
  Te  Te162  1  0.57945148  0.08966397  0.25293603  1
  Te  Te163  1  0.57802891  0.08678075  0.59282012  1
  Te  Te164  1  0.59803746  0.07704003  0.91918788  1
  Te  Te165  1  0.58996791  0.42073871  0.24628645  1
  Te  Te166  1  0.60394410  0.43362622  0.57843051  1
  Te  Te167  1  0.60641165  0.44793503  0.89301000  1
  Te  Te168  1  0.57517587  0.74883198  0.25038940  1
  Te  Te169  1  0.59010390  0.74311861  0.56439874  1
  Te  Te170  1  0.60132683  0.74044728  0.90471794  1
  Te  Te171  1  0.95047753  0.08091667  0.25132227  1
  Te  Te172  1  0.90416188  0.07101611  0.58118501  1
  Te  Te173  1  0.90999863  0.07560516  0.90418621  1
  Te  Te174  1  0.92668137  0.43346395  0.23175297  1
  Te  Te175  1  0.91863026  0.41521975  0.59068135  1
  Te  Te176  1  0.89225529  0.44862916  0.93611404  1
  Te  Te177  1  0.94118363  0.77914541  0.26823769  1
  Te  Te178  1  0.93005813  0.76042538  0.57280319  1
  Te  Te179  1  0.90341070  0.78027133  0.89227559  1
