# generated using pymatgen
data_In2Te3
_symmetry_space_group_name_H-M   'P 1'
_cell_length_a   18.95901558
_cell_length_b   18.99334191
_cell_length_c   18.94659664
_cell_angle_alpha   90.06074088
_cell_angle_beta   90.06568285
_cell_angle_gamma   89.77520595
_symmetry_Int_Tables_number   1
_chemical_formula_structural   In2Te3
_chemical_formula_sum   'In72 Te108'
_cell_volume   6822.51515674
_cell_formula_units_Z   36
loop_
 _symmetry_equiv_pos_site_id
 _symmetry_equiv_pos_as_xyz
  1  'x, y, z'
loop_
 _atom_site_type_symbol
 _atom_site_label
 _atom_site_symmetry_multiplicity
 _atom_site_fract_x
 _atom_site_fract_y
 _atom_site_fract_z
 _atom_site_occupancy
  In  In0  1  -0.01420620  0.32302701  0.00472685  1
  In  In1  1  -0.00450465  0.00247920  0.38625542  1
  In  In2  1  0.83471586  0.15629878  0.67970780  1
  In  In3  1  0.50878818  0.16796287  0.67343582  1
  In  In4  1  0.31916680  0.34423917  0.67153509  1
  In  In5  1  0.32255573  0.52249938  0.80997189  1
  In  In6  1  0.50743748  -0.02288722  0.14779546  1
  In  In7  1  0.16263269  0.33449485  0.52763570  1
  In  In8  1  0.31977135  0.00327880  0.32296375  1
  In  In9  1  0.66461060  0.34426919  0.33196710  1
  In  In10  1  0.15693311  0.17178579  0.69589301  1
  In  In11  1  0.16346025  0.83064201  0.01914773  1
  In  In12  1  0.82102292  0.00823784  0.82356642  1
  In  In13  1  0.01817534  0.85583478  0.81374253  1
  In  In14  1  0.00673988  0.47325661  0.82993131  1
  In  In15  1  0.51462518  0.33852985  0.50198554  1
  In  In16  1  0.51943334  0.83659568  -0.01166206  1
  In  In17  1  0.65872584  0.17151283  0.16720686  1
  In  In18  1  0.33564233  0.28575442  0.08472660  1
  In  In19  1  0.31298087  0.53509036  0.45187093  1
  In  In20  1  0.83381191  0.65962470  0.17621063  1
  In  In21  1  0.32412083  0.00034910  -0.02034795  1
  In  In22  1  0.51507756  0.49854465  0.33437983  1
  In  In23  1  0.18909580  0.47223978  0.03983997  1
  In  In24  1  0.18056257  0.52982743  0.68923390  1
  In  In25  1  0.00714498  0.67327485  0.31654384  1
  In  In26  1  0.50194283  0.69408483  0.45287182  1
  In  In27  1  0.52367525  -0.00747680  0.82361066  1
  In  In28  1  -0.02042136  0.62955916  -0.00572885  1
  In  In29  1  0.65964220  0.65930363  0.31793179  1
  In  In30  1  0.18146474  0.01318324  0.80996856  1
  In  In31  1  0.32362099  0.15706804  0.49124149  1
  In  In32  1  0.68550260  -0.02433228  0.30740355  1
  In  In33  1  0.01078297  0.69915706  0.63999857  1
  In  In34  1  0.48739060  0.81143974  0.67074892  1
  In  In35  1  0.51311856  0.49359464  0.00069152  1
  In  In36  1  0.34380691  0.31691417  0.31176335  1
  In  In37  1  0.14117428  0.01983783  0.20099663  1
  In  In38  1  0.49663913  0.14580228  0.00290052  1
  In  In39  1  0.82792813  0.48536309  0.35093931  1
  In  In40  1  0.16592334  0.65728449  0.82772822  1
  In  In41  1  0.48523001  -0.01777071  0.49912152  1
  In  In42  1  0.65910134  0.81366872  0.81186243  1
  In  In43  1  0.66921459  0.00567688  0.00612998  1
  In  In44  1  0.16353913  0.85618882  0.35810604  1
  In  In45  1  0.84004608  0.69443424  0.51037985  1
  In  In46  1  0.67409744  0.66023137  0.66296714  1
  In  In47  1  0.70017898  0.30173884  -0.02047306  1
  In  In48  1  0.30777014  0.82359230  0.18414751  1
  In  In49  1  0.85506002  0.15712039  0.36134971  1
  In  In50  1  0.33865639  0.49437332  0.19689206  1
  In  In51  1  -0.00283132  0.16992306  0.19963607  1
  In  In52  1  0.33409980  0.65470180  -0.00560098  1
  In  In53  1  -0.01931152  0.30872322  0.66525322  1
  In  In54  1  -0.02287757  0.82265145  0.13478873  1
  In  In55  1  0.48838256  0.53531232  0.64327959  1
  In  In56  1  0.83436094  0.64746495  0.82245411  1
  In  In57  1  -0.04684202  -0.00627790  0.00218013  1
  In  In58  1  0.69097626  0.34091967  0.67948761  1
  In  In59  1  0.65269814  0.18049807  0.49200798  1
  In  In60  1  0.49411753  0.32881567  0.85910805  1
  In  In61  1  0.85545996  0.48662200  0.66934895  1
  In  In62  1  0.49336331  0.66445462  0.15664577  1
  In  In63  1  0.00500661  -0.00310073  0.63517757  1
  In  In64  1  0.85753070  0.33754818  0.19024031  1
  In  In65  1  0.34837783  -0.00756953  0.67459413  1
  In  In66  1  0.80800351  0.50365209  0.01816015  1
  In  In67  1  0.84511898  0.81503494  -0.00771174  1
  In  In68  1  0.18607039  0.67269022  0.23929794  1
  In  In69  1  0.00958271  0.50338607  0.51444215  1
  In  In70  1  0.68904725  0.85708265  0.50111734  1
  In  In71  1  0.16252730  0.34495475  0.85699273  1
  Te  Te72  1  0.05016159  0.07189809  0.08977160  1
  Te  Te73  1  0.07376768  0.12529820  0.39653654  1
  Te  Te74  1  0.05538220  0.07850966  0.75701140  1
  Te  Te75  1  0.07652422  0.39875738  0.09886006  1
  Te  Te76  1  0.09216408  0.41689607  0.42935760  1
  Te  Te77  1  0.09174646  0.40694772  0.72112561  1
  Te  Te78  1  0.07337271  0.72217070  0.07358012  1
  Te  Te79  1  0.06406894  0.76172383  0.42297145  1
  Te  Te80  1  0.10987775  0.76669327  0.73338708  1
  Te  Te81  1  0.40123435  0.06930620  0.09153852  1
  Te  Te82  1  0.42365739  0.08495495  0.40563885  1
  Te  Te83  1  0.42006999  0.09012132  0.76731343  1
  Te  Te84  1  0.41056900  0.42152095  0.08560438  1
  Te  Te85  1  0.41084361  0.41748577  0.42253810  1
  Te  Te86  1  0.42551756  0.42066395  0.74776557  1
  Te  Te87  1  0.40258199  0.77116563  0.07293823  1
  Te  Te88  1  0.40297237  0.79908555  0.42299894  1
  Te  Te89  1  0.41712984  0.71909048  0.75613079  1
  Te  Te90  1  0.75337228  0.09066985  0.08960893  1
  Te  Te91  1  0.73284252  0.08137649  0.40927574  1
  Te  Te92  1  0.72520088  0.07883908  0.73808670  1
  Te  Te93  1  0.74827916  0.38962291  0.09566542  1
  Te  Te94  1  0.74125361  0.40655049  0.43858994  1
  Te  Te95  1  0.75850462  0.43832294  0.76621835  1
  Te  Te96  1  0.75709991  0.72148761  0.06469844  1
  Te  Te97  1  0.74531396  0.75132063  0.40751779  1
  Te  Te98  1  0.77456985  0.75244587  0.73138214  1
  Te  Te99  1  0.10336941  0.27576054  0.21028044  1
  Te  Te100  1  0.07300372  0.22388778  0.58026842  1
  Te  Te101  1  0.07311054  0.24655658  0.91372981  1
  Te  Te102  1  0.07994939  0.57071059  0.24012778  1
  Te  Te103  1  0.10828172  0.60238200  0.57516179  1
  Te  Te104  1  0.10078529  0.55673885  0.92376208  1
  Te  Te105  1  0.07780627  0.88683541  0.23112278  1
  Te  Te106  1  0.11801810  0.93648351  0.56216745  1
  Te  Te107  1  0.07412106  0.92402729  0.93701358  1
  Te  Te108  1  0.41058607  0.24398608  0.20401250  1
  Te  Te109  1  0.41143317  0.25243062  0.58507674  1
  Te  Te110  1  0.40091973  0.24602263  0.94205406  1
  Te  Te111  1  0.41875202  0.59793452  0.27134121  1
  Te  Te112  1  0.40610369  0.61504646  0.54198082  1
  Te  Te113  1  0.42900005  0.57964195  0.90616471  1
  Te  Te114  1  0.41616606  0.91070771  0.24859579  1
  Te  Te115  1  0.39193762  0.88564296  0.57159885  1
  Te  Te116  1  0.42103188  0.91275588  0.90095085  1
  Te  Te117  1  0.76112530  0.23844316  0.26555827  1
  Te  Te118  1  0.75567378  0.24730609  0.57908065  1
  Te  Te119  1  0.78869176  0.22721721  0.88860340  1
  Te  Te120  1  0.74547551  0.55726777  0.24590949  1
  Te  Te121  1  0.77149103  0.57860567  0.58035781  1
  Te  Te122  1  0.74500283  0.60764957  0.93168274  1
  Te  Te123  1  0.77305704  0.88707537  0.23228776  1
  Te  Te124  1  0.79023148  0.95564938  0.54543998  1
  Te  Te125  1  0.74473677  0.90075040  0.90956054  1
  Te  Te126  1  0.21053702  0.21290978  0.12583465  1
  Te  Te127  1  0.24452103  0.26276536  0.42092010  1
  Te  Te128  1  0.25732299  0.25493973  0.77378116  1
  Te  Te129  1  0.25225179  0.59923469  0.10913921  1
  Te  Te130  1  0.20590750  0.59515000  0.37155095  1
  Te  Te131  1  0.28575880  0.64320465  0.71984887  1
  Te  Te132  1  0.23925446  0.93459816  0.10022217  1
  Te  Te133  1  0.22902526  0.96682003  0.43745940  1
  Te  Te134  1  0.26047679  0.90512284  0.75353146  1
  Te  Te135  1  0.58236678  0.25337497  0.06581588  1
  Te  Te136  1  0.55922320  0.24592409  0.39246541  1
  Te  Te137  1  0.58924096  0.25891289  0.76127202  1
  Te  Te138  1  0.59088853  0.58038631  0.08869024  1
  Te  Te139  1  0.59915042  0.57736149  0.43106790  1
  Te  Te140  1  0.58052002  0.58491652  0.74541311  1
  Te  Te141  1  0.61716590  0.89018281  0.09022752  1
  Te  Te142  1  0.58363392  0.91261902  0.40713231  1
  Te  Te143  1  0.59288410  0.91211535  0.71599787  1
  Te  Te144  1  0.90447477  0.23153682  0.09365389  1
  Te  Te145  1  0.97681508  0.23812724  0.38482771  1
  Te  Te146  1  0.88966053  0.26338782  0.77355953  1
  Te  Te147  1  0.91997791  0.55282024  0.10890629  1
  Te  Te148  1  0.92013915  0.59353485  0.42065416  1
  Te  Te149  1  0.95452780  0.58954648  0.73753224  1
  Te  Te150  1  0.85966651  0.92271521  0.10597234  1
  Te  Te151  1  0.89476020  0.91113872  0.44219359  1
  Te  Te152  1  0.90983044  0.92176968  0.73494989  1
  Te  Te153  1  0.23871376  0.11380618  0.26114695  1
  Te  Te154  1  0.25376288  0.09177595  0.60682445  1
  Te  Te155  1  0.22923418  0.09459552  0.92158239  1
  Te  Te156  1  0.23919072  0.40320107  0.25319192  1
  Te  Te157  1  0.26499879  0.45179534  0.58007988  1
  Te  Te158  1  0.27052820  0.42831104  0.91989790  1
  Te  Te159  1  0.29214074  0.76029414  0.32316297  1
  Te  Te160  1  0.18697536  0.80811568  0.50579108  1
  Te  Te161  1  0.24586168  0.75298898  0.91821027  1
  Te  Te162  1  0.57879397  0.06946989  0.24403595  1
  Te  Te163  1  0.57869895  0.07707573  0.57573118  1
  Te  Te164  1  0.60034830  0.09460650  0.90452101  1
  Te  Te165  1  0.57053563  0.40476234  0.23819748  1
  Te  Te166  1  0.58780673  0.42518047  0.59848944  1
  Te  Te167  1  0.60789204  0.41074121  0.91586860  1
  Te  Te168  1  0.57197104  0.75118304  0.24573757  1
  Te  Te169  1  0.59234675  0.75066099  0.56943948  1
  Te  Te170  1  0.57469487  0.73430791  0.90019965  1
  Te  Te171  1  0.91729931  0.05628393  0.26638409  1
  Te  Te172  1  0.90265086  0.08193369  0.56766164  1
  Te  Te173  1  0.88753111  0.09986159  0.92108179  1
  Te  Te174  1  0.93501402  0.39439041  0.30227583  1
  Te  Te175  1  0.91226974  0.39549254  0.56219287  1
  Te  Te176  1  0.90320202  0.42442654  0.92438791  1
  Te  Te177  1  0.90133659  0.76657151  0.25956071  1
  Te  Te178  1  0.93037722  0.79965136  0.56471774  1
  Te  Te179  1  0.94476903  0.74200485  0.89429431  1
