# generated using pymatgen
data_In2Te3
_symmetry_space_group_name_H-M   'P 1'
_cell_length_a   18.93827076
_cell_length_b   18.92070819
_cell_length_c   18.92376889
_cell_angle_alpha   90.06638858
_cell_angle_beta   90.13231071
_cell_angle_gamma   89.82999240
_symmetry_Int_Tables_number   1
_chemical_formula_structural   In2Te3
_chemical_formula_sum   'In72 Te108'
_cell_volume   6780.81641942
_cell_formula_units_Z   36
loop_
 _symmetry_equiv_pos_site_id
 _symmetry_equiv_pos_as_xyz
  1  'x, y, z'
loop_
 _atom_site_type_symbol
 _atom_site_label
 _atom_site_symmetry_multiplicity
 _atom_site_fract_x
 _atom_site_fract_y
 _atom_site_fract_z
 _atom_site_occupancy
  In  In0  1  0.34732174  0.15930765  0.15774758  1
  In  In1  1  0.00841587  0.67848823  -0.00480569  1
  In  In2  1  0.33905142  0.35982861  0.66214392  1
  In  In3  1  0.16443423  0.31769838  0.50023515  1
  In  In4  1  0.17485717  0.51479221  0.35775754  1
  In  In5  1  0.16898402  -0.01262181  0.20458242  1
  In  In6  1  0.01053948  0.68032862  0.70061165  1
  In  In7  1  0.20269229  -0.01596252  0.84679565  1
  In  In8  1  -0.01143381  0.34783659  0.65475696  1
  In  In9  1  -0.02278559  0.51831070  0.84857379  1
  In  In10  1  -0.01786022  0.67238218  0.32873099  1
  In  In11  1  0.43526536  0.13368458  0.67851411  1
  In  In12  1  0.33955379  -0.01803063  0.34462801  1
  In  In13  1  0.81987907  0.00876323  0.14102280  1
  In  In14  1  0.34232439  0.81497414  0.81478524  1
  In  In15  1  0.14725769  0.83628769  0.01151527  1
  In  In16  1  0.82306512  0.19183232  0.00103794  1
  In  In17  1  0.31444923  0.81590055  0.52809928  1
  In  In18  1  0.01048324  0.15670937  0.85111463  1
  In  In19  1  -0.01067132  0.17652332  0.17209818  1
  In  In20  1  -0.00165514  0.51676058  0.52365457  1
  In  In21  1  0.50399757  0.83505678  -0.00498174  1
  In  In22  1  0.69601017  0.64976317  0.29597672  1
  In  In23  1  0.48898323  0.67680801  0.51059659  1
  In  In24  1  0.49611914  0.66386032  0.16971808  1
  In  In25  1  0.83193185  0.34434988  0.82117363  1
  In  In26  1  -0.00561223  0.00273128  0.01542679  1
  In  In27  1  0.20867739  0.13769282  0.65629794  1
  In  In28  1  0.16785755  0.50341382  0.69641145  1
  In  In29  1  0.66750779  0.32889441  0.68603216  1
  In  In30  1  0.80802572  0.16661138  0.66744610  1
  In  In31  1  0.52058934  0.84163038  0.31623464  1
  In  In32  1  0.82573069  0.17978240  0.32553873  1
  In  In33  1  0.50067391  0.84012255  0.68542276  1
  In  In34  1  0.63707191  0.67169149  0.66642033  1
  In  In35  1  -0.00668451  0.34166894  0.30730720  1
  In  In36  1  0.19324328  0.15492659  0.00313693  1
  In  In37  1  0.67081761  -0.00763590  0.66984100  1
  In  In38  1  0.66583278  0.00929502  0.34221254  1
  In  In39  1  0.83224127  0.66952218  0.84086102  1
  In  In40  1  0.18376791  0.48684818  0.00842268  1
  In  In41  1  0.49849324  0.47962191  0.32715814  1
  In  In42  1  0.66525912  0.68406896  -0.01419853  1
  In  In43  1  0.63919690  0.15089638  0.84681041  1
  In  In44  1  0.49975963  0.33127749  0.48348749  1
  In  In45  1  0.15406817  0.32570061  0.17655993  1
  In  In46  1  0.52631475  0.32291504  0.10048509  1
  In  In47  1  0.65578318  0.15697203  0.52102802  1
  In  In48  1  -0.00105226  0.15849575  0.49424932  1
  In  In49  1  0.65436473  0.51161500  0.46670319  1
  In  In50  1  0.82024814  0.67879193  0.48961465  1
  In  In51  1  0.66636057  0.33430220  0.30835289  1
  In  In52  1  0.50725904  0.50170243  -0.00326324  1
  In  In53  1  0.82751392  0.84613878  0.66654858  1
  In  In54  1  0.01731853  0.00054450  0.35654612  1
  In  In55  1  0.34309143  0.64344694  0.00105477  1
  In  In56  1  0.81515178  0.85098681  -0.03664162  1
  In  In57  1  0.33947804  0.66643959  0.32398588  1
  In  In58  1  0.18161827  0.32813300  0.85090139  1
  In  In59  1  0.50123857  0.50336099  0.67449715  1
  In  In60  1  0.51558390  -0.00247548  0.15417680  1
  In  In61  1  0.34058524  0.00827098  0.00063511  1
  In  In62  1  -0.00337448  -0.00235678  0.67594193  1
  In  In63  1  0.33403852  0.33027456  0.34426160  1
  In  In64  1  0.17783902  0.81385830  0.32111066  1
  In  In65  1  -0.01097663  0.51801555  0.16167517  1
  In  In66  1  0.47923888  0.14652558  0.31582084  1
  In  In67  1  0.80992575  0.47555013  0.01496103  1
  In  In68  1  0.18178605  0.68217385  0.81198042  1
  In  In69  1  0.50637027  0.31070203  0.87107048  1
  In  In70  1  0.84151879  0.83640123  0.32783766  1
  In  In71  1  0.01851168  0.83915254  0.50855080  1
  Te  Te72  1  0.09577012  0.08243900  0.09781828  1
  Te  Te73  1  0.10865908  0.07348482  0.44494604  1
  Te  Te74  1  0.10884985  0.08321431  0.76143987  1
  Te  Te75  1  0.07364337  0.41611657  0.08467074  1
  Te  Te76  1  0.07177692  0.41859934  0.42109397  1
  Te  Te77  1  0.06809467  0.41091476  0.76972555  1
  Te  Te78  1  0.07622834  0.74913593  0.10394735  1
  Te  Te79  1  0.08590150  0.73923307  0.41677585  1
  Te  Te80  1  0.10399844  0.78746824  0.74124448  1
  Te  Te81  1  0.44323267  0.11817889  0.04322315  1
  Te  Te82  1  0.41844760  0.07517633  0.42693795  1
  Te  Te83  1  0.40796879  0.04521887  0.79290685  1
  Te  Te84  1  0.41544487  0.41294776  0.07077660  1
  Te  Te85  1  0.40069692  0.43581153  0.43448235  1
  Te  Te86  1  0.43395074  0.40641034  0.76947550  1
  Te  Te87  1  0.41140645  0.75570619  0.08364207  1
  Te  Te88  1  0.41600999  0.77009964  0.41103747  1
  Te  Te89  1  0.40981216  0.72568723  0.71689477  1
  Te  Te90  1  0.72264496  0.09473604  0.06174221  1
  Te  Te91  1  0.75992047  0.09080351  0.42915064  1
  Te  Te92  1  0.75013719  0.07645023  0.77207590  1
  Te  Te93  1  0.73653840  0.41498421  0.12842701  1
  Te  Te94  1  0.74293049  0.41291094  0.40575244  1
  Te  Te95  1  0.74979021  0.43575921  0.74211868  1
  Te  Te96  1  0.75927944  0.76331285  0.06589111  1
  Te  Te97  1  0.72928598  0.75818248  0.40001699  1
  Te  Te98  1  0.74340961  0.74830046  0.74682694  1
  Te  Te99  1  0.09025052  0.22802452  0.27365294  1
  Te  Te100  1  0.08367906  0.23900596  0.60364740  1
  Te  Te101  1  0.08849107  0.24945157  0.94176248  1
  Te  Te102  1  0.08723933  0.58717415  0.25644106  1
  Te  Te103  1  0.09764023  0.60438256  0.59867783  1
  Te  Te104  1  0.09766835  0.58818885  0.90867111  1
  Te  Te105  1  0.06103416  0.89615542  0.25571622  1
  Te  Te106  1  0.09648613  0.93700540  0.58555439  1
  Te  Te107  1  0.07709219  0.92743830  0.91241114  1
  Te  Te108  1  0.42823225  0.26618213  0.23751763  1
  Te  Te109  1  0.41444758  0.25569247  0.58127347  1
  Te  Te110  1  0.40815746  0.22079446  0.93011209  1
  Te  Te111  1  0.40675794  0.56050608  0.23611585  1
  Te  Te112  1  0.40733400  0.59649042  0.60404049  1
  Te  Te113  1  0.45403125  0.61139211  0.90814344  1
  Te  Te114  1  0.41644674  0.91440120  0.23029382  1
  Te  Te115  1  0.40513879  0.91325690  0.59490002  1
  Te  Te116  1  0.41871432  0.92755144  0.89565960  1
  Te  Te117  1  0.76464398  0.26374674  0.22036733  1
  Te  Te118  1  0.74843776  0.26757326  0.57181558  1
  Te  Te119  1  0.73338352  0.26339134  0.90157474  1
  Te  Te120  1  0.75650449  0.52926882  0.23327064  1
  Te  Te121  1  0.72953931  0.59104190  0.57236226  1
  Te  Te122  1  0.74489396  0.57134555  0.91530992  1
  Te  Te123  1  0.74709666  0.92531114  0.24532524  1
  Te  Te124  1  0.75248529  0.92471339  0.56830210  1
  Te  Te125  1  0.72203739  0.91742011  0.87152416  1
  Te  Te126  1  0.26017464  0.26271966  0.08634546  1
  Te  Te127  1  0.26358235  0.23605169  0.43068900  1
  Te  Te128  1  0.25693106  0.25689530  0.73957094  1
  Te  Te129  1  0.24612046  0.58684585  0.09489715  1
  Te  Te130  1  0.25572543  0.61290819  0.43748807  1
  Te  Te131  1  0.27070087  0.57160354  0.77474604  1
  Te  Te132  1  0.24529050  0.92780209  0.08707323  1
  Te  Te133  1  0.23888305  0.90438322  0.42625507  1
  Te  Te134  1  0.23949732  0.89139978  0.73746956  1
  Te  Te135  1  0.61711395  0.21498274  0.05857766  1
  Te  Te136  1  0.58603531  0.23419513  0.40477783  1
  Te  Te137  1  0.56576501  0.23210731  0.74064369  1
  Te  Te138  1  0.59623198  0.58999805  0.08506458  1
  Te  Te139  1  0.56375255  0.60547286  0.38857576  1
  Te  Te140  1  0.58578754  0.57943037  0.76766796  1
  Te  Te141  1  0.60280884  0.91922923  0.06570697  1
  Te  Te142  1  0.56095133  0.94013662  0.41746638  1
  Te  Te143  1  0.59901762  0.91350228  0.77621684  1
  Te  Te144  1  0.91742170  0.26834642  0.08435773  1
  Te  Te145  1  0.91879534  0.26031563  0.41490841  1
  Te  Te146  1  0.92190600  0.23419829  0.75268757  1
  Te  Te147  1  0.90336069  0.59103039  0.05996163  1
  Te  Te148  1  0.90531904  0.57604517  0.41737416  1
  Te  Te149  1  0.90266346  0.57965876  0.73395346  1
  Te  Te150  1  0.90919649  0.90102884  0.08375276  1
  Te  Te151  1  0.91353524  0.92037188  0.43264120  1
  Te  Te152  1  0.90788142  0.92195317  0.76332974  1
  Te  Te153  1  0.26267288  0.09069540  0.26296398  1
  Te  Te154  1  0.32157581  0.05595580  0.60876944  1
  Te  Te155  1  0.28568522  0.11284333  0.88780744  1
  Te  Te156  1  0.24216239  0.41781436  0.25978060  1
  Te  Te157  1  0.23236782  0.42953172  0.57847915  1
  Te  Te158  1  0.27468155  0.42285054  0.91196761  1
  Te  Te159  1  0.26077983  0.74179602  0.22445977  1
  Te  Te160  1  0.23307609  0.70196503  0.56954828  1
  Te  Te161  1  0.25347844  0.75907331  0.93144008  1
  Te  Te162  1  0.59679608  0.09537957  0.23580702  1
  Te  Te163  1  0.56171420  0.07609369  0.60428035  1
  Te  Te164  1  0.58565284  0.07480721  0.96117648  1
  Te  Te165  1  0.57970010  0.41846992  0.21543973  1
  Te  Te166  1  0.58485832  0.41704870  0.57634235  1
  Te  Te167  1  0.59993871  0.40863644  0.92654469  1
  Te  Te168  1  0.60524228  0.75477462  0.22573767  1
  Te  Te169  1  0.58458127  0.77734142  0.57101675  1
  Te  Te170  1  0.56061969  0.74047021  0.89480937  1
  Te  Te171  1  0.91531120  0.07003729  0.25078761  1
  Te  Te172  1  0.90583804  0.08240191  0.58674334  1
  Te  Te173  1  0.90194796  0.08241611  0.92556334  1
  Te  Te174  1  0.89791559  0.44258931  0.25328491  1
  Te  Te175  1  0.89466041  0.43055456  0.58075394  1
  Te  Te176  1  0.91794153  0.40660716  0.93004358  1
  Te  Te177  1  0.87624263  0.72331831  0.23976482  1
  Te  Te178  1  0.92265918  0.74126441  0.58375785  1
  Te  Te179  1  0.93229464  0.76546510  0.89824955  1
