# generated using pymatgen
data_In2Te3
_symmetry_space_group_name_H-M   'P 1'
_cell_length_a   19.01943274
_cell_length_b   19.00935044
_cell_length_c   18.99372525
_cell_angle_alpha   89.92218945
_cell_angle_beta   89.90003617
_cell_angle_gamma   90.14928379
_symmetry_Int_Tables_number   1
_chemical_formula_structural   In2Te3
_chemical_formula_sum   'In72 Te108'
_cell_volume   6867.08542617
_cell_formula_units_Z   36
loop_
 _symmetry_equiv_pos_site_id
 _symmetry_equiv_pos_as_xyz
  1  'x, y, z'
loop_
 _atom_site_type_symbol
 _atom_site_label
 _atom_site_symmetry_multiplicity
 _atom_site_fract_x
 _atom_site_fract_y
 _atom_site_fract_z
 _atom_site_occupancy
  In  In0  1  0.34876555  -0.02044457  -0.00969664  1
  In  In1  1  -0.00317589  -0.03873965  0.68642209  1
  In  In2  1  0.82290822  0.87203960  -0.01081482  1
  In  In3  1  0.35322349  0.11559389  0.56595065  1
  In  In4  1  0.16626838  0.85190515  0.35635720  1
  In  In5  1  0.49460253  0.52619493  0.66774192  1
  In  In6  1  0.48579024  0.52732497  0.34458230  1
  In  In7  1  0.81282358  -0.02624988  0.17263001  1
  In  In8  1  0.68114871  0.48732173  0.16641815  1
  In  In9  1  0.00537961  0.16143148  0.80677220  1
  In  In10  1  0.68589764  0.49610856  0.84488495  1
  In  In11  1  0.51221241  0.33354957  0.15102815  1
  In  In12  1  0.15667774  0.83663098  0.64110040  1
  In  In13  1  0.34569793  -0.01202503  0.35255376  1
  In  In14  1  0.35439206  0.12391285  0.82299182  1
  In  In15  1  0.80988018  0.15008511  0.67560408  1
  In  In16  1  0.65957647  0.81971084  0.49638273  1
  In  In17  1  0.49188974  0.30259069  0.82298764  1
  In  In18  1  0.31764220  0.31390258  -0.03139153  1
  In  In19  1  0.18723223  0.15316926  0.33128653  1
  In  In20  1  0.01009066  0.66969022  0.68207334  1
  In  In21  1  0.49561649  0.51121426  -0.00110413  1
  In  In22  1  0.82715923  0.68711783  0.15185726  1
  In  In23  1  0.78466470  0.15512883  0.32876254  1
  In  In24  1  0.67037498  0.30150574  -0.02103303  1
  In  In25  1  0.85667365  0.51339493  0.30847464  1
  In  In26  1  0.31091127  0.57512658  0.44529509  1
  In  In27  1  0.66462927  0.69333409  0.67596314  1
  In  In28  1  0.35365197  0.52449198  0.15274317  1
  In  In29  1  0.51764187  0.30080988  0.48667733  1
  In  In30  1  0.33102966  0.85163992  0.81032421  1
  In  In31  1  0.00672342  0.83027864  0.18466402  1
  In  In32  1  -0.00792351  0.00901584  0.35006363  1
  In  In33  1  0.63283584  0.01277704  -0.01170472  1
  In  In34  1  0.83119145  0.50725073  -0.01715037  1
  In  In35  1  0.15385743  0.32913544  0.82161438  1
  In  In36  1  0.16715778  0.50677551  0.67347433  1
  In  In37  1  0.03051099  0.50299466  0.49467943  1
  In  In38  1  0.15798679  0.50717696  0.02421956  1
  In  In39  1  0.36708839  0.52249018  0.86515468  1
  In  In40  1  0.66483024  -0.02376655  0.32862269  1
  In  In41  1  0.65474136  0.31137726  0.69488663  1
  In  In42  1  0.83958363  -0.01458843  0.50399489  1
  In  In43  1  0.17690081  0.65999842  0.84881207  1
  In  In44  1  0.49091054  -0.00894316  0.52092370  1
  In  In45  1  0.32277730  0.32488164  0.66503577  1
  In  In46  1  0.16323239  0.33557660  0.49815794  1
  In  In47  1  0.34096819  0.16852136  0.15959958  1
  In  In48  1  -0.00095843  0.15305263  0.14953409  1
  In  In49  1  0.81974456  0.34189129  0.49587868  1
  In  In50  1  -0.02244852  0.67131518  0.00245094  1
  In  In51  1  0.83336700  0.11596039  -0.00385979  1
  In  In52  1  0.16482400  0.85453741  0.00440044  1
  In  In53  1  0.19011463  0.32811953  0.16668622  1
  In  In54  1  0.01408445  0.17896528  0.52047570  1
  In  In55  1  0.19742680  0.65040376  0.22831307  1
  In  In56  1  0.31660893  0.70685427  0.65636096  1
  In  In57  1  -0.00814978  0.31722321  0.35028443  1
  In  In58  1  0.82139073  0.28706091  0.16761716  1
  In  In59  1  0.83771088  0.31817277  0.84403009  1
  In  In60  1  0.05348900  0.69057188  0.33497532  1
  In  In61  1  0.83368111  0.72405757  0.82986719  1
  In  In62  1  0.34205254  0.34119382  0.32963518  1
  In  In63  1  0.66015922  0.48721636  0.49621489  1
  In  In64  1  0.64135193  -0.01933826  0.66403007  1
  In  In65  1  0.49537619  -0.03524041  0.18005620  1
  In  In66  1  0.52719926  0.70931792  0.86658343  1
  In  In67  1  0.02395364  0.01399484  -0.01961336  1
  In  In68  1  0.47689780  0.70616718  0.46903208  1
  In  In69  1  0.86313259  0.51125670  0.65657074  1
  In  In70  1  0.54276656  0.69019379  0.16664287  1
  In  In71  1  0.82959165  0.68051840  0.50956673  1
  Te  Te72  1  0.10265219  0.07308717  0.08754387  1
  Te  Te73  1  0.09530297  0.08608663  0.43228625  1
  Te  Te74  1  0.09039477  0.07177259  0.72244791  1
  Te  Te75  1  0.08813753  0.39532602  0.08755086  1
  Te  Te76  1  0.09799878  0.41785806  0.38914347  1
  Te  Te77  1  0.07266781  0.42472411  0.74669844  1
  Te  Te78  1  0.08056590  0.74933500  0.08114598  1
  Te  Te79  1  0.05019621  0.79807969  0.43680552  1
  Te  Te80  1  0.10140920  0.75839438  0.76252443  1
  Te  Te81  1  0.42717710  0.06914120  0.08777398  1
  Te  Te82  1  0.41720920  0.09695694  0.43036190  1
  Te  Te83  1  0.43713136  0.05291654  0.71845203  1
  Te  Te84  1  0.39988699  0.40165353  0.06986148  1
  Te  Te85  1  0.43024086  0.41239595  0.43020426  1
  Te  Te86  1  0.41480659  0.41895775  0.75443357  1
  Te  Te87  1  0.44311870  0.73787952  0.07182918  1
  Te  Te88  1  0.37954172  0.75386400  0.36826589  1
  Te  Te89  1  0.42338362  0.73898223  0.75573845  1
  Te  Te90  1  0.73160826  0.07533774  0.09861198  1
  Te  Te91  1  0.72961916  0.06664858  0.43598272  1
  Te  Te92  1  0.74798245  0.03991673  0.75162516  1
  Te  Te93  1  0.75787416  0.39662977  0.07130443  1
  Te  Te94  1  0.75491156  0.43146117  0.39378580  1
  Te  Te95  1  0.75888944  0.41730285  0.73796165  1
  Te  Te96  1  0.74287056  0.76482857  0.05718683  1
  Te  Te97  1  0.74015961  0.73423884  0.40804521  1
  Te  Te98  1  0.71695733  0.79044466  0.77014140  1
  Te  Te99  1  0.08342484  0.23601546  0.25686404  1
  Te  Te100  1  0.10467994  0.25518318  0.60451215  1
  Te  Te101  1  0.08221747  0.23590272  0.90668757  1
  Te  Te102  1  0.06716054  0.58207595  0.23752302  1
  Te  Te103  1  0.10197538  0.60640099  0.57953543  1
  Te  Te104  1  0.07173407  0.58082447  0.92242949  1
  Te  Te105  1  0.08550769  0.93766194  0.25489369  1
  Te  Te106  1  0.05515026  0.90837329  0.56008551  1
  Te  Te107  1  0.11978713  0.94277936  0.89362542  1
  Te  Te108  1  0.43058405  0.24857596  0.25147263  1
  Te  Te109  1  0.43093442  0.24256475  0.60128842  1
  Te  Te110  1  0.42697074  0.21645219  0.93026119  1
  Te  Te111  1  0.41954941  0.62038781  0.24793428  1
  Te  Te112  1  0.40450864  0.59662982  0.56737510  1
  Te  Te113  1  0.41640286  0.63987709  0.95533976  1
  Te  Te114  1  0.42336949  0.87776418  0.28286049  1
  Te  Te115  1  0.40937284  0.92900565  0.63074068  1
  Te  Te116  1  0.44124892  0.91481814  0.89038624  1
  Te  Te117  1  0.70832525  0.26592738  0.26491698  1
  Te  Te118  1  0.73700858  0.24856676  0.58336905  1
  Te  Te119  1  0.75459522  0.20592289  0.89927050  1
  Te  Te120  1  0.74554171  0.59646677  0.24808278  1
  Te  Te121  1  0.73871156  0.57882597  0.59711178  1
  Te  Te122  1  0.75380988  0.61276480  0.91028163  1
  Te  Te123  1  0.71745157  0.87272831  0.23075534  1
  Te  Te124  1  0.74818497  0.89898438  0.58792055  1
  Te  Te125  1  0.73501540  0.94975489  0.89879748  1
  Te  Te126  1  0.23844318  0.22742508  0.06398352  1
  Te  Te127  1  0.26181725  0.24996175  0.42033476  1
  Te  Te128  1  0.26101297  0.23610364  0.76814895  1
  Te  Te129  1  0.24924402  0.60901393  0.08545632  1
  Te  Te130  1  0.18831238  0.62192089  0.38157857  1
  Te  Te131  1  0.27388893  0.58779480  0.75381455  1
  Te  Te132  1  0.27285361  0.90244602  0.09014788  1
  Te  Te133  1  0.25505837  0.92539024  0.45100647  1
  Te  Te134  1  0.25609120  0.93484094  0.70471385  1
  Te  Te135  1  0.59475528  0.23424495  0.08401708  1
  Te  Te136  1  0.62534977  0.26201278  0.40047215  1
  Te  Te137  1  0.58979581  0.20079215  0.77401925  1
  Te  Te138  1  0.60602573  0.58001334  0.07301625  1
  Te  Te139  1  0.58458330  0.60094217  0.43048688  1
  Te  Te140  1  0.58092457  0.58907545  0.77683832  1
  Te  Te141  1  0.57433617  0.89869711  0.06881278  1
  Te  Te142  1  0.56297915  0.90570440  0.41945540  1
  Te  Te143  1  0.53085449  0.93386148  0.75592130  1
  Te  Te144  1  0.91051696  0.23266462  0.05686252  1
  Te  Te145  1  0.89419349  0.22423568  0.42052907  1
  Te  Te146  1  0.90955346  0.25145184  0.72940330  1
  Te  Te147  1  0.90967050  0.57190560  0.09479038  1
  Te  Te148  1  0.91524872  0.57937862  0.43272705  1
  Te  Te149  1  0.90733969  0.59969708  0.76817792  1
  Te  Te150  1  0.93073791  0.92527531  0.09065416  1
  Te  Te151  1  0.88519582  0.91570152  0.38376718  1
  Te  Te152  1  0.90300986  0.85712104  0.73516727  1
  Te  Te153  1  0.26804858  0.06378295  0.24288110  1
  Te  Te154  1  0.22894167  0.06790759  0.62736424  1
  Te  Te155  1  0.25230099  0.05339477  0.90355822  1
  Te  Te156  1  0.26423358  0.43608259  0.24305606  1
  Te  Te157  1  0.25610225  0.42907172  0.57765425  1
  Te  Te158  1  0.24926773  0.43694204  0.91385134  1
  Te  Te159  1  0.25388955  0.78537053  0.25432168  1
  Te  Te160  1  0.25616272  0.78057369  0.54404766  1
  Te  Te161  1  0.25782273  0.76729101  0.91448748  1
  Te  Te162  1  0.57244085  0.06292613  0.25738925  1
  Te  Te163  1  0.58685272  0.08638425  0.57812281  1
  Te  Te164  1  0.56594227  0.11110887  0.89999856  1
  Te  Te165  1  0.56429657  0.43739151  0.24888188  1
  Te  Te166  1  0.57853637  0.41504421  0.60384366  1
  Te  Te167  1  0.57510795  0.40560111  0.90999737  1
  Te  Te168  1  0.60401231  0.77436260  0.26822097  1
  Te  Te169  1  0.55793851  0.75659931  0.59130709  1
  Te  Te170  1  0.60446797  0.78208507  0.97029068  1
  Te  Te171  1  0.89769498  0.08688829  0.24310995  1
  Te  Te172  1  0.92048764  0.07761604  0.59364056  1
  Te  Te173  1  0.91953407  0.06045102  0.88345028  1
  Te  Te174  1  0.90997577  0.38626702  0.24326326  1
  Te  Te175  1  0.93469261  0.41006480  0.56916744  1
  Te  Te176  1  0.91967253  0.41911414  0.90839307  1
  Te  Te177  1  0.92145939  0.73347114  0.26049576  1
  Te  Te178  1  0.90298453  0.75451849  0.61694244  1
  Te  Te179  1  0.93474049  0.79134226  0.92131932  1
