# generated using pymatgen
data_In2Te3
_symmetry_space_group_name_H-M   'P 1'
_cell_length_a   18.88540868
_cell_length_b   18.89622293
_cell_length_c   18.88213113
_cell_angle_alpha   89.97741902
_cell_angle_beta   90.06293137
_cell_angle_gamma   89.91266372
_symmetry_Int_Tables_number   1
_chemical_formula_structural   In2Te3
_chemical_formula_sum   'In72 Te108'
_cell_volume   6738.31951096
_cell_formula_units_Z   36
loop_
 _symmetry_equiv_pos_site_id
 _symmetry_equiv_pos_as_xyz
  1  'x, y, z'
loop_
 _atom_site_type_symbol
 _atom_site_label
 _atom_site_symmetry_multiplicity
 _atom_site_fract_x
 _atom_site_fract_y
 _atom_site_fract_z
 _atom_site_occupancy
  In  In0  1  0.36502340  0.64112101  0.63705916  1
  In  In1  1  0.83469337  0.17344337  -0.01541203  1
  In  In2  1  0.80964260  0.65292966  0.51903493  1
  In  In3  1  0.64665207  0.51918836  0.49361047  1
  In  In4  1  0.17048612  0.15645209  -0.01464101  1
  In  In5  1  0.16108094  -0.00719564  0.17975782  1
  In  In6  1  0.18019896  0.50685397  0.33528110  1
  In  In7  1  0.33050957  0.03141545  0.64463819  1
  In  In8  1  0.66505739  -0.00608573  0.32632876  1
  In  In9  1  0.49934952  0.16618551  0.35024573  1
  In  In10  1  0.01243177  0.65860134  0.33330577  1
  In  In11  1  0.00881928  0.17187863  0.51989682  1
  In  In12  1  0.33988712  0.16320384  0.17872486  1
  In  In13  1  -0.00841200  0.82648608  0.16957604  1
  In  In14  1  0.49953680  0.66363806  0.18803256  1
  In  In15  1  0.18413658  0.32993850  0.81331506  1
  In  In16  1  0.51728174  0.83236735  0.66699943  1
  In  In17  1  -0.00301258  0.34372514  0.67969525  1
  In  In18  1  0.34826134  0.33191996  0.46394393  1
  In  In19  1  0.18416146  0.49041363  0.66771793  1
  In  In20  1  0.84895134  0.51073951  0.00511887  1
  In  In21  1  0.32895524  0.84473768  0.82783804  1
  In  In22  1  0.85108805  0.34078598  0.52643348  1
  In  In23  1  0.66790732  0.67648482  0.01416225  1
  In  In24  1  0.20161771  0.78611324  0.31203988  1
  In  In25  1  0.67743506  0.16084433  0.16640307  1
  In  In26  1  0.53210857  0.33222264  0.17156231  1
  In  In27  1  0.66447704  0.49285450  0.82621305  1
  In  In28  1  -0.01551504  -0.00395906  0.34223557  1
  In  In29  1  0.36191205  0.80305566  0.47363026  1
  In  In30  1  0.34211756  0.65209001  -0.01944197  1
  In  In31  1  -0.00101686  0.34630813  0.32029031  1
  In  In32  1  0.49393283  0.36588905  0.81480132  1
  In  In33  1  0.15048689  0.49432320  -0.02643382  1
  In  In34  1  0.83726375  -0.02094397  0.17626325  1
  In  In35  1  0.17501392  0.00567694  0.49829729  1
  In  In36  1  0.65595967  0.80891276  0.49535209  1
  In  In37  1  0.66693151  0.35393974  0.65891109  1
  In  In38  1  -0.01252994  -0.00144633  -0.00231113  1
  In  In39  1  0.85348227  0.66217518  0.80899872  1
  In  In40  1  0.00923303  0.49181471  0.52536324  1
  In  In41  1  -0.02836458  0.83770450  0.48724935  1
  In  In42  1  0.67228566  0.18228811  0.83800006  1
  In  In43  1  0.66232399  -0.03676287  -0.00795848  1
  In  In44  1  0.18042520  0.64214643  0.50018019  1
  In  In45  1  0.16434745  0.34961720  0.18264006  1
  In  In46  1  0.64624914  0.32828076  0.35842860  1
  In  In47  1  0.50451885  0.81084271  0.03512105  1
  In  In48  1  0.51170570  0.64074382  0.83143702  1
  In  In49  1  0.14974378  0.02485781  0.82014519  1
  In  In50  1  0.82080453  0.66097934  0.17044869  1
  In  In51  1  0.15133003  0.66164792  0.82763813  1
  In  In52  1  0.35474256  -0.03424863  0.31321195  1
  In  In53  1  0.84787974  0.33915075  0.16571547  1
  In  In54  1  0.65259355  -0.00128330  0.65189230  1
  In  In55  1  0.14890056  0.84102629  0.02230409  1
  In  In56  1  0.32340696  0.49411567  0.16351949  1
  In  In57  1  0.82481154  0.14179482  0.34512699  1
  In  In58  1  0.82104449  0.82159540  0.66825721  1
  In  In59  1  0.49455474  0.01928696  0.50876354  1
  In  In60  1  -0.01118775  0.01673625  0.67502171  1
  In  In61  1  0.33923349  0.33965097  -0.00286180  1
  In  In62  1  0.35213464  0.33229379  0.64754104  1
  In  In63  1  0.49321199  -0.01228572  0.81183257  1
  In  In64  1  0.31209408  -0.00608930  0.00621841  1
  In  In65  1  0.49334502  0.17534851  -0.00390592  1
  In  In66  1  0.84204864  0.17735313  0.65878756  1
  In  In67  1  0.66707319  0.51497383  0.16680349  1
  In  In68  1  0.82109545  -0.00953448  0.85228356  1
  In  In69  1  0.15020960  0.81560834  0.66954679  1
  In  In70  1  -0.01178180  0.34212915  -0.01430384  1
  In  In71  1  0.81832924  0.51375980  0.32206751  1
  Te  Te72  1  0.08252738  0.08092967  0.08389575  1
  Te  Te73  1  0.08070027  0.09012161  0.41246156  1
  Te  Te74  1  0.08724331  0.11431129  0.72264992  1
  Te  Te75  1  0.07469290  0.42240827  0.08435873  1
  Te  Te76  1  0.09021133  0.41663624  0.41998647  1
  Te  Te77  1  0.08295174  0.43453311  0.76605585  1
  Te  Te78  1  0.08857525  0.73592340  0.10431367  1
  Te  Te79  1  0.09062139  0.74767868  0.43191335  1
  Te  Te80  1  0.05308223  0.76088010  0.76815116  1
  Te  Te81  1  0.41768208  0.07551095  0.08275543  1
  Te  Te82  1  0.39331293  0.07678149  0.41183884  1
  Te  Te83  1  0.41685746  0.09371616  0.74602418  1
  Te  Te84  1  0.43184253  0.41536181  0.08924606  1
  Te  Te85  1  0.45845882  0.43567976  0.45421985  1
  Te  Te86  1  0.41662182  0.44559995  0.71782981  1
  Te  Te87  1  0.38909121  0.73668980  0.09830681  1
  Te  Te88  1  0.46883756  0.74812307  0.38738956  1
  Te  Te89  1  0.41624154  0.74656652  0.75156952  1
  Te  Te90  1  0.75716700  0.07158250  0.07113579  1
  Te  Te91  1  0.71149377  0.09634389  0.42323521  1
  Te  Te92  1  0.75004759  0.08105731  0.74515719  1
  Te  Te93  1  0.75013802  0.42047504  0.08243233  1
  Te  Te94  1  0.75662457  0.42004930  0.42615210  1
  Te  Te95  1  0.76041596  0.39610801  0.76606532  1
  Te  Te96  1  0.73066804  0.76508964  0.11420875  1
  Te  Te97  1  0.75550634  0.73848019  0.41219672  1
  Te  Te98  1  0.73771083  0.73210554  0.74820708  1
  Te  Te99  1  0.08659112  0.24877827  0.25373468  1
  Te  Te100  1  0.08252347  0.28545583  0.57535579  1
  Te  Te101  1  0.08873324  0.25424501  0.90609665  1
  Te  Te102  1  0.10405407  0.59051185  0.24106890  1
  Te  Te103  1  0.08405210  0.59585412  0.60770657  1
  Te  Te104  1  0.05287589  0.59652423  0.92033695  1
  Te  Te105  1  0.08316470  0.89985549  0.27194581  1
  Te  Te106  1  0.07550179  0.91913479  0.58076712  1
  Te  Te107  1  0.08350132  0.92050384  0.90893698  1
  Te  Te108  1  0.42623179  0.26159864  0.25601519  1
  Te  Te109  1  0.43182720  0.24148297  0.55721696  1
  Te  Te110  1  0.41383824  0.25482868  0.89683225  1
  Te  Te111  1  0.40752798  0.57151610  0.26194764  1
  Te  Te112  1  0.40431619  0.57239778  0.51003936  1
  Te  Te113  1  0.42143258  0.55266584  0.90770487  1
  Te  Te114  1  0.45867735  0.90089681  0.23367219  1
  Te  Te115  1  0.41150790  0.90807066  0.58679818  1
  Te  Te116  1  0.42224552  0.90947812  0.92988680  1
  Te  Te117  1  0.74883959  0.26386424  0.25645504  1
  Te  Te118  1  0.73988544  0.24832075  0.57204841  1
  Te  Te119  1  0.76077312  0.27648108  0.90898884  1
  Te  Te120  1  0.71248206  0.61098226  0.27530038  1
  Te  Te121  1  0.71939698  0.57837143  0.61043658  1
  Te  Te122  1  0.75052015  0.59389122  0.91801988  1
  Te  Te123  1  0.73590543  0.89484534  0.24059163  1
  Te  Te124  1  0.74416759  0.91063802  0.57108992  1
  Te  Te125  1  0.75860818  0.87777112  0.92223548  1
  Te  Te126  1  0.25069937  0.24604847  0.08199935  1
  Te  Te127  1  0.25235588  0.22378142  0.44259873  1
  Te  Te128  1  0.25959631  0.24361692  0.72303862  1
  Te  Te129  1  0.24059831  0.57672288  0.06616550  1
  Te  Te130  1  0.28442449  0.59265270  0.40468529  1
  Te  Te131  1  0.26092367  0.59739583  0.74465191  1
  Te  Te132  1  0.25932094  0.89893650  0.11260999  1
  Te  Te133  1  0.25136092  0.90139772  0.41493897  1
  Te  Te134  1  0.24318130  0.92752998  0.73273329  1
  Te  Te135  1  0.60581815  0.25124316  0.06546199  1
  Te  Te136  1  0.55814031  0.25601841  0.45504921  1
  Te  Te137  1  0.58101262  0.25985481  0.74524365  1
  Te  Te138  1  0.56555835  0.58305109  0.07668426  1
  Te  Te139  1  0.55657250  0.62980508  0.44372198  1
  Te  Te140  1  0.58786700  0.57195809  0.72439782  1
  Te  Te141  1  0.57084161  0.92550248  0.10265180  1
  Te  Te142  1  0.57472766  0.92137170  0.42766088  1
  Te  Te143  1  0.61030177  0.90378449  0.76336686  1
  Te  Te144  1  0.92882266  0.24056307  0.08456798  1
  Te  Te145  1  0.91116197  0.25437078  0.41495074  1
  Te  Te146  1  0.91530497  0.25234525  0.76025062  1
  Te  Te147  1  0.92517406  0.61215930  0.08036481  1
  Te  Te148  1  0.92153645  0.57119634  0.42680078  1
  Te  Te149  1  0.92420536  0.58006189  0.70991104  1
  Te  Te150  1  0.90274782  0.89380955  0.06589497  1
  Te  Te151  1  0.87898217  0.92070724  0.41033758  1
  Te  Te152  1  0.91007003  0.91468589  0.75346334  1
  Te  Te153  1  0.25074078  0.07849048  0.26578319  1
  Te  Te154  1  0.24358705  0.12502421  0.56256962  1
  Te  Te155  1  0.26942772  0.08712622  0.89389005  1
  Te  Te156  1  0.27258799  0.39964826  0.27479590  1
  Te  Te157  1  0.25999282  0.42312414  0.55883441  1
  Te  Te158  1  0.26441909  0.42769697  0.89822236  1
  Te  Te159  1  0.31172785  0.71024882  0.25543376  1
  Te  Te160  1  0.25979964  0.75146175  0.58480731  1
  Te  Te161  1  0.24066267  0.75945048  0.91783297  1
  Te  Te162  1  0.57154943  0.08585911  0.24310530  1
  Te  Te163  1  0.55833250  0.10397626  0.61169855  1
  Te  Te164  1  0.58502997  0.07732081  0.91241057  1
  Te  Te165  1  0.58379080  0.43519920  0.27105232  1
  Te  Te166  1  0.56166499  0.42392599  0.57462809  1
  Te  Te167  1  0.57270966  0.42826838  0.92204545  1
  Te  Te168  1  0.55664142  0.78076593  0.26055099  1
  Te  Te169  1  0.56980556  0.72205232  0.58246881  1
  Te  Te170  1  0.57624469  0.75020070  0.91568359  1
  Te  Te171  1  0.92015149  0.08998705  0.23916949  1
  Te  Te172  1  0.90144715  0.07346006  0.56367107  1
  Te  Te173  1  0.92747667  0.09233033  0.89484229  1
  Te  Te174  1  0.92557277  0.44990918  0.23511282  1
  Te  Te175  1  0.89077083  0.45653239  0.62067427  1
  Te  Te176  1  0.91182781  0.43070222  0.89827091  1
  Te  Te177  1  0.90829181  0.74641575  0.26748321  1
  Te  Te178  1  0.91972702  0.73689604  0.58646843  1
  Te  Te179  1  0.95816796  0.72615417  0.89398299  1
