# generated using pymatgen
data_In2Te3
_symmetry_space_group_name_H-M   'P 1'
_cell_length_a   18.99767899
_cell_length_b   18.98326989
_cell_length_c   18.95962367
_cell_angle_alpha   90.36809555
_cell_angle_beta   89.90400215
_cell_angle_gamma   89.87479567
_symmetry_Int_Tables_number   1
_chemical_formula_structural   In2Te3
_chemical_formula_sum   'In72 Te108'
_cell_volume   6837.39485232
_cell_formula_units_Z   36
loop_
 _symmetry_equiv_pos_site_id
 _symmetry_equiv_pos_as_xyz
  1  'x, y, z'
loop_
 _atom_site_type_symbol
 _atom_site_label
 _atom_site_symmetry_multiplicity
 _atom_site_fract_x
 _atom_site_fract_y
 _atom_site_fract_z
 _atom_site_occupancy
  In  In0  1  0.50186459  0.35223208  0.82754916  1
  In  In1  1  -0.01684443  0.68224894  0.67496978  1
  In  In2  1  0.64845410  0.45876452  0.16567446  1
  In  In3  1  0.33640966  0.18508201  0.47794699  1
  In  In4  1  0.33841532  0.69999427  -0.03390399  1
  In  In5  1  0.65672748  0.31272011  0.00386745  1
  In  In6  1  0.48868241  0.66632278  0.15334709  1
  In  In7  1  -0.04505967  0.15429849  0.81736758  1
  In  In8  1  0.66586593  0.69037889  -0.01988978  1
  In  In9  1  0.51285260  0.52718889  0.64828546  1
  In  In10  1  0.67768026  0.51746651  0.50631920  1
  In  In11  1  -0.00529825  0.82810826  0.48307778  1
  In  In12  1  -0.00082352  0.35741417  0.02342830  1
  In  In13  1  0.75740186  0.11344814  -0.00902709  1
  In  In14  1  0.49329662  0.01306043  0.88262309  1
  In  In15  1  0.36307259  0.87897759  0.12140698  1
  In  In16  1  0.46298859  0.34598633  0.47499765  1
  In  In17  1  0.31240789  0.50587423  0.17007700  1
  In  In18  1  0.66667583  0.84183758  0.83442271  1
  In  In19  1  -0.02775683  0.83483297  0.17071802  1
  In  In20  1  0.49535580  0.48698315  -0.00630137  1
  In  In21  1  0.68360326  -0.01467528  0.66424091  1
  In  In22  1  0.48382176  0.66658536  0.48566508  1
  In  In23  1  0.33234758  0.49216478  0.82221556  1
  In  In24  1  0.53408264  0.12365544  0.32301561  1
  In  In25  1  -0.03809518  0.48289731  0.53415402  1
  In  In26  1  -0.00978592  0.19533213  0.51512458  1
  In  In27  1  -0.00316441  0.32565086  0.35850266  1
  In  In28  1  0.67825834  0.67261665  0.68540561  1
  In  In29  1  -0.00633419  0.01851649  0.35206309  1
  In  In30  1  0.80628600  0.68093685  0.14457715  1
  In  In31  1  0.18040408  0.48397806  0.64950221  1
  In  In32  1  0.81914761  0.53262103  -0.00395107  1
  In  In33  1  0.50205969  0.16561096  0.68443966  1
  In  In34  1  0.18094948  0.81532162  0.33594170  1
  In  In35  1  -0.00612556  -0.02404566  0.01688178  1
  In  In36  1  0.15906300  0.01992318  0.20865351  1
  In  In37  1  0.68864861  0.83515325  0.50679730  1
  In  In38  1  0.50609837  0.30113870  0.18665171  1
  In  In39  1  0.82628105  0.34928292  0.82182515  1
  In  In40  1  0.18225105  0.84326135  -0.01283918  1
  In  In41  1  0.33641813  0.30801361  0.00468548  1
  In  In42  1  0.66445521  0.32128546  0.65720738  1
  In  In43  1  0.33718179  0.15614271  0.84843059  1
  In  In44  1  0.67775820  0.15036271  0.47188952  1
  In  In45  1  -0.01795190  0.52814180  0.15496107  1
  In  In46  1  0.05289284  -0.00207177  0.68989170  1
  In  In47  1  0.16803227  0.68547925  0.52264460  1
  In  In48  1  0.65775437  0.67139163  0.31914790  1
  In  In49  1  0.82326484  0.50957883  0.35205611  1
  In  In50  1  0.16114867  0.32958245  0.82399491  1
  In  In51  1  0.33623322  0.67877688  0.34290277  1
  In  In52  1  0.19039379  0.15522812  -0.01459009  1
  In  In53  1  0.83158670  0.32393280  0.19117482  1
  In  In54  1  0.00171737  0.54634372  0.83653397  1
  In  In55  1  -0.01701364  0.81151926  0.85252809  1
  In  In56  1  0.19759881  0.31038246  0.16075096  1
  In  In57  1  0.51614795  -0.03500083  0.51481822  1
  In  In58  1  0.48622914  0.80162804  0.68058154  1
  In  In59  1  0.33229771  0.81225866  0.51748313  1
  In  In60  1  0.85037040  0.15183769  0.66020954  1
  In  In61  1  0.80313807  0.82802470  0.30961528  1
  In  In62  1  0.18217666  0.19350945  0.65838132  1
  In  In63  1  0.66262956  0.34974460  0.34061722  1
  In  In64  1  0.17630574  0.48402598  0.33191722  1
  In  In65  1  0.80541588  0.13298075  0.30233053  1
  In  In66  1  0.14686665  0.51695856  -0.01487255  1
  In  In67  1  0.17030212  0.00314963  0.53890346  1
  In  In68  1  0.34628471  -0.00976614  0.32238798  1
  In  In69  1  0.16405752  0.68080151  0.16116378  1
  In  In70  1  0.83088643  -0.01721892  0.83381470  1
  In  In71  1  0.01046686  0.16793595  0.19178361  1
  Te  Te72  1  0.08576107  0.08866338  0.08314785  1
  Te  Te73  1  0.08662543  0.09196490  0.44201307  1
  Te  Te74  1  0.09262047  0.12626957  0.76663908  1
  Te  Te75  1  0.10699008  0.42617079  0.10680172  1
  Te  Te76  1  0.06858109  0.43839672  0.42731190  1
  Te  Te77  1  0.08153491  0.43622664  0.75956802  1
  Te  Te78  1  0.08099412  0.77441782  0.07954948  1
  Te  Te79  1  0.07904953  0.72875745  0.40354352  1
  Te  Te80  1  0.08252886  0.74243597  0.76682330  1
  Te  Te81  1  0.42010481  0.03227778  0.01877408  1
  Te  Te82  1  0.43573865  0.06595618  0.43226148  1
  Te  Te83  1  0.41689429  0.06685629  0.75454835  1
  Te  Te84  1  0.41111737  0.40959890  0.09242068  1
  Te  Te85  1  0.37898329  0.46547308  0.46184763  1
  Te  Te86  1  0.42246748  0.42303350  0.72221462  1
  Te  Te87  1  0.44250131  0.77004445  0.05189697  1
  Te  Te88  1  0.43025543  0.78119323  0.40263993  1
  Te  Te89  1  0.37342307  0.73938899  0.74867685  1
  Te  Te90  1  0.73654057  0.04614171  0.12077998  1
  Te  Te91  1  0.77062525  0.05078026  0.41914821  1
  Te  Te92  1  0.75250607  0.08675752  0.75430518  1
  Te  Te93  1  0.76864554  0.41266478  0.08185758  1
  Te  Te94  1  0.76289804  0.40325558  0.43885733  1
  Te  Te95  1  0.73578340  0.42319078  0.73566099  1
  Te  Te96  1  0.69509738  0.76769045  0.10378361  1
  Te  Te97  1  0.75598506  0.73005604  0.41713647  1
  Te  Te98  1  0.76073737  0.78275201  0.73545987  1
  Te  Te99  1  0.10255888  0.25830866  0.26892133  1
  Te  Te100  1  0.09453227  0.28379484  0.57797763  1
  Te  Te101  1  0.09226929  0.26527951  0.94246607  1
  Te  Te102  1  0.08935334  0.58314787  0.24749430  1
  Te  Te103  1  0.07650525  0.58449447  0.58911661  1
  Te  Te104  1  0.10231717  0.63150447  0.90462944  1
  Te  Te105  1  0.07626144  0.90593515  0.26711424  1
  Te  Te106  1  0.10267994  0.87181219  0.57908135  1
  Te  Te107  1  0.08091566  0.92308252  0.90687351  1
  Te  Te108  1  0.42841142  0.20806515  0.26695055  1
  Te  Te109  1  0.42264682  0.25173588  0.58680732  1
  Te  Te110  1  0.44187845  0.24491231  0.91787907  1
  Te  Te111  1  0.41331054  0.58164058  0.25402942  1
  Te  Te112  1  0.39661696  0.58205379  0.57194361  1
  Te  Te113  1  0.42024306  0.58335976  0.90628705  1
  Te  Te114  1  0.44321442  0.95192823  0.21927641  1
  Te  Te115  1  0.40718921  0.91151308  0.60384761  1
  Te  Te116  1  0.37367663  0.92532801  0.91944930  1
  Te  Te117  1  0.71565064  0.24579388  0.24272009  1
  Te  Te118  1  0.75637743  0.23331373  0.57315842  1
  Te  Te119  1  0.77256747  0.25315610  0.92548360  1
  Te  Te120  1  0.74427326  0.56416796  0.23524027  1
  Te  Te121  1  0.76351426  0.57634217  0.60894674  1
  Te  Te122  1  0.75421053  0.61073387  0.89308256  1
  Te  Te123  1  0.73719097  0.92474011  0.22080283  1
  Te  Te124  1  0.78558035  0.90326597  0.59627658  1
  Te  Te125  1  0.75308982  0.91018085  0.93552338  1
  Te  Te126  1  0.28425747  0.20104202  0.09775022  1
  Te  Te127  1  0.22558710  0.28134767  0.46532816  1
  Te  Te128  1  0.27721274  0.26341322  0.75565528  1
  Te  Te129  1  0.26186244  0.60396862  0.06466231  1
  Te  Te130  1  0.23750567  0.59577767  0.41855103  1
  Te  Te131  1  0.23469200  0.57429496  0.75250819  1
  Te  Te132  1  0.22883511  0.94006604  0.09680737  1
  Te  Te133  1  0.25439324  0.91225465  0.42558280  1
  Te  Te134  1  0.19539183  0.95177163  0.68293564  1
  Te  Te135  1  0.57093419  0.22350710  0.08024255  1
  Te  Te136  1  0.57479543  0.24949219  0.41844703  1
  Te  Te137  1  0.59691828  0.24601841  0.77051757  1
  Te  Te138  1  0.58962406  0.57004456  0.08109669  1
  Te  Te139  1  0.57947665  0.57668877  0.40772226  1
  Te  Te140  1  0.57157178  0.60296542  0.75846893  1
  Te  Te141  1  0.56369458  0.96854137  0.01196943  1
  Te  Te142  1  0.61145940  0.91825993  0.41452728  1
  Te  Te143  1  0.57319031  0.91545171  0.73786434  1
  Te  Te144  1  0.92281716  0.24815776  0.09656360  1
  Te  Te145  1  0.89767164  0.22074021  0.39432743  1
  Te  Te146  1  0.92881307  0.27676293  0.73321459  1
  Te  Te147  1  0.92715169  0.62357201  0.05481677  1
  Te  Te148  1  0.91284106  0.58282614  0.43933316  1
  Te  Te149  1  0.89794399  0.58016766  0.73976970  1
  Te  Te150  1  0.88397512  0.87716850  0.05381528  1
  Te  Te151  1  0.89958281  0.91071788  0.39932987  1
  Te  Te152  1  0.93791613  0.91741228  0.75214012  1
  Te  Te153  1  0.24718729  0.09575309  0.29604775  1
  Te  Te154  1  0.27878896  0.09929151  0.58890524  1
  Te  Te155  1  0.25483260  0.04599097  0.90655007  1
  Te  Te156  1  0.27810323  0.39170029  0.26426041  1
  Te  Te157  1  0.26303297  0.40395294  0.55123881  1
  Te  Te158  1  0.25226454  0.41193407  0.93296481  1
  Te  Te159  1  0.27522897  0.76374748  0.22667406  1
  Te  Te160  1  0.26929290  0.73015238  0.62522637  1
  Te  Te161  1  0.26975537  0.79424823  0.87133991  1
  Te  Te162  1  0.63109179  0.05061479  0.23748846  1
  Te  Te163  1  0.59157078  0.08749539  0.58685934  1
  Te  Te164  1  0.62889156  0.07635830  0.92198464  1
  Te  Te165  1  0.54691660  0.42043824  0.27172739  1
  Te  Te166  1  0.57867500  0.41051023  0.56446308  1
  Te  Te167  1  0.60691129  0.42291531  0.91318386  1
  Te  Te168  1  0.57177078  0.75656862  0.23728361  1
  Te  Te169  1  0.58110751  0.74250670  0.57421330  1
  Te  Te170  1  0.56597440  0.75095055  0.89248526  1
  Te  Te171  1  0.91591248  0.05630152  0.22710285  1
  Te  Te172  1  0.95409752  0.06831534  0.59150907  1
  Te  Te173  1  0.90800299  0.08085353  0.94103568  1
  Te  Te174  1  0.92768899  0.42357839  0.25336159  1
  Te  Te175  1  0.93018206  0.35109510  0.58701695  1
  Te  Te176  1  0.92153663  0.43427454  0.91968556  1
  Te  Te177  1  0.90439472  0.72660896  0.25081347  1
  Te  Te178  1  0.90504419  0.76421359  0.58045346  1
  Te  Te179  1  0.88572470  0.76308682  0.95062873  1
