# generated using pymatgen
data_In2Te3
_symmetry_space_group_name_H-M   'P 1'
_cell_length_a   18.96579135
_cell_length_b   18.94224461
_cell_length_c   18.96042588
_cell_angle_alpha   89.89525347
_cell_angle_beta   89.87090123
_cell_angle_gamma   90.11264892
_symmetry_Int_Tables_number   1
_chemical_formula_structural   In2Te3
_chemical_formula_sum   'In72 Te108'
_cell_volume   6811.57944164
_cell_formula_units_Z   36
loop_
 _symmetry_equiv_pos_site_id
 _symmetry_equiv_pos_as_xyz
  1  'x, y, z'
loop_
 _atom_site_type_symbol
 _atom_site_label
 _atom_site_symmetry_multiplicity
 _atom_site_fract_x
 _atom_site_fract_y
 _atom_site_fract_z
 _atom_site_occupancy
  In  In0  1  0.52909050  0.35922082  0.18287776  1
  In  In1  1  0.34534472  -0.00005903  0.34091835  1
  In  In2  1  -0.00281073  0.49707149  0.51673069  1
  In  In3  1  0.48084757  0.50950606  0.32755395  1
  In  In4  1  0.16927107  0.50611883  0.36068763  1
  In  In5  1  0.83515421  0.77922944  0.31543729  1
  In  In6  1  0.29184417  -0.03204606  -0.01096830  1
  In  In7  1  0.35068037  0.16373596  0.15208785  1
  In  In8  1  0.32748947  0.83025541  0.49461562  1
  In  In9  1  -0.02554814  0.67004680  0.65582751  1
  In  In10  1  0.33184750  0.33882554  0.66085924  1
  In  In11  1  0.47285070  -0.01849026  0.48660151  1
  In  In12  1  0.32931490  0.49467904  0.17687770  1
  In  In13  1  0.50746056  0.66893052  0.10841038  1
  In  In14  1  0.66494367  0.17409899  0.52616350  1
  In  In15  1  0.17513432  0.67534703  0.49379711  1
  In  In16  1  0.15833035  0.85421574  0.67086520  1
  In  In17  1  0.04274293  0.83293890  0.13348448  1
  In  In18  1  0.82036401  0.82390247  -0.00088617  1
  In  In19  1  -0.00911667  -0.00306765  0.38742547  1
  In  In20  1  0.03862244  -0.01858074  -0.01381925  1
  In  In21  1  0.49617253  0.15553020  0.69855752  1
  In  In22  1  0.82601699  0.67069404  0.50421742  1
  In  In23  1  0.51827992  0.69396959  0.85619939  1
  In  In24  1  0.49684199  0.15264468  -0.00564562  1
  In  In25  1  0.15656729  0.30611246  0.82526957  1
  In  In26  1  0.80737887  0.50464774  -0.00363661  1
  In  In27  1  0.67220824  0.68205522  0.69243608  1
  In  In28  1  0.15191091  0.50308425  -0.01284219  1
  In  In29  1  0.18211341  0.66574379  0.15395945  1
  In  In30  1  0.82558290  0.34093936  0.83275471  1
  In  In31  1  0.83288145  0.01728006  0.15776970  1
  In  In32  1  -0.01068877  0.35342062  0.31652040  1
  In  In33  1  0.20278707  0.68891606  0.84557884  1
  In  In34  1  0.65490082  0.51486810  0.48986844  1
  In  In35  1  0.66398622  0.18721872  0.85430077  1
  In  In36  1  0.84461573  0.17391576  -0.00685684  1
  In  In37  1  0.83966769  0.15581184  0.67396114  1
  In  In38  1  0.49176265  0.82466452  0.32465028  1
  In  In39  1  0.68788772  0.83027570  0.53181408  1
  In  In40  1  0.18365412  0.31040153  0.16335030  1
  In  In41  1  -0.01184520  0.32093222  -0.00907636  1
  In  In42  1  0.00860802  0.17918441  0.51175853  1
  In  In43  1  0.00181022  0.32718430  0.66552252  1
  In  In44  1  0.17622115  -0.00687031  0.18661023  1
  In  In45  1  0.65332997  0.35335825  0.33439974  1
  In  In46  1  0.35263080  0.34063371  -0.00729856  1
  In  In47  1  0.47048486  -0.02282899  0.83841624  1
  In  In48  1  0.66362456  0.80757691  0.14080557  1
  In  In49  1  0.47494270  0.82730223  0.66666935  1
  In  In50  1  0.01324025  0.64570769  0.32571680  1
  In  In51  1  0.45126242  0.18069785  0.35043995  1
  In  In52  1  0.50826228  0.32817411  0.82410189  1
  In  In53  1  -0.00357389  0.85354283  0.80978440  1
  In  In54  1  0.85404482  0.02267477  0.50271037  1
  In  In55  1  0.83865391  0.67918881  0.83048945  1
  In  In56  1  0.15244683  0.81196832  0.31550032  1
  In  In57  1  0.50138334  0.34576938  0.49689470  1
  In  In58  1  -0.03431483  0.49466691  0.15463972  1
  In  In59  1  0.20105140  0.21372904  0.37204859  1
  In  In60  1  0.17692422  0.00569043  0.52857293  1
  In  In61  1  0.01589892  0.11061219  0.82093874  1
  In  In62  1  0.51056855  -0.04798366  0.14497325  1
  In  In63  1  0.66279307  0.01685350  0.69259108  1
  In  In64  1  0.35779479  0.52755935  0.86250015  1
  In  In65  1  0.65045153  0.49184076  0.84049285  1
  In  In66  1  0.64940970  0.14263123  0.16640497  1
  In  In67  1  0.81739900  0.19180415  0.33474244  1
  In  In68  1  0.47244440  0.52264673  0.63210199  1
  In  In69  1  0.18787066  0.48776948  0.68370970  1
  In  In70  1  0.65060422  -0.00239965  0.31817970  1
  In  In71  1  -0.00561160  0.15907232  0.15339375  1
  Te  Te72  1  0.10236671  0.07934672  0.08348908  1
  Te  Te73  1  0.10325809  0.09620863  0.41715611  1
  Te  Te74  1  0.14253291  0.05624103  0.75354831  1
  Te  Te75  1  0.08733388  0.39596541  0.08225151  1
  Te  Te76  1  0.07909633  0.40415286  0.42785128  1
  Te  Te77  1  0.07768730  0.41865834  0.76195325  1
  Te  Te78  1  0.09861730  0.72750517  0.05061979  1
  Te  Te79  1  0.06409064  0.75138427  0.42279194  1
  Te  Te80  1  0.08043249  0.73986383  0.74274198  1
  Te  Te81  1  0.40805040  0.05052055  0.06803880  1
  Te  Te82  1  0.37820851  0.09770074  0.45374648  1
  Te  Te83  1  0.39331041  0.06601280  0.75000888  1
  Te  Te84  1  0.43247629  0.42821932  0.08656614  1
  Te  Te85  1  0.40197471  0.40475353  0.40339943  1
  Te  Te86  1  0.41696711  0.42946096  0.75369288  1
  Te  Te87  1  0.41193059  0.76873804  0.05102579  1
  Te  Te88  1  0.42593871  0.74317568  0.42883142  1
  Te  Te89  1  0.40801198  0.74870729  0.77223163  1
  Te  Te90  1  0.73793713  0.08084902  0.05935468  1
  Te  Te91  1  0.74002870  0.08071417  0.41031688  1
  Te  Te92  1  0.75825767  0.08883042  0.78435913  1
  Te  Te93  1  0.71307672  0.46520663  0.10325094  1
  Te  Te94  1  0.74376502  0.41390054  0.43042615  1
  Te  Te95  1  0.73869167  0.42054754  0.74759183  1
  Te  Te96  1  0.77066597  0.71099287  0.09360595  1
  Te  Te97  1  0.72397747  0.74009967  0.41522455  1
  Te  Te98  1  0.77444710  0.78040205  0.73960356  1
  Te  Te99  1  0.07956074  0.24040342  0.25179819  1
  Te  Te100  1  0.10792954  0.24732192  0.59819220  1
  Te  Te101  1  0.07606783  0.22073654  0.92077176  1
  Te  Te102  1  0.09364756  0.55604080  0.23318666  1
  Te  Te103  1  0.10052103  0.58151135  0.59029067  1
  Te  Te104  1  0.09710603  0.59549624  0.88828479  1
  Te  Te105  1  0.05823387  0.92960864  0.26188020  1
  Te  Te106  1  0.07361706  0.90825753  0.56305246  1
  Te  Te107  1  0.11465210  0.88703331  0.89974415  1
  Te  Te108  1  0.41199957  0.27173923  0.23796326  1
  Te  Te109  1  0.43431053  0.24827602  0.59322527  1
  Te  Te110  1  0.41268259  0.23514189  0.90021117  1
  Te  Te111  1  0.42159505  0.60373860  0.22379785  1
  Te  Te112  1  0.38181413  0.58913505  0.54009563  1
  Te  Te113  1  0.46291510  0.58784420  0.94641855  1
  Te  Te114  1  0.39709436  0.90253681  0.23627008  1
  Te  Te115  1  0.38376417  0.92796830  0.59820896  1
  Te  Te116  1  0.40281598  0.87904984  0.93300551  1
  Te  Te117  1  0.72637921  0.25530968  0.23466853  1
  Te  Te118  1  0.77469303  0.24983010  0.58269836  1
  Te  Te119  1  0.74400619  0.27724585  0.94553325  1
  Te  Te120  1  0.79759578  0.65971961  0.23594156  1
  Te  Te121  1  0.74120062  0.58665160  0.59667615  1
  Te  Te122  1  0.73070102  0.60219309  0.90715311  1
  Te  Te123  1  0.73754013  0.91790822  0.22457526  1
  Te  Te124  1  0.75892308  0.94676100  0.59813313  1
  Te  Te125  1  0.74046399  0.86402110  0.88022098  1
  Te  Te126  1  0.25894782  0.23532558  0.05502914  1
  Te  Te127  1  0.28620286  0.30572441  0.44600266  1
  Te  Te128  1  0.26341711  0.24116525  0.74943849  1
  Te  Te129  1  0.26267286  0.57220895  0.06458072  1
  Te  Te130  1  0.27736494  0.58988941  0.42266324  1
  Te  Te131  1  0.27547584  0.59127914  0.75165005  1
  Te  Te132  1  0.22353995  0.88912095  0.09435255  1
  Te  Te133  1  0.23493231  0.91560411  0.40428851  1
  Te  Te134  1  0.22655941  0.91631989  0.79027016  1
  Te  Te135  1  0.57196334  0.24575369  0.08516417  1
  Te  Te136  1  0.58144808  0.23234092  0.40687831  1
  Te  Te137  1  0.60597555  0.25410403  0.73227586  1
  Te  Te138  1  0.63366512  0.58934602  0.07880323  1
  Te  Te139  1  0.54442530  0.59325618  0.43155363  1
  Te  Te140  1  0.56245078  0.58726129  0.74323846  1
  Te  Te141  1  0.60239896  0.90040100  0.04032831  1
  Te  Te142  1  0.58999861  0.90467584  0.42376011  1
  Te  Te143  1  0.57497741  0.90807234  0.74978512  1
  Te  Te144  1  0.89904775  0.26492476  0.10245996  1
  Te  Te145  1  0.91889537  0.26116324  0.42181917  1
  Te  Te146  1  0.92694173  0.23688893  0.77308565  1
  Te  Te147  1  0.92088577  0.58381222  0.05003829  1
  Te  Te148  1  0.91461121  0.57864722  0.41900522  1
  Te  Te149  1  0.90406713  0.57919294  0.74493151  1
  Te  Te150  1  0.92046618  0.91814865  0.08235731  1
  Te  Te151  1  0.87755112  0.90217773  0.40754748  1
  Te  Te152  1  0.95392197  0.98428732  0.75556902  1
  Te  Te153  1  0.25853259  0.10200131  0.25728848  1
  Te  Te154  1  0.20820046  0.11386433  0.62277675  1
  Te  Te155  1  0.23656766  0.05316481  0.88143676  1
  Te  Te156  1  0.24128223  0.40767989  0.26330751  1
  Te  Te157  1  0.24535257  0.41541954  0.56722868  1
  Te  Te158  1  0.25296496  0.41438438  0.90405374  1
  Te  Te159  1  0.26054156  0.73604797  0.25568753  1
  Te  Te160  1  0.25012473  0.75363429  0.59973657  1
  Te  Te161  1  0.31084743  0.73669082  0.93574317  1
  Te  Te162  1  0.53942796  0.07516774  0.25092202  1
  Te  Te163  1  0.56902263  0.06708554  0.57723577  1
  Te  Te164  1  0.57997928  0.06923801  0.90152628  1
  Te  Te165  1  0.60869666  0.47297548  0.25090726  1
  Te  Te166  1  0.58189908  0.42448626  0.59428457  1
  Te  Te167  1  0.57820334  0.40005827  0.92978237  1
  Te  Te168  1  0.57507585  0.73376276  0.23781417  1
  Te  Te169  1  0.57694037  0.74516265  0.58958289  1
  Te  Te170  1  0.61620876  0.78280457  0.92571598  1
  Te  Te171  1  0.91135683  0.08819956  0.26742962  1
  Te  Te172  1  0.95558644  0.07299925  0.60551700  1
  Te  Te173  1  0.91777873  0.05834190  0.93120067  1
  Te  Te174  1  0.88281695  0.43479350  0.25835411  1
  Te  Te175  1  0.90739226  0.41645420  0.59965932  1
  Te  Te176  1  0.91826655  0.42870933  0.91493190  1
  Te  Te177  1  0.95380793  0.74088608  0.22252136  1
  Te  Te178  1  0.89866087  0.77147199  0.58321281  1
  Te  Te179  1  0.93283536  0.76368937  0.91641436  1
