# generated using pymatgen
data_In2Te3
_symmetry_space_group_name_H-M   'P 1'
_cell_length_a   18.91943576
_cell_length_b   18.91088481
_cell_length_c   18.92403458
_cell_angle_alpha   89.97085393
_cell_angle_beta   90.00016970
_cell_angle_gamma   90.03967555
_symmetry_Int_Tables_number   1
_chemical_formula_structural   In2Te3
_chemical_formula_sum   'In72 Te108'
_cell_volume   6770.70048089
_cell_formula_units_Z   36
loop_
 _symmetry_equiv_pos_site_id
 _symmetry_equiv_pos_as_xyz
  1  'x, y, z'
loop_
 _atom_site_type_symbol
 _atom_site_label
 _atom_site_symmetry_multiplicity
 _atom_site_fract_x
 _atom_site_fract_y
 _atom_site_fract_z
 _atom_site_occupancy
  In  In0  1  0.81595650  0.68878456  0.84225818  1
  In  In1  1  0.66600849  0.14639153  0.16406301  1
  In  In2  1  0.66306977  -0.01543392  0.65976360  1
  In  In3  1  0.34304642  0.15030849  0.17647045  1
  In  In4  1  0.50304858  0.49997300  0.00485120  1
  In  In5  1  0.51176890  0.17718648  0.32812257  1
  In  In6  1  0.69443427  0.20913838  0.51615613  1
  In  In7  1  0.00429615  0.50165549  0.84684475  1
  In  In8  1  0.32382596  0.67448211  0.66631146  1
  In  In9  1  0.84739635  0.79749073  0.65119528  1
  In  In10  1  0.17522779  -0.00993616  0.80845533  1
  In  In11  1  0.50331946  0.81810009  0.63874171  1
  In  In12  1  0.52795529  0.33386415  0.18103316  1
  In  In13  1  0.68375298  0.50933813  0.18097419  1
  In  In14  1  0.16841558  0.34490492  0.17330667  1
  In  In15  1  0.47759211  0.64089042  0.19686247  1
  In  In16  1  0.82562964  0.01564627  0.85016493  1
  In  In17  1  0.51143283  -0.02311257  0.15035978  1
  In  In18  1  0.84018430  0.51685071  0.65304981  1
  In  In19  1  0.33099273  0.18516224  0.83490563  1
  In  In20  1  0.50611639  0.32559912  0.82715619  1
  In  In21  1  0.83651397  0.66953122  0.17186912  1
  In  In22  1  0.50834228  0.14443087  0.68377117  1
  In  In23  1  0.65632774  0.52234416  0.83973422  1
  In  In24  1  0.51361052  0.49694780  0.68139786  1
  In  In25  1  0.14507149  0.17178231  0.65713804  1
  In  In26  1  0.14646746  0.66623335  0.82694042  1
  In  In27  1  0.34462998  0.64656254  0.02019344  1
  In  In28  1  0.17834922  0.83402381  0.01499387  1
  In  In29  1  -0.01071042  0.01583404  0.65918269  1
  In  In30  1  0.67446015  0.16950679  0.81976016  1
  In  In31  1  0.83040961  0.83324602  0.01027323  1
  In  In32  1  0.16765350  0.81963502  0.30570521  1
  In  In33  1  0.14245038  0.17839291  -0.00573823  1
  In  In34  1  0.51181506  -0.02683372  0.47822301  1
  In  In35  1  -0.01367924  0.67344232  0.34426355  1
  In  In36  1  0.33501150  0.34609566  0.00013202  1
  In  In37  1  -0.00610566  0.35667272  0.64317870  1
  In  In38  1  0.17262351  0.66980228  0.15228972  1
  In  In39  1  0.16766808  0.51649423  0.64621878  1
  In  In40  1  0.34797524  0.81900756  0.49960367  1
  In  In41  1  -0.01828279  -0.00990501  -0.00034516  1
  In  In42  1  0.65663920  -0.02438584  -0.00505024  1
  In  In43  1  -0.00732570  0.81705871  0.82596487  1
  In  In44  1  0.84820445  0.18539065  0.35693294  1
  In  In45  1  0.53444134  0.69242925  0.85934257  1
  In  In46  1  0.34202249  0.00662787  0.33016572  1
  In  In47  1  0.48261110  0.35739583  0.49318728  1
  In  In48  1  0.13891119  0.64465063  0.48752666  1
  In  In49  1  0.82516724  0.50168216  0.01624240  1
  In  In50  1  0.49623064  -0.01285641  0.84711550  1
  In  In51  1  0.31052123  0.17847469  0.50568689  1
  In  In52  1  -0.00230713  0.14175198  0.16940260  1
  In  In53  1  0.32855421  -0.00714699  0.01166488  1
  In  In54  1  0.81551834  0.17148996  0.01169415  1
  In  In55  1  -0.03261881  0.50562516  0.47682557  1
  In  In56  1  0.14361836  -0.00676715  0.49705174  1
  In  In57  1  0.83742315  0.35102814  0.81284747  1
  In  In58  1  0.84168169  0.01513637  0.49492532  1
  In  In59  1  0.18467479  0.33993201  0.85340526  1
  In  In60  1  0.16085058  0.18514107  0.34568236  1
  In  In61  1  0.83534641  0.32843998  0.17670709  1
  In  In62  1  0.55483191  0.83218154  0.31562751  1
  In  In63  1  -0.00255061  -0.01703436  0.32847573  1
  In  In64  1  0.34170631  0.36624108  0.64566385  1
  In  In65  1  0.69124146  0.48540059  0.47797665  1
  In  In66  1  0.33029962  0.51310119  0.48271072  1
  In  In67  1  0.16721217  0.49759592  0.34563625  1
  In  In68  1  0.52270669  0.64469036  0.47414017  1
  In  In69  1  0.32181645  0.85293583  0.83398904  1
  In  In70  1  0.80326317  0.80400522  0.34797516  1
  In  In71  1  -0.00000613  0.47794238  0.17139662  1
  Te  Te72  1  0.09156318  0.06381277  0.07922138  1
  Te  Te73  1  0.06306200  0.09263821  0.41546454  1
  Te  Te74  1  0.07507572  0.09401438  0.76561677  1
  Te  Te75  1  0.08118796  0.40511638  0.07333001  1
  Te  Te76  1  0.05875576  0.41501699  0.40588680  1
  Te  Te77  1  0.09082607  0.42438161  0.74397347  1
  Te  Te78  1  0.07616245  0.76125687  0.08936885  1
  Te  Te79  1  0.08003732  0.76723381  0.41891541  1
  Te  Te80  1  0.07390776  0.74521419  0.72352327  1
  Te  Te81  1  0.43403573  0.08349667  0.07543677  1
  Te  Te82  1  0.42233120  0.09616945  0.42559356  1
  Te  Te83  1  0.40037040  0.07092005  0.76059513  1
  Te  Te84  1  0.42290592  0.41634532  0.10144114  1
  Te  Te85  1  0.41827829  0.43908250  0.38567351  1
  Te  Te86  1  0.40968495  0.42673686  0.76729888  1
  Te  Te87  1  0.40742079  0.74134926  0.11198590  1
  Te  Te88  1  0.44455289  0.75522846  0.40488681  1
  Te  Te89  1  0.41751582  0.75634545  0.75331246  1
  Te  Te90  1  0.75477040  0.05209609  0.08406609  1
  Te  Te91  1  0.73833127  0.10016695  0.42051828  1
  Te  Te92  1  0.75818059  0.08154586  0.73058484  1
  Te  Te93  1  0.73611325  0.40113829  0.08641833  1
  Te  Te94  1  0.78259362  0.38686640  0.40899851  1
  Te  Te95  1  0.74002539  0.44183152  0.74029799  1
  Te  Te96  1  0.74110173  0.75809588  0.10167985  1
  Te  Te97  1  0.72797190  0.73018362  0.45315991  1
  Te  Te98  1  0.73725537  0.74985568  0.73495257  1
  Te  Te99  1  0.06879279  0.25331360  0.24605630  1
  Te  Te100  1  0.08375518  0.26841896  0.56660730  1
  Te  Te101  1  0.07122242  0.25894979  0.89581177  1
  Te  Te102  1  0.07554778  0.58680716  0.25730097  1
  Te  Te103  1  0.03912899  0.58167323  0.59158142  1
  Te  Te104  1  0.08292223  0.58966186  0.93358762  1
  Te  Te105  1  0.08934190  0.91968756  0.23295834  1
  Te  Te106  1  0.06068040  0.91176437  0.58540888  1
  Te  Te107  1  0.08444468  0.91519214  0.90743108  1
  Te  Te108  1  0.40937845  0.25981564  0.25544172  1
  Te  Te109  1  0.42294506  0.24523302  0.59567578  1
  Te  Te110  1  0.42958626  0.24607400  0.93139737  1
  Te  Te111  1  0.39689507  0.53553437  0.26173482  1
  Te  Te112  1  0.42459051  0.58377533  0.58404248  1
  Te  Te113  1  0.43271933  0.59116145  0.90606971  1
  Te  Te114  1  0.42684006  0.90874048  0.25517077  1
  Te  Te115  1  0.41398207  0.92897780  0.58413148  1
  Te  Te116  1  0.42158618  0.89478397  0.94122058  1
  Te  Te117  1  0.74358440  0.23881919  0.25689452  1
  Te  Te118  1  0.79485888  0.25323245  0.61393331  1
  Te  Te119  1  0.75123682  0.26359448  0.90934025  1
  Te  Te120  1  0.78582758  0.57108636  0.27336041  1
  Te  Te121  1  0.74966305  0.59396519  0.56385084  1
  Te  Te122  1  0.73789189  0.60073633  0.94001673  1
  Te  Te123  1  0.69834163  0.88499148  0.27737342  1
  Te  Te124  1  0.76898535  0.91164824  0.58170751  1
  Te  Te125  1  0.74431664  0.89891090  0.89792298  1
  Te  Te126  1  0.25448673  0.23891240  0.08172252  1
  Te  Te127  1  0.26066700  0.27381131  0.40761925  1
  Te  Te128  1  0.25322724  0.26703778  0.73225653  1
  Te  Te129  1  0.24074355  0.56106631  0.07827825  1
  Te  Te130  1  0.25708388  0.61442434  0.39871286  1
  Te  Te131  1  0.25413911  0.57504428  0.75465158  1
  Te  Te132  1  0.25446912  0.91595204  0.11070881  1
  Te  Te133  1  0.25502170  0.91618437  0.41660182  1
  Te  Te134  1  0.24106759  0.89501804  0.71957354  1
  Te  Te135  1  0.58300931  0.23722273  0.08565879  1
  Te  Te136  1  0.58559781  0.26800796  0.42411758  1
  Te  Te137  1  0.59768488  0.26107532  0.72529342  1
  Te  Te138  1  0.58695217  0.58734923  0.09338155  1
  Te  Te139  1  0.59451669  0.55021857  0.38418603  1
  Te  Te140  1  0.59024953  0.61530042  0.73778197  1
  Te  Te141  1  0.59292690  0.86914204  0.08224383  1
  Te  Te142  1  0.63466060  0.91267240  0.42069139  1
  Te  Te143  1  0.57431180  0.90105162  0.74904445  1
  Te  Te144  1  0.92547860  0.24708467  0.08551133  1
  Te  Te145  1  0.91681193  0.30188016  0.41868775  1
  Te  Te146  1  0.92010564  0.25945412  0.73063405  1
  Te  Te147  1  0.92979078  0.58440170  0.08634442  1
  Te  Te148  1  0.87619403  0.60917904  0.42263324  1
  Te  Te149  1  0.90579613  0.58826457  0.76895985  1
  Te  Te150  1  0.89976587  0.92619372  0.10227805  1
  Te  Te151  1  0.90462108  0.90153720  0.41673987  1
  Te  Te152  1  0.90888188  0.92271242  0.75748813  1
  Te  Te153  1  0.23309698  0.08342838  0.25695683  1
  Te  Te154  1  0.24032602  0.07455049  0.58823317  1
  Te  Te155  1  0.24797474  0.08351151  0.91651364  1
  Te  Te156  1  0.26075918  0.43597000  0.24691320  1
  Te  Te157  1  0.23371484  0.41676143  0.55242357  1
  Te  Te158  1  0.25409520  0.44475806  0.92729830  1
  Te  Te159  1  0.27211736  0.74369409  0.23407467  1
  Te  Te160  1  0.23490442  0.74067911  0.56635575  1
  Te  Te161  1  0.25418220  0.74287136  0.91482136  1
  Te  Te162  1  0.58020294  0.06284353  0.25800368  1
  Te  Te163  1  0.58732608  0.08198324  0.56965479  1
  Te  Te164  1  0.58855961  0.08749596  0.91451876  1
  Te  Te165  1  0.60404626  0.42260713  0.27312096  1
  Te  Te166  1  0.59167989  0.41711053  0.58050996  1
  Te  Te167  1  0.59205933  0.41031038  0.91985092  1
  Te  Te168  1  0.59897344  0.70631947  0.25141734  1
  Te  Te169  1  0.60119968  0.75527794  0.54463312  1
  Te  Te170  1  0.60029733  0.78051207  0.95336999  1
  Te  Te171  1  0.89520994  0.07722989  0.26007237  1
  Te  Te172  1  0.92688199  0.11216788  0.56612126  1
  Te  Te173  1  0.92160038  0.10682270  0.92170964  1
  Te  Te174  1  0.88639859  0.44074905  0.26216604  1
  Te  Te175  1  0.86103858  0.38084621  0.54886266  1
  Te  Te176  1  0.91312382  0.41231701  0.93036431  1
  Te  Te177  1  0.91934806  0.77026156  0.24964888  1
  Te  Te178  1  0.95882582  0.72162357  0.59875723  1
  Te  Te179  1  0.92595462  0.73905425  0.93618592  1
