# generated using pymatgen
data_In2Te3
_symmetry_space_group_name_H-M   'P 1'
_cell_length_a   18.92735531
_cell_length_b   18.93710937
_cell_length_c   18.92519623
_cell_angle_alpha   89.75832388
_cell_angle_beta   90.12782029
_cell_angle_gamma   89.93772749
_symmetry_Int_Tables_number   1
_chemical_formula_structural   In2Te3
_chemical_formula_sum   'In72 Te108'
_cell_volume   6783.26538439
_cell_formula_units_Z   36
loop_
 _symmetry_equiv_pos_site_id
 _symmetry_equiv_pos_as_xyz
  1  'x, y, z'
loop_
 _atom_site_type_symbol
 _atom_site_label
 _atom_site_symmetry_multiplicity
 _atom_site_fract_x
 _atom_site_fract_y
 _atom_site_fract_z
 _atom_site_occupancy
  In  In0  1  0.01326941  0.67680358  0.31679014  1
  In  In1  1  0.16705944  0.80782761  -0.00324593  1
  In  In2  1  -0.00996464  0.81880455  0.83765049  1
  In  In3  1  0.19007816  0.64759072  0.48838420  1
  In  In4  1  0.82874351  0.49347224  -0.00508408  1
  In  In5  1  -0.00284163  0.36021278  0.30923476  1
  In  In6  1  0.51031590  0.35870089  0.17027892  1
  In  In7  1  0.17936081  0.17050951  0.34369770  1
  In  In8  1  0.19751628  0.50549996  0.35181250  1
  In  In9  1  0.16986221  0.35565577  0.15670785  1
  In  In10  1  0.16201001  0.00429082  0.17437798  1
  In  In11  1  0.34805930  0.36548042  0.66100291  1
  In  In12  1  0.19288771  0.32393004  0.53240722  1
  In  In13  1  0.65801719  0.81717005  0.83553782  1
  In  In14  1  0.63903755  0.80355107  0.51388824  1
  In  In15  1  0.82383552  0.81475348  0.33165215  1
  In  In16  1  0.50230792  0.66046179  0.83545855  1
  In  In17  1  0.47772284  0.49229424  0.35735122  1
  In  In18  1  0.50795138  -0.01515452  0.84345442  1
  In  In19  1  0.50721351  0.50042887  0.65752570  1
  In  In20  1  0.33008214  0.18702619  0.16860653  1
  In  In21  1  0.34753957  0.51545845  0.16109296  1
  In  In22  1  0.68137996  0.31742550  0.33988256  1
  In  In23  1  0.35280208  0.80892299  0.50493361  1
  In  In24  1  -0.01515625  0.52473121  0.15050236  1
  In  In25  1  -0.00581691  0.02279089  0.00595892  1
  In  In26  1  -0.00372615  0.17637280  0.85201542  1
  In  In27  1  -0.02084127  0.19690277  0.13620034  1
  In  In28  1  0.15590093  0.35210235  0.84294702  1
  In  In29  1  0.84964108  0.33034259  0.52130660  1
  In  In30  1  0.00004174  0.47683729  0.50593504  1
  In  In31  1  0.66125105  0.15955373  0.16799176  1
  In  In32  1  0.79984454  0.53578852  0.31288781  1
  In  In33  1  0.68222108  0.48183831  0.79585131  1
  In  In34  1  0.16495721  0.15233021  0.69505236  1
  In  In35  1  0.02374521  0.15804895  0.49645112  1
  In  In36  1  0.65717491  0.67528457  0.01099951  1
  In  In37  1  0.50471814  0.52762997  0.00439348  1
  In  In38  1  0.82365597  0.68453281  0.84474934  1
  In  In39  1  0.33884910  0.65582301  0.67528544  1
  In  In40  1  0.65931431  0.49997289  0.50470752  1
  In  In41  1  0.32808117  0.83533597  0.82717407  1
  In  In42  1  0.18256937  0.51444063  -0.01505659  1
  In  In43  1  0.65628663  -0.01006654  0.00351325  1
  In  In44  1  0.64801157  0.83293481  0.15073671  1
  In  In45  1  0.38234558  0.77083775  0.17212441  1
  In  In46  1  0.67547402  0.18642022  0.85374182  1
  In  In47  1  0.51006879  0.16031523  0.31909960  1
  In  In48  1  -0.04913425  -0.02523517  0.66795264  1
  In  In49  1  0.68310355  -0.00100339  0.65422921  1
  In  In50  1  0.20137331  0.82492474  0.31006789  1
  In  In51  1  0.80020046  -0.00937140  0.47615721  1
  In  In52  1  0.16482633  -0.02575269  0.49625026  1
  In  In53  1  0.66662822  0.35686426  0.00913408  1
  In  In54  1  0.16403825  0.48693993  0.67549456  1
  In  In55  1  -0.00924955  0.65605559  0.70527351  1
  In  In56  1  0.36041007  0.16594876  0.49746178  1
  In  In57  1  0.82834990  -0.01147692  0.16773507  1
  In  In58  1  0.83945725  0.16683073  0.31705212  1
  In  In59  1  0.84214982  0.64789172  0.50565000  1
  In  In60  1  0.33645715  -0.01817690  0.62915520  1
  In  In61  1  0.33700221  0.17609070  0.83775592  1
  In  In62  1  0.48321318  0.33274307  0.82425034  1
  In  In63  1  0.84843050  0.16287419  0.68166674  1
  In  In64  1  0.50974932  0.82750460  0.33179436  1
  In  In65  1  -0.01990668  0.83053523  0.48974385  1
  In  In66  1  0.01363223  0.81567556  0.14800735  1
  In  In67  1  0.31436515  0.02550135  0.01558378  1
  In  In68  1  0.51165596  0.15021213  0.69654245  1
  In  In69  1  -0.00003243  0.36239180  0.69535694  1
  In  In70  1  0.17897827  -0.00668495  0.83075201  1
  In  In71  1  0.66219600  0.16740091  0.49159591  1
  Te  Te72  1  0.09227448  0.10614815  0.08554912  1
  Te  Te73  1  0.08589156  0.06211978  0.39851020  1
  Te  Te74  1  0.05508158  0.06440540  0.74928229  1
  Te  Te75  1  0.07295601  0.43317202  0.06786466  1
  Te  Te76  1  0.09830048  0.39430907  0.42606744  1
  Te  Te77  1  0.05545790  0.46630977  0.79437372  1
  Te  Te78  1  0.08560222  0.71141689  0.07373467  1
  Te  Te79  1  0.09508378  0.75574500  0.41865183  1
  Te  Te80  1  0.09436962  0.73677594  0.77216753  1
  Te  Te81  1  0.41676378  0.09251986  0.09575627  1
  Te  Te82  1  0.42619726  0.07512556  0.40645779  1
  Te  Te83  1  0.39457121  0.06472265  0.75091384  1
  Te  Te84  1  0.41770326  0.41880696  0.06507539  1
  Te  Te85  1  0.38254293  0.43020279  0.45052900  1
  Te  Te86  1  0.40925854  0.45261225  0.76726440  1
  Te  Te87  1  0.44086172  0.71506459  0.04991482  1
  Te  Te88  1  0.40893864  0.73195300  0.39160720  1
  Te  Te89  1  0.42864509  0.75790065  0.74387563  1
  Te  Te90  1  0.75471512  0.08333457  0.07554623  1
  Te  Te91  1  0.72818287  0.08601289  0.38157700  1
  Te  Te92  1  0.74779787  0.08323511  0.76223145  1
  Te  Te93  1  0.72959676  0.45560901  0.09999351  1
  Te  Te94  1  0.77382738  0.41258569  0.41656842  1
  Te  Te95  1  0.78329041  0.38567530  0.75638639  1
  Te  Te96  1  0.74941790  0.78392179  0.05271336  1
  Te  Te97  1  0.74282457  0.72852849  0.42418767  1
  Te  Te98  1  0.74621143  0.75232223  0.73861817  1
  Te  Te99  1  0.08519984  0.24978691  0.24934988  1
  Te  Te100  1  0.06743554  0.25243136  0.60898793  1
  Te  Te101  1  0.08556642  0.25875858  0.93261796  1
  Te  Te102  1  0.09217884  0.56312907  0.25749963  1
  Te  Te103  1  0.08126619  0.58061686  0.58150966  1
  Te  Te104  1  0.11723846  0.58824909  0.87192430  1
  Te  Te105  1  0.08193614  0.90140859  0.25332245  1
  Te  Te106  1  0.06491851  0.90847762  0.59033514  1
  Te  Te107  1  0.08409709  0.92158916  0.92429495  1
  Te  Te108  1  0.42336799  0.26944006  0.25720273  1
  Te  Te109  1  0.42540225  0.24479264  0.60894730  1
  Te  Te110  1  0.43144107  0.24201707  0.92673069  1
  Te  Te111  1  0.45686608  0.57719335  0.23692359  1
  Te  Te112  1  0.43228969  0.59937216  0.57038993  1
  Te  Te113  1  0.39825731  0.61167082  0.93639600  1
  Te  Te114  1  0.41297758  0.89478500  0.24105894  1
  Te  Te115  1  0.44464610  0.90436803  0.57069353  1
  Te  Te116  1  0.39580532  0.92878758  0.92643328  1
  Te  Te117  1  0.76316372  0.25963717  0.22514443  1
  Te  Te118  1  0.75016410  0.24081234  0.59165181  1
  Te  Te119  1  0.76420553  0.26419997  0.94459341  1
  Te  Te120  1  0.71319937  0.62592610  0.23644764  1
  Te  Te121  1  0.75207973  0.57207366  0.59268778  1
  Te  Te122  1  0.72144024  0.58114037  0.90940165  1
  Te  Te123  1  0.73401833  0.91028262  0.25559422  1
  Te  Te124  1  0.75562935  0.89073184  0.57825689  1
  Te  Te125  1  0.74431049  0.89576507  0.92929133  1
  Te  Te126  1  0.24914531  0.26612903  0.07370994  1
  Te  Te127  1  0.27357824  0.26301214  0.41743341  1
  Te  Te128  1  0.25066317  0.26962239  0.74075525  1
  Te  Te129  1  0.23988697  0.59648599  0.09576418  1
  Te  Te130  1  0.29155949  0.61751335  0.38424717  1
  Te  Te131  1  0.24180616  0.58129735  0.76056780  1
  Te  Te132  1  0.24032965  0.91149568  0.08494059  1
  Te  Te133  1  0.27202564  0.90934971  0.41405015  1
  Te  Te134  1  0.23934062  0.90834108  0.72363767  1
  Te  Te135  1  0.57856599  0.25580722  0.08258538  1
  Te  Te136  1  0.56762622  0.26308086  0.42407913  1
  Te  Te137  1  0.59667873  0.26395834  0.74873252  1
  Te  Te138  1  0.60649074  0.56983092  0.10738882  1
  Te  Te139  1  0.56430688  0.59204600  0.43579754  1
  Te  Te140  1  0.59874374  0.59501592  0.73778272  1
  Te  Te141  1  0.55445425  0.93360954  0.09429383  1
  Te  Te142  1  0.58764649  0.90948639  0.42697935  1
  Te  Te143  1  0.58511310  0.91399444  0.73749021  1
  Te  Te144  1  0.89523869  0.28278228  0.04993730  1
  Te  Te145  1  0.92845478  0.25134416  0.40910051  1
  Te  Te146  1  0.89548457  0.27691368  0.77310888  1
  Te  Te147  1  0.90411004  0.60704639  0.05602839  1
  Te  Te148  1  0.93400435  0.57287734  0.40530651  1
  Te  Te149  1  0.89812881  0.57278299  0.78151365  1
  Te  Te150  1  0.91845711  0.90995098  0.07432055  1
  Te  Te151  1  0.90988704  0.92512800  0.39396493  1
  Te  Te152  1  0.88453394  0.90165742  0.77477913  1
  Te  Te153  1  0.26312990  0.07794181  0.25978010  1
  Te  Te154  1  0.23442159  0.09192095  0.57386539  1
  Te  Te155  1  0.22715257  0.10665958  0.91659309  1
  Te  Te156  1  0.26929118  0.41734018  0.25277593  1
  Te  Te157  1  0.27441343  0.45658898  0.56028504  1
  Te  Te158  1  0.26526078  0.41215688  0.91873387  1
  Te  Te159  1  0.24563116  0.72481686  0.21119825  1
  Te  Te160  1  0.24373672  0.74336790  0.59107986  1
  Te  Te161  1  0.27012603  0.73596778  0.91947838  1
  Te  Te162  1  0.56661573  0.06099232  0.22422426  1
  Te  Te163  1  0.57600984  0.07742592  0.57961715  1
  Te  Te164  1  0.57394489  0.09387353  0.92286920  1
  Te  Te165  1  0.59565386  0.42434223  0.27641300  1
  Te  Te166  1  0.58919924  0.40144349  0.58834079  1
  Te  Te167  1  0.57848073  0.42862022  0.90422109  1
  Te  Te168  1  0.60158806  0.73389912  0.25422221  1
  Te  Te169  1  0.55846671  0.69102065  0.56671716  1
  Te  Te170  1  0.55268420  0.76556162  0.93793791  1
  Te  Te171  1  0.93072941  0.08365296  0.23031388  1
  Te  Te172  1  0.90412821  0.08194167  0.55787754  1
  Te  Te173  1  0.89841673  0.08984297  0.91782964  1
  Te  Te174  1  0.89278771  0.43596169  0.23318232  1
  Te  Te175  1  0.89797461  0.44329853  0.61178547  1
  Te  Te176  1  0.93169357  0.39716171  0.95386280  1
  Te  Te177  1  0.90512180  0.73793662  0.23024535  1
  Te  Te178  1  0.91998742  0.74198757  0.59635292  1
  Te  Te179  1  0.93087538  0.72816962  0.93950001  1
