# generated using pymatgen
data_In2Te3
_symmetry_space_group_name_H-M   'P 1'
_cell_length_a   18.78676234
_cell_length_b   18.79233287
_cell_length_c   18.79083829
_cell_angle_alpha   90.04602779
_cell_angle_beta   89.95793342
_cell_angle_gamma   89.89798278
_symmetry_Int_Tables_number   1
_chemical_formula_structural   In2Te3
_chemical_formula_sum   'In72 Te108'
_cell_volume   6634.03634893
_cell_formula_units_Z   36
loop_
 _symmetry_equiv_pos_site_id
 _symmetry_equiv_pos_as_xyz
  1  'x, y, z'
loop_
 _atom_site_type_symbol
 _atom_site_label
 _atom_site_symmetry_multiplicity
 _atom_site_fract_x
 _atom_site_fract_y
 _atom_site_fract_z
 _atom_site_occupancy
  In  In0  1  0.83739768  0.33104389  0.82279219  1
  In  In1  1  0.50654384  0.62441946  0.15342980  1
  In  In2  1  0.14938829  -0.00484757  0.86375931  1
  In  In3  1  0.32705169  -0.00609937  0.36209506  1
  In  In4  1  0.34239833  0.66572535  -0.02126650  1
  In  In5  1  0.15459836  0.15676638  0.35050766  1
  In  In6  1  0.52637101  0.51497592  0.00892931  1
  In  In7  1  0.16627479  0.67933852  0.82531217  1
  In  In8  1  0.71202575  0.01278919  0.68090992  1
  In  In9  1  0.14391243  0.67613198  0.49944587  1
  In  In10  1  0.50837743  0.34715013  0.83480888  1
  In  In11  1  -0.00869426  0.34388505  -0.00951712  1
  In  In12  1  0.00109267  0.33739448  0.34588783  1
  In  In13  1  0.51883082  0.51274842  0.68285188  1
  In  In14  1  0.30668584  0.81903000  0.49438006  1
  In  In15  1  0.84252396  0.51236881  0.64612399  1
  In  In16  1  0.16315175  0.18799946  0.69359785  1
  In  In17  1  0.52441469  0.19016398  0.64879239  1
  In  In18  1  0.51596309  0.35123563  0.17242105  1
  In  In19  1  0.15786822  -0.00481927  0.49169730  1
  In  In20  1  -0.02919761  0.32487048  0.69820010  1
  In  In21  1  0.33718798  0.81851182  0.82248333  1
  In  In22  1  -0.01880419  0.82957677  0.17583323  1
  In  In23  1  0.82588059  0.67981844  0.15698544  1
  In  In24  1  0.67320889  0.65672863  0.65909242  1
  In  In25  1  0.32542115  0.51389873  0.48867726  1
  In  In26  1  0.80473167  0.36314417  0.48260613  1
  In  In27  1  0.32108033  0.81403466  0.17229313  1
  In  In28  1  0.51146275  0.65712324  0.48644462  1
  In  In29  1  0.67027054  0.66925509  0.32929608  1
  In  In30  1  0.64247484  0.50401578  0.14817400  1
  In  In31  1  0.15699799  0.34095824  0.49443322  1
  In  In32  1  0.50226384  0.81213942  0.69834762  1
  In  In33  1  0.52684791  -0.00293708  0.17257067  1
  In  In34  1  0.69774669  0.14201935  0.46549435  1
  In  In35  1  0.36500391  0.16187264  0.51112561  1
  In  In36  1  0.17497183  0.34276828  0.84868185  1
  In  In37  1  -0.01054820  0.51647608  0.17883164  1
  In  In38  1  -0.01121328  0.82923178  0.84648641  1
  In  In39  1  -0.02993774  0.16750001  0.84401914  1
  In  In40  1  0.69633039  0.84001145  0.16642848  1
  In  In41  1  0.84891191  -0.01195446  0.17469746  1
  In  In42  1  0.32835986  0.18751522  0.16006203  1
  In  In43  1  0.52827785  0.33355886  0.48920034  1
  In  In44  1  0.32185376  0.15368850  0.84061159  1
  In  In45  1  0.33876659  0.00298306  0.66515119  1
  In  In46  1  0.66700431  0.18634362  0.17753489  1
  In  In47  1  0.14203768  -0.00340211  0.16399319  1
  In  In48  1  -0.03044655  0.53198175  0.47393585  1
  In  In49  1  0.68348973  -0.02006240  -0.00243224  1
  In  In50  1  0.34117123  0.34054653  0.32007069  1
  In  In51  1  0.51037032  -0.00072021  0.84706679  1
  In  In52  1  -0.01439502  0.68255968  0.00844629  1
  In  In53  1  -0.01519170  0.52271167  0.80395540  1
  In  In54  1  -0.01937619  0.14941352  0.49933206  1
  In  In55  1  -0.01189512  0.14807834  0.18510362  1
  In  In56  1  0.14937917  0.66610098  0.18205916  1
  In  In57  1  0.15691554  0.82170240  0.65676864  1
  In  In58  1  0.33600242  -0.01679711  -0.02505413  1
  In  In59  1  0.52308103  0.15082385  0.01717392  1
  In  In60  1  0.67666154  0.80700594  0.84290925  1
  In  In61  1  0.16500357  0.48918331  0.00137069  1
  In  In62  1  0.81858630  0.34406479  0.17720305  1
  In  In63  1  0.83696627  0.15934130  -0.01920467  1
  In  In64  1  0.50844607  0.82765812  0.34511519  1
  In  In65  1  0.69854279  0.83167349  0.49656366  1
  In  In66  1  0.33201387  0.50728510  0.19279455  1
  In  In67  1  0.67886336  0.33770145  0.67254256  1
  In  In68  1  -0.03741343  -0.00096955  0.66921336  1
  In  In69  1  0.32266837  0.32639097  -0.00061309  1
  In  In70  1  0.50964415  -0.01404315  0.49072669  1
  In  In71  1  0.17031946  0.52756650  0.65154114  1
  Te  Te72  1  0.06036584  0.08157092  0.07584305  1
  Te  Te73  1  0.05109927  0.05643451  0.39971141  1
  Te  Te74  1  0.07905301  0.07598571  0.74988013  1
  Te  Te75  1  0.07453637  0.41498567  0.09805382  1
  Te  Te76  1  0.08678782  0.44544816  0.41227861  1
  Te  Te77  1  0.08729795  0.41577118  0.74609470  1
  Te  Te78  1  0.09035573  0.76219170  0.08218096  1
  Te  Te79  1  0.04600347  0.76676504  0.43041581  1
  Te  Te80  1  0.05810663  0.74072592  0.73805060  1
  Te  Te81  1  0.41167250  0.07047285  0.08409324  1
  Te  Te82  1  0.44081763  0.08963875  0.40114300  1
  Te  Te83  1  0.43235278  0.09555210  0.74487388  1
  Te  Te84  1  0.41459207  0.42113607  0.08140815  1
  Te  Te85  1  0.42634538  0.42401591  0.41383459  1
  Te  Te86  1  0.42017170  0.41990059  0.74356502  1
  Te  Te87  1  0.42095612  0.73749077  0.08804327  1
  Te  Te88  1  0.40499088  0.73702011  0.40842064  1
  Te  Te89  1  0.41727019  0.71021838  0.76055145  1
  Te  Te90  1  0.75021103  0.08253815  0.09453005  1
  Te  Te91  1  0.78093025  0.04681345  0.38773182  1
  Te  Te92  1  0.76839021  0.10768994  0.77675984  1
  Te  Te93  1  0.74943318  0.42531158  0.07154710  1
  Te  Te94  1  0.71539044  0.44040465  0.39406675  1
  Te  Te95  1  0.75632905  0.44004650  0.75261180  1
  Te  Te96  1  0.78019474  0.78119059  0.05654614  1
  Te  Te97  1  0.77957103  0.73426254  0.41363935  1
  Te  Te98  1  0.75696734  0.75947890  0.72554289  1
  Te  Te99  1  0.08358213  0.24853855  0.25273119  1
  Te  Te100  1  0.07486015  0.24308326  0.58179951  1
  Te  Te101  1  0.08148718  0.24374326  0.91687994  1
  Te  Te102  1  0.06713609  0.59230272  0.27993116  1
  Te  Te103  1  0.04956976  0.59473796  0.59095034  1
  Te  Te104  1  0.07793311  0.58270800  0.91754662  1
  Te  Te105  1  0.06492049  0.91797408  0.26064636  1
  Te  Te106  1  0.06473992  0.91856717  0.58464048  1
  Te  Te107  1  0.06358786  0.91086418  0.94766170  1
  Te  Te108  1  0.43763469  0.24373746  0.24931653  1
  Te  Te109  1  0.41840220  0.28025585  0.58866649  1
  Te  Te110  1  0.42679899  0.23704522  0.92574544  1
  Te  Te111  1  0.43354940  0.57648986  0.27290662  1
  Te  Te112  1  0.42025176  0.58594543  0.58421612  1
  Te  Te113  1  0.44285763  0.58428347  0.90703490  1
  Te  Te114  1  0.41492057  0.91696999  0.25681199  1
  Te  Te115  1  0.41167460  0.90155980  0.57627792  1
  Te  Te116  1  0.43890810  0.88557238  0.91774414  1
  Te  Te117  1  0.74932951  0.25924520  0.27727922  1
  Te  Te118  1  0.74685370  0.25029086  0.56814123  1
  Te  Te119  1  0.75274289  0.26603739  0.92406738  1
  Te  Te120  1  0.74659007  0.57607660  0.23484463  1
  Te  Te121  1  0.75445416  0.58897429  0.55576180  1
  Te  Te122  1  0.70289263  0.54819097  0.97390092  1
  Te  Te123  1  0.77667734  0.90221894  0.27435760  1
  Te  Te124  1  0.78266163  0.92410956  0.57979885  1
  Te  Te125  1  0.76533468  0.91805600  0.89139501  1
  Te  Te126  1  0.22441822  0.26016474  0.08670568  1
  Te  Te127  1  0.25987663  0.24556808  0.42204628  1
  Te  Te128  1  0.27433834  0.26980270  0.75328098  1
  Te  Te129  1  0.25041997  0.58761939  0.08368981  1
  Te  Te130  1  0.23200472  0.59658560  0.40874913  1
  Te  Te131  1  0.25417294  0.58065656  0.75988306  1
  Te  Te132  1  0.25097412  0.91780757  0.08549123  1
  Te  Te133  1  0.21764117  0.89237637  0.39465631  1
  Te  Te134  1  0.24033226  0.92311495  0.75452540  1
  Te  Te135  1  0.59844121  0.27201566  0.06965878  1
  Te  Te136  1  0.60169762  0.23718278  0.40405210  1
  Te  Te137  1  0.60264296  0.24441500  0.76628882  1
  Te  Te138  1  0.62657408  0.65803262  0.04314251  1
  Te  Te139  1  0.60502128  0.56399742  0.41592841  1
  Te  Te140  1  0.60147381  0.59659850  0.77351794  1
  Te  Te141  1  0.58034084  0.89800368  0.07324150  1
  Te  Te142  1  0.61471043  0.92027516  0.40138025  1
  Te  Te143  1  0.59433002  0.92557875  0.74192636  1
  Te  Te144  1  0.91399943  0.25256915  0.08799852  1
  Te  Te145  1  0.90080576  0.25237025  0.42007983  1
  Te  Te146  1  0.87969204  0.20109067  0.72230331  1
  Te  Te147  1  0.90016413  0.57307636  0.07081950  1
  Te  Te148  1  0.88538999  0.61799402  0.38805817  1
  Te  Te149  1  0.88235173  0.61482881  0.74898618  1
  Te  Te150  1  0.91336667  0.90738680  0.06768847  1
  Te  Te151  1  0.92775900  0.86982136  0.44958379  1
  Te  Te152  1  0.89259700  0.89994655  0.75446257  1
  Te  Te153  1  0.25394171  0.08266247  0.25787708  1
  Te  Te154  1  0.24143916  0.09373107  0.58047843  1
  Te  Te155  1  0.23287488  0.09455797  0.94679600  1
  Te  Te156  1  0.23501907  0.41049317  0.24603008  1
  Te  Te157  1  0.25207929  0.41671293  0.58552373  1
  Te  Te158  1  0.27637136  0.44011652  0.90831164  1
  Te  Te159  1  0.24577545  0.73600744  0.27142675  1
  Te  Te160  1  0.25784686  0.72422971  0.60137961  1
  Te  Te161  1  0.23813453  0.76700357  0.92707023  1
  Te  Te162  1  0.60586136  0.07971441  0.26249788  1
  Te  Te163  1  0.59695870  0.07255594  0.58197327  1
  Te  Te164  1  0.61388608  0.08937864  0.91170057  1
  Te  Te165  1  0.61025938  0.41739645  0.26922664  1
  Te  Te166  1  0.60111967  0.43081159  0.58142452  1
  Te  Te167  1  0.60731023  0.42810431  0.91210102  1
  Te  Te168  1  0.57998798  0.75024352  0.23496441  1
  Te  Te169  1  0.57858946  0.76739536  0.57077516  1
  Te  Te170  1  0.57378208  0.73350867  0.91743186  1
  Te  Te171  1  0.88762054  0.09043478  0.28198129  1
  Te  Te172  1  0.87711090  0.05835258  0.55835330  1
  Te  Te173  1  0.91208680  0.05080905  0.91389650  1
  Te  Te174  1  0.90382419  0.42948936  0.27149105  1
  Te  Te175  1  0.93089064  0.40575443  0.57222839  1
  Te  Te176  1  0.90767772  0.43975691  0.90757857  1
  Te  Te177  1  0.92534050  0.71973849  0.26331197  1
  Te  Te178  1  0.93303750  0.75247197  0.53719706  1
  Te  Te179  1  0.89211802  0.72936846  0.90505319  1
