# generated using pymatgen
data_In2Te3
_symmetry_space_group_name_H-M   'P 1'
_cell_length_a   18.88549504
_cell_length_b   18.87550352
_cell_length_c   18.87816046
_cell_angle_alpha   89.99322011
_cell_angle_beta   90.01821042
_cell_angle_gamma   89.99257515
_symmetry_Int_Tables_number   1
_chemical_formula_structural   In2Te3
_chemical_formula_sum   'In72 Te108'
_cell_volume   6729.55836005
_cell_formula_units_Z   36
loop_
 _symmetry_equiv_pos_site_id
 _symmetry_equiv_pos_as_xyz
  1  'x, y, z'
loop_
 _atom_site_type_symbol
 _atom_site_label
 _atom_site_symmetry_multiplicity
 _atom_site_fract_x
 _atom_site_fract_y
 _atom_site_fract_z
 _atom_site_occupancy
  In  In0  1  0.68695561  0.50029353  0.13331221  1
  In  In1  1  0.86731126  0.17242337  0.66139341  1
  In  In2  1  0.32132238  -0.00464153  0.32105795  1
  In  In3  1  0.48658509  0.85453697  0.01050586  1
  In  In4  1  0.65923002  0.66980261  0.32597175  1
  In  In5  1  0.32067571  0.64888300  0.68442507  1
  In  In6  1  -0.00135620  0.16885620  0.16907101  1
  In  In7  1  0.48336682  0.84151077  0.34143865  1
  In  In8  1  0.32858575  0.48182614  0.82998974  1
  In  In9  1  0.83208168  0.33612950  0.50242981  1
  In  In10  1  0.15812203  0.00674052  0.83147302  1
  In  In11  1  0.33417718  0.51128210  0.16446050  1
  In  In12  1  0.18584270  0.15344915  0.33258179  1
  In  In13  1  0.15092148  0.85032179  0.33003849  1
  In  In14  1  0.85299025  0.85115352  0.67718049  1
  In  In15  1  0.00343700  0.67218957  -0.00136234  1
  In  In16  1  0.86850125  0.47522569  0.32297228  1
  In  In17  1  0.16984940  0.66539787  0.48583343  1
  In  In18  1  0.66744722  0.18605755  0.14467495  1
  In  In19  1  0.49772568  0.00355557  0.51549436  1
  In  In20  1  0.83043174  0.00695007  0.14995841  1
  In  In21  1  0.33883213  0.65423776  0.00101148  1
  In  In22  1  -0.01611696  0.48784625  0.50632681  1
  In  In23  1  0.16612442  0.65636309  0.16023227  1
  In  In24  1  0.67161657  0.01412730  0.67886665  1
  In  In25  1  0.17274658  0.80296208  0.00043297  1
  In  In26  1  0.69299364  0.33332725  0.67413895  1
  In  In27  1  0.65304578  0.87851578  0.13823030  1
  In  In28  1  0.86648743  0.87617320  0.37121189  1
  In  In29  1  0.34901189  0.32917639  -0.01060846  1
  In  In30  1  0.51910043  0.63996450  0.17116670  1
  In  In31  1  0.01064313  0.34420915  -0.00354176  1
  In  In32  1  0.65328832  0.16633637  0.85515713  1
  In  In33  1  0.16894606  0.32899525  0.81333081  1
  In  In34  1  0.66822921  0.63098207  0.68724553  1
  In  In35  1  0.01440456  0.67379901  0.34721267  1
  In  In36  1  0.49410448  0.32905749  0.83075168  1
  In  In37  1  0.17442265  0.18741729  0.01572233  1
  In  In38  1  0.82129272  0.84621210  0.00477119  1
  In  In39  1  0.16810399  0.50691918  0.32724249  1
  In  In40  1  0.83011125  0.48781020  -0.02448323  1
  In  In41  1  0.68024817  0.50941186  0.51202536  1
  In  In42  1  0.15800332  0.00762535  0.16743906  1
  In  In43  1  0.15258694  0.17039017  0.67945941  1
  In  In44  1  0.33442630  0.31888100  0.32588394  1
  In  In45  1  0.48592004  0.47784533  0.32586974  1
  In  In46  1  0.14311323  -0.00202873  0.50566391  1
  In  In47  1  0.35826969  0.02155881  0.69873342  1
  In  In48  1  0.16430331  0.35299690  0.59078714  1
  In  In49  1  0.49242305  0.31639001  0.15438009  1
  In  In50  1  0.85512473  0.16403847  -0.04783005  1
  In  In51  1  0.80736373  0.67214629  0.52535963  1
  In  In52  1  0.83654252  0.68669711  0.17178997  1
  In  In53  1  0.67916482  0.02885418  0.29519242  1
  In  In54  1  0.16301863  0.85354579  0.65271545  1
  In  In55  1  0.83997930  0.65285084  0.81191451  1
  In  In56  1  0.66084712  0.84446920  0.52233410  1
  In  In57  1  -0.00417385  0.65570282  0.66696331  1
  In  In58  1  0.67308865  0.85135170  0.84602312  1
  In  In59  1  0.15881515  0.65195439  0.85659670  1
  In  In60  1  0.82220035  0.17221166  0.35037457  1
  In  In61  1  0.51656930  0.66616674  0.83046259  1
  In  In62  1  0.64998927  0.30723206  0.33006351  1
  In  In63  1  0.31380475  0.83412067  0.18318055  1
  In  In64  1  0.65847890  0.48004483  0.84486879  1
  In  In65  1  0.32959269  0.16453230  0.50290306  1
  In  In66  1  0.46172589  0.65077452  0.50945475  1
  In  In67  1  -0.00251026  0.85353481  0.81475191  1
  In  In68  1  0.35972493  0.02854967  0.00261929  1
  In  In69  1  0.49928771  0.31167794  0.50895505  1
  In  In70  1  -0.00103945  0.33685881  0.31113409  1
  In  In71  1  0.51465165  0.83232764  0.65004754  1
  Te  Te72  1  0.07288919  0.08369358  0.06701951  1
  Te  Te73  1  0.07800452  0.07218170  0.39510462  1
  Te  Te74  1  0.05346059  0.08904277  0.76032774  1
  Te  Te75  1  0.05317928  0.41322129  0.11875995  1
  Te  Te76  1  0.08035554  0.41607438  0.41456594  1
  Te  Te77  1  0.06953156  0.37902096  0.70948470  1
  Te  Te78  1  0.06953283  0.75966238  0.10443160  1
  Te  Te79  1  0.07447029  0.77700463  0.44092150  1
  Te  Te80  1  0.09226372  0.74962466  0.75051541  1
  Te  Te81  1  0.47160703  0.07851857  0.08440437  1
  Te  Te82  1  0.41393862  0.07741081  0.40987911  1
  Te  Te83  1  0.43256698  0.09854743  0.80363760  1
  Te  Te84  1  0.42697736  0.43131531  0.07751653  1
  Te  Te85  1  0.40547766  0.40573409  0.42999584  1
  Te  Te86  1  0.38421493  0.37860191  0.73577262  1
  Te  Te87  1  0.41105611  0.74267987  0.10073216  1
  Te  Te88  1  0.40256639  0.75715914  0.42902887  1
  Te  Te89  1  0.42508744  0.74786413  0.74139402  1
  Te  Te90  1  0.75619001  0.09961466  0.05726340  1
  Te  Te91  1  0.72960091  0.08260925  0.42186442  1
  Te  Te92  1  0.75997278  0.11156768  0.75457448  1
  Te  Te93  1  0.75509708  0.39367304  0.06119913  1
  Te  Te94  1  0.74278460  0.41758383  0.40612614  1
  Te  Te95  1  0.77031124  0.41132970  0.77454290  1
  Te  Te96  1  0.73076243  0.75471901  0.08555307  1
  Te  Te97  1  0.74384563  0.75959770  0.41697229  1
  Te  Te98  1  0.73931008  0.75860637  0.73691974  1
  Te  Te99  1  0.10331935  0.24890704  0.24319265  1
  Te  Te100  1  0.08756398  0.23136798  0.56199339  1
  Te  Te101  1  0.08464709  0.24392241  0.90706943  1
  Te  Te102  1  0.06261763  0.57727970  0.24076464  1
  Te  Te103  1  0.08742344  0.57373838  0.57806123  1
  Te  Te104  1  0.06337489  0.56021460  0.92201669  1
  Te  Te105  1  0.06149094  0.93091855  0.24689580  1
  Te  Te106  1  0.05179657  0.94670567  0.61470582  1
  Te  Te107  1  0.08752048  0.90690559  0.92500615  1
  Te  Te108  1  0.44271314  0.23797808  0.26854852  1
  Te  Te109  1  0.41413785  0.23384805  0.60187468  1
  Te  Te110  1  0.41796961  0.22404972  0.90804021  1
  Te  Te111  1  0.40937869  0.59620690  0.26658779  1
  Te  Te112  1  0.40286024  0.55271734  0.60284449  1
  Te  Te113  1  0.42507505  0.57064613  0.90914959  1
  Te  Te114  1  0.42476863  0.92714658  0.23012738  1
  Te  Te115  1  0.40200262  0.91468240  0.59140124  1
  Te  Te116  1  0.38741086  0.91043870  0.91838439  1
  Te  Te117  1  0.76235811  0.25978777  0.24081087  1
  Te  Te118  1  0.74956828  0.23343354  0.57442168  1
  Te  Te119  1  0.76479547  0.26118977  0.88481222  1
  Te  Te120  1  0.75957184  0.57997985  0.25533117  1
  Te  Te121  1  0.78105813  0.55470525  0.61768017  1
  Te  Te122  1  0.73817183  0.59629055  0.90671891  1
  Te  Te123  1  0.75852290  0.90616861  0.25205341  1
  Te  Te124  1  0.76437898  0.93488748  0.58428303  1
  Te  Te125  1  0.76129199  0.94811343  0.91437403  1
  Te  Te126  1  0.27751703  0.25508306  0.09581999  1
  Te  Te127  1  0.23675269  0.26061340  0.42930068  1
  Te  Te128  1  0.26693518  0.24292019  0.74267111  1
  Te  Te129  1  0.23245588  0.56365505  0.06114517  1
  Te  Te130  1  0.26211883  0.57423640  0.41720382  1
  Te  Te131  1  0.21912459  0.55790246  0.75374240  1
  Te  Te132  1  0.24721042  0.91638609  0.07444029  1
  Te  Te133  1  0.24936603  0.91556780  0.42611098  1
  Te  Te134  1  0.25549346  0.91879310  0.75429879  1
  Te  Te135  1  0.58277856  0.26309687  0.04798866  1
  Te  Te136  1  0.57675349  0.22025857  0.42114755  1
  Te  Te137  1  0.58668407  0.24742992  0.74186568  1
  Te  Te138  1  0.59133451  0.58316190  0.05873813  1
  Te  Te139  1  0.57694466  0.57593776  0.41384027  1
  Te  Te140  1  0.55898044  0.54528874  0.74655526  1
  Te  Te141  1  0.58304417  0.96971404  0.03881878  1
  Te  Te142  1  0.58910472  0.92422229  0.41389693  1
  Te  Te143  1  0.57379532  0.92430469  0.75559236  1
  Te  Te144  1  0.91513008  0.24361422  0.06877584  1
  Te  Te145  1  0.92999796  0.25333522  0.42014435  1
  Te  Te146  1  0.94697273  0.28158117  0.72275065  1
  Te  Te147  1  0.89793384  0.59116114  0.07219317  1
  Te  Te148  1  0.90168233  0.59306909  0.42486065  1
  Te  Te149  1  0.95426007  0.56584567  0.77763732  1
  Te  Te150  1  0.92395478  0.91734053  0.08064326  1
  Te  Te151  1  0.93742416  0.97685632  0.45037362  1
  Te  Te152  1  0.88290707  0.94859538  0.78911977  1
  Te  Te153  1  0.27101254  0.09584674  0.21839291  1
  Te  Te154  1  0.24937986  0.07006797  0.59630457  1
  Te  Te155  1  0.24810520  0.09340711  0.91884881  1
  Te  Te156  1  0.24867810  0.41119920  0.23953683  1
  Te  Te157  1  0.28307592  0.43446720  0.61497947  1
  Te  Te158  1  0.23606337  0.40944270  0.92640787  1
  Te  Te159  1  0.23581702  0.73656286  0.26877102  1
  Te  Te160  1  0.24991077  0.74559248  0.58871905  1
  Te  Te161  1  0.27131947  0.74508222  0.89944151  1
  Te  Te162  1  0.57159035  0.09568202  0.21863732  1
  Te  Te163  1  0.56937510  0.09252830  0.60677208  1
  Te  Te164  1  0.55082915  0.06729410  0.89934998  1
  Te  Te165  1  0.59187346  0.41942540  0.23491724  1
  Te  Te166  1  0.59314029  0.41085881  0.58508994  1
  Te  Te167  1  0.58222392  0.38988226  0.93601037  1
  Te  Te168  1  0.58085337  0.76804881  0.24003877  1
  Te  Te169  1  0.59062446  0.71497142  0.57889997  1
  Te  Te170  1  0.58092866  0.76327480  0.92883056  1
  Te  Te171  1  0.90677505  0.08508698  0.25608298  1
  Te  Te172  1  0.93060718  0.06178880  0.58168255  1
  Te  Te173  1  0.94639952  0.07735119  0.87390181  1
  Te  Te174  1  0.92204233  0.40648018  0.19828461  1
  Te  Te175  1  0.91951927  0.39748057  0.60781968  1
  Te  Te176  1  0.91258865  0.39349487  0.89490719  1
  Te  Te177  1  0.91778164  0.76505753  0.27306713  1
  Te  Te178  1  0.92180425  0.75676375  0.57836325  1
  Te  Te179  1  0.91038105  0.75491292  0.90317368  1
