# generated using pymatgen
data_In2Te3
_symmetry_space_group_name_H-M   'P 1'
_cell_length_a   18.96763582
_cell_length_b   18.95466398
_cell_length_c   18.96611197
_cell_angle_alpha   90.25527610
_cell_angle_beta   89.93601775
_cell_angle_gamma   89.97170756
_symmetry_Int_Tables_number   1
_chemical_formula_structural   In2Te3
_chemical_formula_sum   'In72 Te108'
_cell_volume   6818.72172884
_cell_formula_units_Z   36
loop_
 _symmetry_equiv_pos_site_id
 _symmetry_equiv_pos_as_xyz
  1  'x, y, z'
loop_
 _atom_site_type_symbol
 _atom_site_label
 _atom_site_symmetry_multiplicity
 _atom_site_fract_x
 _atom_site_fract_y
 _atom_site_fract_z
 _atom_site_occupancy
  In  In0  1  -0.00733230  0.66661172  0.33787363  1
  In  In1  1  0.64516942  0.17065317  0.84325690  1
  In  In2  1  -0.00530698  0.16213908  0.86424295  1
  In  In3  1  0.63643365  0.48295370  0.52753285  1
  In  In4  1  -0.00915201  0.16147774  0.19031194  1
  In  In5  1  0.17597687  0.83151389  0.67001079  1
  In  In6  1  0.49554475  0.52055933  0.00472952  1
  In  In7  1  0.49213321  0.83576207  -0.01468335  1
  In  In8  1  0.17968826  0.19430300  0.68002677  1
  In  In9  1  0.17500832  0.31275026  0.81588532  1
  In  In10  1  0.19609755  -0.00948200  0.81903682  1
  In  In11  1  0.33452124  0.67562133  0.66117887  1
  In  In12  1  0.81983433  0.47943713  0.67690677  1
  In  In13  1  0.47895118  0.34502706  0.82392398  1
  In  In14  1  0.50826755  -0.01324965  0.50027409  1
  In  In15  1  0.32217179  0.49740673  0.54142766  1
  In  In16  1  0.46390552  0.33651991  0.17697280  1
  In  In17  1  0.00150208  0.82690010  0.50754112  1
  In  In18  1  0.67479639  0.51263969  0.16549537  1
  In  In19  1  -0.00665322  0.32903811  0.67562235  1
  In  In20  1  0.17754697  0.13715071  -0.01384425  1
  In  In21  1  0.63454758  0.34852685  0.34477577  1
  In  In22  1  -0.00505993  0.15183323  0.48659302  1
  In  In23  1  0.80644221  0.50650789  0.33704530  1
  In  In24  1  0.65655364  0.34028943  0.00185189  1
  In  In25  1  0.14363274  0.82278746  0.34216294  1
  In  In26  1  0.34362269  0.82256337  0.18021333  1
  In  In27  1  0.14644064  0.50727402  -0.00201996  1
  In  In28  1  0.48957888  0.66909788  0.80754117  1
  In  In29  1  0.82394334  0.68449361  0.13634129  1
  In  In30  1  0.83474010  -0.00220998  0.17012297  1
  In  In31  1  0.68292803  0.13404388  0.21074629  1
  In  In32  1  0.03842714  0.50752571  0.54398704  1
  In  In33  1  0.48945919  0.51452425  0.36656859  1
  In  In34  1  0.31810602  0.30751594  -0.03514477  1
  In  In35  1  0.18661299  0.50506898  0.34613300  1
  In  In36  1  0.01341845  0.52653371  0.84244691  1
  In  In37  1  0.68049753  0.16779255  0.47976161  1
  In  In38  1  0.67498896  -0.02069918  0.01582308  1
  In  In39  1  0.00984492  0.82400970  0.81798812  1
  In  In40  1  0.35561992  0.12897386  0.71502765  1
  In  In41  1  0.00240799  0.00641008  0.66826693  1
  In  In42  1  0.83417809  0.31297782  0.15734076  1
  In  In43  1  0.67480568  -0.02163695  0.65419796  1
  In  In44  1  0.14513400  -0.03850894  0.18148031  1
  In  In45  1  0.35685108  0.83860807  0.48256241  1
  In  In46  1  0.33521579  0.49863013  0.78673241  1
  In  In47  1  0.33096242  -0.00076868  0.31785502  1
  In  In48  1  -0.01392643  0.50062242  0.16788038  1
  In  In49  1  0.85739002  0.66623105  0.51150083  1
  In  In50  1  0.36612613  0.18717910  0.52224745  1
  In  In51  1  0.50985458  -0.00179925  0.16857960  1
  In  In52  1  0.30804458  -0.01107311  -0.02578465  1
  In  In53  1  0.83912227  0.52758130  -0.03287511  1
  In  In54  1  0.53993960  0.15114768  0.02258117  1
  In  In55  1  0.17267099  0.16466681  0.34672913  1
  In  In56  1  0.81710935  0.16789097  0.64450139  1
  In  In57  1  0.81967140  0.84095971  0.33836921  1
  In  In58  1  0.64730041  0.68090373  0.65846591  1
  In  In59  1  0.33200263  0.50736571  0.16869752  1
  In  In60  1  0.66197176  0.84602869  0.82842664  1
  In  In61  1  0.00276589  0.33132651  0.36401846  1
  In  In62  1  0.81781989  0.34863824  0.83667324  1
  In  In63  1  0.01125000  -0.03790713  -0.01355750  1
  In  In64  1  0.31981854  0.32269656  0.33318540  1
  In  In65  1  0.13596366  0.70714109  0.15134538  1
  In  In66  1  0.29852073  0.69343364  -0.02400697  1
  In  In67  1  0.35066502  0.17683695  0.15448355  1
  In  In68  1  0.82412890  0.68019712  0.82110063  1
  In  In69  1  0.63878677  0.82165125  0.50401658  1
  In  In70  1  0.82063726  -0.01271431  0.84909697  1
  In  In71  1  0.51476779  0.66936327  0.18603919  1
  Te  Te72  1  0.08367731  0.06459429  0.08192494  1
  Te  Te73  1  0.08871724  0.06621489  0.41298215  1
  Te  Te74  1  0.08658960  0.08946481  0.76550297  1
  Te  Te75  1  0.07877732  0.41773590  0.09004559  1
  Te  Te76  1  0.10411313  0.41766348  0.43939085  1
  Te  Te77  1  0.08381893  0.41734142  0.75611678  1
  Te  Te78  1  0.05573952  0.81191118  0.09085792  1
  Te  Te79  1  0.08934029  0.71996413  0.44017420  1
  Te  Te80  1  0.07376674  0.73211325  0.71669666  1
  Te  Te81  1  0.41254721  0.06461595  0.07084913  1
  Te  Te82  1  0.40681537  0.07555835  0.42550760  1
  Te  Te83  1  0.47664912  0.04605773  0.70833527  1
  Te  Te84  1  0.39761349  0.41299325  0.06185277  1
  Te  Te85  1  0.39685827  0.41308285  0.42678411  1
  Te  Te86  1  0.46031855  0.45294269  0.71780770  1
  Te  Te87  1  0.41481929  0.73414040  0.07795046  1
  Te  Te88  1  0.45920681  0.77703783  0.38955146  1
  Te  Te89  1  0.38090554  0.76732852  0.77363661  1
  Te  Te90  1  0.74847630  0.09518427  0.08222946  1
  Te  Te91  1  0.79373235  0.11522693  0.39820602  1
  Te  Te92  1  0.74431774  0.08208211  0.75853059  1
  Te  Te93  1  0.76391402  0.42865926  0.07512390  1
  Te  Te94  1  0.74021823  0.41213120  0.43271866  1
  Te  Te95  1  0.72316396  0.38185833  0.73073712  1
  Te  Te96  1  0.74353901  0.78002095  0.06342576  1
  Te  Te97  1  0.75426048  0.74119850  0.43358408  1
  Te  Te98  1  0.74704638  0.77190070  0.72697940  1
  Te  Te99  1  0.08588843  0.25620295  0.26133065  1
  Te  Te100  1  0.07635319  0.24392857  0.58217179  1
  Te  Te101  1  0.09311969  0.25408824  0.93041041  1
  Te  Te102  1  0.08760498  0.58395581  0.24926302  1
  Te  Te103  1  0.12065738  0.59011062  0.63063285  1
  Te  Te104  1  0.09662356  0.61989464  0.91962475  1
  Te  Te105  1  0.04737065  0.91966231  0.28356741  1
  Te  Te106  1  0.09338958  0.92657468  0.58020291  1
  Te  Te107  1  0.12138917  0.89188607  0.90598081  1
  Te  Te108  1  0.42514370  0.22873358  0.27586168  1
  Te  Te109  1  0.46841587  0.25754754  0.60399727  1
  Te  Te110  1  0.44909135  0.24148949  0.93569006  1
  Te  Te111  1  0.40687860  0.59480973  0.26497075  1
  Te  Te112  1  0.42283525  0.60876240  0.56213053  1
  Te  Te113  1  0.39717882  0.58682174  0.90974464  1
  Te  Te114  1  0.43794308  0.90114471  0.26892447  1
  Te  Te115  1  0.41136864  0.92277286  0.59428621  1
  Te  Te116  1  0.41000378  0.91801942  0.89596980  1
  Te  Te117  1  0.73722677  0.26550802  0.26101167  1
  Te  Te118  1  0.72840892  0.26454749  0.58360619  1
  Te  Te119  1  0.74877765  0.24634966  0.92564981  1
  Te  Te120  1  0.74522467  0.61388987  0.25196971  1
  Te  Te121  1  0.75014002  0.58222304  0.58683186  1
  Te  Te122  1  0.73395721  0.58147162  0.88374483  1
  Te  Te123  1  0.73657701  0.92043952  0.24633039  1
  Te  Te124  1  0.75318186  0.90295502  0.55629853  1
  Te  Te125  1  0.77008550  0.87745374  0.94376307  1
  Te  Te126  1  0.24086127  0.24683165  0.07922551  1
  Te  Te127  1  0.24745786  0.25170206  0.44494463  1
  Te  Te128  1  0.30169877  0.28117337  0.72980771  1
  Te  Te129  1  0.24310616  0.59856702  0.08753819  1
  Te  Te130  1  0.27228892  0.58525607  0.43209989  1
  Te  Te131  1  0.23290746  0.59482233  0.73968698  1
  Te  Te132  1  0.25462586  0.90617823  0.09097066  1
  Te  Te133  1  0.24535602  0.91592976  0.40898870  1
  Te  Te134  1  0.27391787  0.93877082  0.70514066  1
  Te  Te135  1  0.58545277  0.26391524  0.11304477  1
  Te  Te136  1  0.56825636  0.24667949  0.42387334  1
  Te  Te137  1  0.55910626  0.24398230  0.74759029  1
  Te  Te138  1  0.60061176  0.60574912  0.07298768  1
  Te  Te139  1  0.60878378  0.57873911  0.42030492  1
  Te  Te140  1  0.58176973  0.57520426  0.73908943  1
  Te  Te141  1  0.58425430  0.88751177  0.09639365  1
  Te  Te142  1  0.62723620  0.94529533  0.42210370  1
  Te  Te143  1  0.56749446  0.91175924  0.73426221  1
  Te  Te144  1  0.93452118  0.24071350  0.08083451  1
  Te  Te145  1  0.89716706  0.24395196  0.42071574  1
  Te  Te146  1  0.90956099  0.23151871  0.75834216  1
  Te  Te147  1  0.92817460  0.59839567  0.06825310  1
  Te  Te148  1  0.92381822  0.55890449  0.42036654  1
  Te  Te149  1  0.91135977  0.57876201  0.74448259  1
  Te  Te150  1  0.92709640  0.90260217  0.09466039  1
  Te  Te151  1  0.92946902  0.91133700  0.40983761  1
  Te  Te152  1  0.91057580  0.91719363  0.74871646  1
  Te  Te153  1  0.24534025  0.08706753  0.22856819  1
  Te  Te154  1  0.26281874  0.10023576  0.59650892  1
  Te  Te155  1  0.28061187  0.10882674  0.87694674  1
  Te  Te156  1  0.24029400  0.40928890  0.23856962  1
  Te  Te157  1  0.26670783  0.40383489  0.63995978  1
  Te  Te158  1  0.24886346  0.42565921  0.90010420  1
  Te  Te159  1  0.24074068  0.74117361  0.25633314  1
  Te  Te160  1  0.25446510  0.75781490  0.56128510  1
  Te  Te161  1  0.25910352  0.78230353  0.86806598  1
  Te  Te162  1  0.57392345  0.06820260  0.28021325  1
  Te  Te163  1  0.59265929  0.08487690  0.58507443  1
  Te  Te164  1  0.58393149  0.05091388  0.91751511  1
  Te  Te165  1  0.56108427  0.44183974  0.23646774  1
  Te  Te166  1  0.52434719  0.40023935  0.57736472  1
  Te  Te167  1  0.57535287  0.42904706  0.91247060  1
  Te  Te168  1  0.57185323  0.74433370  0.29648153  1
  Te  Te169  1  0.53790987  0.73726958  0.57597614  1
  Te  Te170  1  0.58198795  0.74277750  0.90454469  1
  Te  Te171  1  0.89098880  0.09219496  0.27661176  1
  Te  Te172  1  0.90127022  0.06503406  0.57324221  1
  Te  Te173  1  0.90763734  0.06877849  0.94279963  1
  Te  Te174  1  0.90661711  0.40938056  0.26230798  1
  Te  Te175  1  0.91965217  0.41715341  0.57848366  1
  Te  Te176  1  0.92761612  0.41696022  0.91378989  1
  Te  Te177  1  0.90766705  0.74930428  0.24939814  1
  Te  Te178  1  0.93444697  0.74399121  0.61025097  1
  Te  Te179  1  0.92599644  0.74351884  0.90643066  1
