# generated using pymatgen
data_In2Te3
_symmetry_space_group_name_H-M   'P 1'
_cell_length_a   19.00494771
_cell_length_b   18.98636487
_cell_length_c   19.01316856
_cell_angle_alpha   90.01861287
_cell_angle_beta   90.09168440
_cell_angle_gamma   90.05478755
_symmetry_Int_Tables_number   1
_chemical_formula_structural   In2Te3
_chemical_formula_sum   'In72 Te108'
_cell_volume   6860.60194776
_cell_formula_units_Z   36
loop_
 _symmetry_equiv_pos_site_id
 _symmetry_equiv_pos_as_xyz
  1  'x, y, z'
loop_
 _atom_site_type_symbol
 _atom_site_label
 _atom_site_symmetry_multiplicity
 _atom_site_fract_x
 _atom_site_fract_y
 _atom_site_fract_z
 _atom_site_occupancy
  In  In0  1  0.68655917  0.33856666  0.65723498  1
  In  In1  1  0.51521340  0.50251961  0.02060829  1
  In  In2  1  0.16810960  0.81656632  0.00562816  1
  In  In3  1  -0.00969676  0.15341808  0.85177035  1
  In  In4  1  -0.02827603  0.17154977  0.16272913  1
  In  In5  1  0.87562161  0.51297255  0.70290031  1
  In  In6  1  0.33143381  0.66128959  0.31998108  1
  In  In7  1  -0.00300117  -0.01316123  0.00634041  1
  In  In8  1  0.33553950  0.16101448  0.83844191  1
  In  In9  1  -0.04179893  0.82744038  0.85255915  1
  In  In10  1  0.83560991  0.51655678  0.00725854  1
  In  In11  1  0.34786132  0.48239383  0.50050445  1
  In  In12  1  0.67150615  0.66548047  0.66122786  1
  In  In13  1  0.67781821  0.33351749  0.31549234  1
  In  In14  1  -0.01685524  0.84347507  0.51339053  1
  In  In15  1  0.16859567  0.84724121  0.31684487  1
  In  In16  1  -0.02969806  0.51070214  0.49418348  1
  In  In17  1  0.33068915  0.15489494  0.49332775  1
  In  In18  1  0.52877883  0.84966384  -0.01493305  1
  In  In19  1  0.50857354  -0.00252091  0.15173718  1
  In  In20  1  0.68156798  0.51859985  0.83725300  1
  In  In21  1  0.66357685  0.50336286  0.49667302  1
  In  In22  1  0.00348491  0.51142447  0.17872382  1
  In  In23  1  0.34089996  0.50959954  0.82525118  1
  In  In24  1  0.80234063  0.68138853  0.49215441  1
  In  In25  1  0.81955509  0.00806761  0.52509539  1
  In  In26  1  0.17368145  0.14856506  -0.00656991  1
  In  In27  1  0.16547198  0.67974346  0.49493288  1
  In  In28  1  0.68797033  0.14466238  0.15500351  1
  In  In29  1  0.67844646  -0.00311568  0.68978464  1
  In  In30  1  0.30800990  0.66453046  0.65255068  1
  In  In31  1  0.14464752  0.67393754  0.17542259  1
  In  In32  1  0.51526804  0.18668685  0.65725668  1
  In  In33  1  0.52814215  0.31633516  0.15973219  1
  In  In34  1  0.13620178  0.17181823  0.69264880  1
  In  In35  1  0.68016477  0.52575297  0.16777244  1
  In  In36  1  0.16830345  0.51076169  -0.02639413  1
  In  In37  1  -0.03877120  -0.06759761  0.31394102  1
  In  In38  1  0.66109558  -0.00452681  0.32763342  1
  In  In39  1  0.00534534  0.32190881  0.69277667  1
  In  In40  1  0.34832004  0.84771035  0.84964213  1
  In  In41  1  0.14811677  0.17266317  0.36421335  1
  In  In42  1  0.33238694  0.68242757  0.00163407  1
  In  In43  1  -0.01788053  0.14091155  0.48363052  1
  In  In44  1  0.81588499  0.51400393  0.32851908  1
  In  In45  1  0.51196043  0.84355303  0.67319400  1
  In  In46  1  0.33040446  0.81169340  0.50537444  1
  In  In47  1  0.50491206  0.64713566  0.48017255  1
  In  In48  1  0.49635340  -0.00874667  0.47692531  1
  In  In49  1  0.67731789  0.17204440  0.50767504  1
  In  In50  1  0.52208393  0.70056750  0.83934741  1
  In  In51  1  0.17805470  0.33251066  0.17461540  1
  In  In52  1  0.83592380  0.85044184  0.68166395  1
  In  In53  1  0.19587969  -0.00889427  0.16156647  1
  In  In54  1  -0.01340566  0.34606263  0.35769405  1
  In  In55  1  0.18660074  0.31597242  0.84811044  1
  In  In56  1  0.66386351  0.31330772  -0.00255524  1
  In  In57  1  0.35319602  0.17075411  0.16822843  1
  In  In58  1  0.16870274  0.33986998  0.50377258  1
  In  In59  1  0.67000515  0.12879895  0.85575607  1
  In  In60  1  -0.02870535  0.34567460  0.01837958  1
  In  In61  1  0.13390059  0.48926670  0.65819175  1
  In  In62  1  0.83317178  -0.01501538  0.15294519  1
  In  In63  1  0.48166407  0.31925011  0.83596883  1
  In  In64  1  0.35381862  -0.00216496  0.30877163  1
  In  In65  1  0.14646850  -0.02404064  0.50878285  1
  In  In66  1  0.33509707  0.48034656  0.16668854  1
  In  In67  1  0.09849700  0.66746435  0.83242313  1
  In  In68  1  0.31868257  0.01276274  0.68505568  1
  In  In69  1  0.68330078  0.81439406  0.15088109  1
  In  In70  1  0.51427362  0.34753724  0.49227459  1
  In  In71  1  0.52143645  0.67577672  0.14837824  1
  Te  Te72  1  0.08367931  0.08656039  0.10013662  1
  Te  Te73  1  0.06920391  0.04470427  0.39745246  1
  Te  Te74  1  0.09235406  0.06919893  0.78612025  1
  Te  Te75  1  0.09390346  0.42190627  0.08357047  1
  Te  Te76  1  0.08605351  0.43805844  0.42420205  1
  Te  Te77  1  0.08904656  0.41154301  0.78050942  1
  Te  Te78  1  0.06917113  0.72092219  0.05872013  1
  Te  Te79  1  0.07984088  0.77359659  0.41409951  1
  Te  Te80  1  0.04406194  0.77146216  0.74553374  1
  Te  Te81  1  0.38794202  0.05516661  0.08646898  1
  Te  Te82  1  0.42970422  0.09863255  0.39443657  1
  Te  Te83  1  0.43278700  0.09076145  0.74282320  1
  Te  Te84  1  0.42436594  0.39799912  0.07718423  1
  Te  Te85  1  0.44341475  0.43687643  0.40135746  1
  Te  Te86  1  0.41677338  0.41393311  0.74612996  1
  Te  Te87  1  0.43058660  0.77103853  0.07324960  1
  Te  Te88  1  0.42288168  0.75026625  0.40387119  1
  Te  Te89  1  0.40918722  0.74685830  0.74012610  1
  Te  Te90  1  0.76769457  0.07275887  0.05227340  1
  Te  Te91  1  0.75381614  0.08460653  0.41118082  1
  Te  Te92  1  0.77220393  0.08570829  0.75756727  1
  Te  Te93  1  0.73942244  0.42063820  0.07708398  1
  Te  Te94  1  0.75549315  0.40951683  0.42296541  1
  Te  Te95  1  0.76667320  0.42175835  0.75852581  1
  Te  Te96  1  0.79085100  0.77399601  0.05604959  1
  Te  Te97  1  0.69653799  0.71485730  0.39668295  1
  Te  Te98  1  0.74182773  0.75684244  0.75721835  1
  Te  Te99  1  0.07029568  0.25309285  0.25936655  1
  Te  Te100  1  0.07137633  0.24564520  0.57004277  1
  Te  Te101  1  0.07886892  0.25691868  0.93898692  1
  Te  Te102  1  0.08220086  0.58923226  0.27506540  1
  Te  Te103  1  0.06746476  0.59668203  0.57512744  1
  Te  Te104  1  0.04552707  0.58592485  0.94375273  1
  Te  Te105  1  0.07771376  0.89576611  0.20217510  1
  Te  Te106  1  0.04674012  0.93680359  0.61017948  1
  Te  Te107  1  0.08049141  0.90135826  0.91669608  1
  Te  Te108  1  0.42319628  0.26854431  0.24918509  1
  Te  Te109  1  0.41522751  0.25595079  0.56859196  1
  Te  Te110  1  0.41939179  0.23272999  0.93369941  1
  Te  Te111  1  0.42516009  0.58637703  0.22830724  1
  Te  Te112  1  0.41873850  0.58419554  0.58866522  1
  Te  Te113  1  0.43177016  0.59540351  0.92520960  1
  Te  Te114  1  0.44144617  0.90366785  0.24378676  1
  Te  Te115  1  0.40640597  0.92189071  0.58662919  1
  Te  Te116  1  0.43739293  0.94877645  0.91528734  1
  Te  Te117  1  0.76262624  0.25028967  0.22799970  1
  Te  Te118  1  0.77209163  0.23847549  0.59572255  1
  Te  Te119  1  0.75030389  0.24234518  0.90506193  1
  Te  Te120  1  0.78226879  0.61759689  0.22544657  1
  Te  Te121  1  0.76620862  0.56577486  0.59603642  1
  Te  Te122  1  0.78614532  0.60735490  0.89521210  1
  Te  Te123  1  0.75509987  0.90269644  0.25280250  1
  Te  Te124  1  0.72969619  0.90100993  0.58556838  1
  Te  Te125  1  0.72304534  0.89004686  0.83513469  1
  Te  Te126  1  0.25466445  0.24552589  0.07849702  1
  Te  Te127  1  0.26038369  0.26387416  0.41085385  1
  Te  Te128  1  0.25936407  0.24708773  0.73560273  1
  Te  Te129  1  0.25031009  0.58331820  0.08142860  1
  Te  Te130  1  0.25769609  0.58390096  0.42642949  1
  Te  Te131  1  0.22840975  0.57749986  0.74730946  1
  Te  Te132  1  0.26724259  0.91017598  0.06421864  1
  Te  Te133  1  0.26510666  0.92061548  0.41739756  1
  Te  Te134  1  0.25060372  0.90601297  0.75617238  1
  Te  Te135  1  0.57993202  0.20874520  0.06695106  1
  Te  Te136  1  0.59256371  0.24908874  0.40929824  1
  Te  Te137  1  0.60352002  0.25269647  0.75891134  1
  Te  Te138  1  0.61883819  0.60742331  0.05477427  1
  Te  Te139  1  0.60885681  0.58961432  0.38694823  1
  Te  Te140  1  0.57724574  0.58899936  0.75236622  1
  Te  Te141  1  0.62017217  0.93011926  0.07449132  1
  Te  Te142  1  0.59540576  0.90241222  0.42055885  1
  Te  Te143  1  0.58146972  0.92399698  0.78176344  1
  Te  Te144  1  0.87743511  0.26306787  0.09719019  1
  Te  Te145  1  0.90238003  0.24639720  0.42247608  1
  Te  Te146  1  0.90999612  0.24063508  0.76568494  1
  Te  Te147  1  0.90071804  0.59854527  0.11507534  1
  Te  Te148  1  0.90579821  0.61271327  0.40362906  1
  Te  Te149  1  0.97475745  0.60375174  0.76272302  1
  Te  Te150  1  0.90103297  0.88499183  0.06246748  1
  Te  Te151  1  0.87082369  0.89846890  0.42950737  1
  Te  Te152  1  0.88004025  0.94124046  0.79282180  1
  Te  Te153  1  0.23809131  0.09504714  0.26647769  1
  Te  Te154  1  0.22450382  0.08758505  0.57892350  1
  Te  Te155  1  0.23622933  0.06431848  0.89160902  1
  Te  Te156  1  0.24288724  0.42601452  0.26519341  1
  Te  Te157  1  0.25328121  0.41617323  0.60240285  1
  Te  Te158  1  0.27418703  0.41435613  0.92400395  1
  Te  Te159  1  0.25790264  0.76030056  0.23186491  1
  Te  Te160  1  0.21760382  0.77482087  0.60079902  1
  Te  Te161  1  0.24428819  0.73590226  0.89214229  1
  Te  Te162  1  0.57944460  0.09303547  0.24689846  1
  Te  Te163  1  0.58092167  0.07216904  0.58056082  1
  Te  Te164  1  0.56347279  0.04267470  0.90763767  1
  Te  Te165  1  0.58875134  0.43068466  0.24172782  1
  Te  Te166  1  0.58076473  0.43044846  0.60020501  1
  Te  Te167  1  0.58410981  0.42192592  0.91190738  1
  Te  Te168  1  0.59677622  0.74924708  0.25176024  1
  Te  Te169  1  0.57455324  0.74574485  0.57733405  1
  Te  Te170  1  0.62606940  0.75484686  0.92592149  1
  Te  Te171  1  0.91287718  0.06764861  0.25248687  1
  Te  Te172  1  0.93417832  0.06461836  0.60063411  1
  Te  Te173  1  0.90680832  0.09484185  0.96002452  1
  Te  Te174  1  0.90704646  0.41961644  0.25221454  1
  Te  Te175  1  0.92338167  0.41304866  0.59879090  1
  Te  Te176  1  0.90881265  0.42686440  0.91581787  1
  Te  Te177  1  0.97129576  0.80053723  0.25292413  1
  Te  Te178  1  0.89982598  0.74371209  0.59057380  1
  Te  Te179  1  0.87585620  0.73198760  0.93154586  1
