# generated using pymatgen
data_In2Te3
_symmetry_space_group_name_H-M   'P 1'
_cell_length_a   18.94336990
_cell_length_b   18.96864692
_cell_length_c   18.95950641
_cell_angle_alpha   89.88728809
_cell_angle_beta   89.83670086
_cell_angle_gamma   90.07465046
_symmetry_Int_Tables_number   1
_chemical_formula_structural   In2Te3
_chemical_formula_sum   'In72 Te108'
_cell_volume   6812.67455457
_cell_formula_units_Z   36
loop_
 _symmetry_equiv_pos_site_id
 _symmetry_equiv_pos_as_xyz
  1  'x, y, z'
loop_
 _atom_site_type_symbol
 _atom_site_label
 _atom_site_symmetry_multiplicity
 _atom_site_fract_x
 _atom_site_fract_y
 _atom_site_fract_z
 _atom_site_occupancy
  In  In0  1  0.17885754  0.65503394  0.84115793  1
  In  In1  1  0.01460005  0.12613555  0.15940975  1
  In  In2  1  0.18939748  0.15835999  0.34783107  1
  In  In3  1  0.50068999  0.68330554  0.17014640  1
  In  In4  1  0.01433596  0.17656922  0.84483595  1
  In  In5  1  0.80952505  0.16700726  0.01511346  1
  In  In6  1  0.82674614  0.34346500  0.15208357  1
  In  In7  1  0.68290153  0.33388864  0.32454818  1
  In  In8  1  0.64094431  0.52587957  0.48311403  1
  In  In9  1  -0.04052318  0.51686381  0.16182467  1
  In  In10  1  0.83623840  0.00234018  0.49404434  1
  In  In11  1  0.68833782  0.16446282  0.51607841  1
  In  In12  1  0.84768079  0.50047037  0.37560581  1
  In  In13  1  0.17953656  -0.01259514  0.50123686  1
  In  In14  1  0.84970199  0.16987233  0.32534153  1
  In  In15  1  0.34306199  0.32806911  -0.00672797  1
  In  In16  1  0.18070974  0.01514067  0.83878211  1
  In  In17  1  0.33668022  0.19598817  0.49780376  1
  In  In18  1  0.34051472  0.17331070  0.83630210  1
  In  In19  1  0.33934023  0.85018845  0.16888199  1
  In  In20  1  0.00463505  0.17000161  0.50476637  1
  In  In21  1  0.70794027  0.51380484  0.19092677  1
  In  In22  1  0.63746528  0.79741964  0.81603008  1
  In  In23  1  0.17021365  0.32397686  0.16611297  1
  In  In24  1  0.67032554  -0.02080158  0.01077523  1
  In  In25  1  0.84612536  0.48381513  0.63793178  1
  In  In26  1  0.34945111  0.67080012  0.64460310  1
  In  In27  1  0.60971623  0.11514195  0.15251315  1
  In  In28  1  0.65858886  0.68233361  0.00379051  1
  In  In29  1  0.35868649  0.83253154  0.48257495  1
  In  In30  1  0.86108283  0.80915555  0.31868304  1
  In  In31  1  0.15715734  0.53801787  0.61369515  1
  In  In32  1  0.84294217  0.83954683  0.03435140  1
  In  In33  1  0.01269233  0.82038409  0.49842362  1
  In  In34  1  0.17146181  0.82827325  0.67656178  1
  In  In35  1  0.83018292  0.35542554  0.83039384  1
  In  In36  1  -0.00436675  0.49749790  0.83274288  1
  In  In37  1  0.15139631  0.82707532  0.03818983  1
  In  In38  1  0.34697073  0.68376697  0.32707151  1
  In  In39  1  0.16873424  0.48896351  -0.01241148  1
  In  In40  1  0.83512372  0.68125177  0.50231584  1
  In  In41  1  0.49470114  0.83257515  -0.01201488  1
  In  In42  1  0.81060433  0.85144427  0.65776857  1
  In  In43  1  0.00453471  0.32246980  0.35955129  1
  In  In44  1  -0.00007411  0.33978360  -0.02050060  1
  In  In45  1  0.15827601  0.34473942  0.81003767  1
  In  In46  1  0.16124783  0.64034040  0.17146335  1
  In  In47  1  0.51889297  0.31699706  0.18905577  1
  In  In48  1  0.37376990  0.14493899  0.16113257  1
  In  In49  1  0.50092289  -0.00735533  0.83887002  1
  In  In50  1  0.83871755  0.65584038  0.84277279  1
  In  In51  1  0.49415281  0.83182501  0.65737606  1
  In  In52  1  0.62510997  0.83592603  0.48677356  1
  In  In53  1  0.31387101  0.48839278  0.17274999  1
  In  In54  1  0.48004823  0.51071193  -0.01991956  1
  In  In55  1  0.16233591  0.16453282  0.66787882  1
  In  In56  1  0.62365210  0.52432576  0.80015285  1
  In  In57  1  0.50735442  0.17597289  0.65475175  1
  In  In58  1  0.48161106  0.34709917  0.82105545  1
  In  In59  1  0.35325404  -0.00744350  0.32507734  1
  In  In60  1  0.66321369  0.17776472  0.82409737  1
  In  In61  1  0.80421779  -0.01092800  0.84429067  1
  In  In62  1  0.31924626  0.85204337  0.84551897  1
  In  In63  1  0.84105501  0.19085813  0.67961112  1
  In  In64  1  -0.00785145  0.82012693  0.81949757  1
  In  In65  1  0.50459749  0.14818679  0.32978202  1
  In  In66  1  0.16059785  0.49426189  0.36778536  1
  In  In67  1  -0.00740402  -0.01239193  -0.00842591  1
  In  In68  1  0.50698867  0.34915449  0.49621089  1
  In  In69  1  0.35164970  0.50284484  0.50213001  1
  In  In70  1  0.67049512  0.81647728  0.18527228  1
  In  In71  1  0.08190751  0.81547031  0.28457427  1
  Te  Te72  1  0.09039918  0.08474767  0.04262759  1
  Te  Te73  1  0.08553333  0.07347097  0.41826119  1
  Te  Te74  1  0.07148416  0.07354832  0.75129037  1
  Te  Te75  1  0.07759351  0.42020119  0.09125622  1
  Te  Te76  1  0.06190214  0.41967468  0.45763095  1
  Te  Te77  1  0.08916417  0.44781146  0.72637639  1
  Te  Te78  1  0.06176708  0.72384762  0.09691940  1
  Te  Te79  1  0.09731284  0.73580947  0.41041485  1
  Te  Te80  1  0.08292749  0.72504539  0.74441189  1
  Te  Te81  1  0.47645955  0.05320430  0.11437503  1
  Te  Te82  1  0.41349211  0.08211029  0.43125643  1
  Te  Te83  1  0.42411442  0.08447124  0.74643284  1
  Te  Te84  1  0.42281348  0.41105449  0.09287125  1
  Te  Te85  1  0.42769804  0.42710239  0.40216581  1
  Te  Te86  1  0.42771670  0.47185287  0.76107386  1
  Te  Te87  1  0.40201274  0.74811740  0.07497745  1
  Te  Te88  1  0.44333643  0.71541980  0.43885291  1
  Te  Te89  1  0.40157805  0.76110650  0.75726101  1
  Te  Te90  1  0.75865074  0.05722665  0.10306832  1
  Te  Te91  1  0.74905100  0.08325872  0.40092267  1
  Te  Te92  1  0.74646967  0.08320884  0.74066496  1
  Te  Te93  1  0.73062367  0.42410111  0.07862715  1
  Te  Te94  1  0.73981987  0.41478694  0.43762058  1
  Te  Te95  1  0.74202269  0.44000817  0.74427503  1
  Te  Te96  1  0.77093999  0.72092076  0.10255537  1
  Te  Te97  1  0.74922868  0.77421110  0.42112444  1
  Te  Te98  1  0.75523552  0.73832763  0.74361647  1
  Te  Te99  1  0.07660384  0.23887037  0.25316984  1
  Te  Te100  1  0.07515624  0.25861797  0.59767151  1
  Te  Te101  1  0.11454688  0.25599815  0.92597924  1
  Te  Te102  1  0.07188611  0.55465049  0.25960159  1
  Te  Te103  1  0.06782154  0.62122148  0.53009591  1
  Te  Te104  1  0.07149123  0.58807721  0.92760178  1
  Te  Te105  1  0.05798007  0.94523847  0.21974947  1
  Te  Te106  1  0.08084023  0.91831434  0.59395911  1
  Te  Te107  1  0.08872571  0.90275891  0.90333117  1
  Te  Te108  1  0.40809618  0.24840908  0.26663419  1
  Te  Te109  1  0.41400724  0.28028089  0.59642044  1
  Te  Te110  1  0.44494456  0.23945852  0.92459574  1
  Te  Te111  1  0.41398447  0.57754735  0.24277775  1
  Te  Te112  1  0.45289219  0.56472534  0.60773251  1
  Te  Te113  1  0.39407691  0.56168213  0.87442079  1
  Te  Te114  1  0.44119260  0.87919295  0.27707272  1
  Te  Te115  1  0.42244491  0.92656713  0.57321086  1
  Te  Te116  1  0.39978559  0.93977292  0.93927839  1
  Te  Te117  1  0.75039969  0.23644633  0.23070077  1
  Te  Te118  1  0.74777645  0.26877687  0.59903783  1
  Te  Te119  1  0.74467509  0.26409453  0.91846129  1
  Te  Te120  1  0.77738631  0.59547662  0.28855635  1
  Te  Te121  1  0.74886782  0.58405415  0.57830088  1
  Te  Te122  1  0.72118543  0.58495398  0.90539904  1
  Te  Te123  1  0.76979889  0.90152733  0.24901987  1
  Te  Te124  1  0.72294391  0.92964913  0.56509614  1
  Te  Te125  1  0.73551945  0.87359277  0.92150403  1
  Te  Te126  1  0.26979059  0.23887414  0.09224875  1
  Te  Te127  1  0.22745975  0.26912523  0.43348796  1
  Te  Te128  1  0.26008792  0.25749899  0.73959967  1
  Te  Te129  1  0.25780322  0.58142135  0.06756484  1
  Te  Te130  1  0.26150656  0.59428329  0.41762693  1
  Te  Te131  1  0.25027178  0.58755173  0.72662687  1
  Te  Te132  1  0.23771881  0.92812956  0.09795310  1
  Te  Te133  1  0.25138567  0.90513626  0.39726692  1
  Te  Te134  1  0.26001872  0.93692496  0.73522556  1
  Te  Te135  1  0.58739022  0.24267968  0.08438162  1
  Te  Te136  1  0.59063036  0.24495628  0.41052804  1
  Te  Te137  1  0.58772597  0.27496454  0.73719253  1
  Te  Te138  1  0.57462239  0.58291001  0.08243973  1
  Te  Te139  1  0.56584487  0.62514509  0.40370502  1
  Te  Te140  1  0.56383832  0.62092671  0.70214124  1
  Te  Te141  1  0.57578847  0.89721825  0.09838397  1
  Te  Te142  1  0.55482305  0.91140020  0.38027881  1
  Te  Te143  1  0.59284029  0.92031996  0.74358651  1
  Te  Te144  1  0.92743104  0.24703619  0.07710064  1
  Te  Te145  1  0.89439880  0.25560197  0.44052684  1
  Te  Te146  1  0.93897996  0.27698011  0.75931306  1
  Te  Te147  1  0.85283625  0.58656029  0.09358036  1
  Te  Te148  1  0.94346856  0.59832384  0.43811823  1
  Te  Te149  1  0.91676648  0.58227453  0.73617402  1
  Te  Te150  1  0.94881835  0.91039929  0.11355003  1
  Te  Te151  1  0.92766648  0.91260708  0.41411483  1
  Te  Te152  1  0.90644953  0.92500613  0.75174051  1
  Te  Te153  1  0.25844673  0.07776968  0.24140432  1
  Te  Te154  1  0.25896686  0.08966469  0.57879157  1
  Te  Te155  1  0.26368627  0.09097206  0.93125775  1
  Te  Te156  1  0.24208894  0.40159184  0.27369447  1
  Te  Te157  1  0.25186854  0.43088012  0.58304468  1
  Te  Te158  1  0.26438144  0.41546904  0.89731397  1
  Te  Te159  1  0.23999557  0.75038245  0.24064596  1
  Te  Te160  1  0.25164077  0.75902959  0.56958237  1
  Te  Te161  1  0.24290318  0.75528109  0.93337938  1
  Te  Te162  1  0.58918441  0.03669603  0.27886374  1
  Te  Te163  1  0.57888796  0.08281846  0.56812161  1
  Te  Te164  1  0.59806240  0.07663543  0.91965012  1
  Te  Te165  1  0.58986050  0.43129800  0.25804051  1
  Te  Te166  1  0.57689045  0.44163358  0.58805149  1
  Te  Te167  1  0.58080950  0.42286739  0.90945631  1
  Te  Te168  1  0.60268529  0.71652959  0.27379711  1
  Te  Te169  1  0.59261351  0.73689843  0.59663049  1
  Te  Te170  1  0.54546192  0.71768179  0.90484783  1
  Te  Te171  1  0.93251027  0.06361908  0.26320021  1
  Te  Te172  1  0.91354331  0.08546753  0.59338710  1
  Te  Te173  1  0.89770099  0.09322236  0.91108515  1
  Te  Te174  1  0.91098962  0.40398126  0.26291276  1
  Te  Te175  1  0.94210501  0.41049654  0.55661310  1
  Te  Te176  1  0.89775297  0.44171793  0.93591066  1
  Te  Te177  1  0.96395678  0.73841124  0.23770996  1
  Te  Te178  1  0.91784749  0.76021827  0.60153683  1
  Te  Te179  1  0.91692095  0.75078550  0.93113730  1
