# generated using pymatgen
data_In2Te3
_symmetry_space_group_name_H-M   'P 1'
_cell_length_a   18.97830768
_cell_length_b   18.96217659
_cell_length_c   18.97781133
_cell_angle_alpha   89.90565582
_cell_angle_beta   90.06254674
_cell_angle_gamma   89.91186521
_symmetry_Int_Tables_number   1
_chemical_formula_structural   In2Te3
_chemical_formula_sum   'In72 Te108'
_cell_volume   6829.52394816
_cell_formula_units_Z   36
loop_
 _symmetry_equiv_pos_site_id
 _symmetry_equiv_pos_as_xyz
  1  'x, y, z'
loop_
 _atom_site_type_symbol
 _atom_site_label
 _atom_site_symmetry_multiplicity
 _atom_site_fract_x
 _atom_site_fract_y
 _atom_site_fract_z
 _atom_site_occupancy
  In  In0  1  0.17727395  0.49071837  -0.00335993  1
  In  In1  1  0.50027233  0.16491253  0.03401423  1
  In  In2  1  0.45728330  0.31102790  0.50000712  1
  In  In3  1  0.49985299  0.33880503  0.17194913  1
  In  In4  1  0.82750833  -0.01336203  0.84014794  1
  In  In5  1  0.51061748  0.33012265  0.82454681  1
  In  In6  1  0.14809191  0.52025521  0.63852045  1
  In  In7  1  0.68451489  0.16218371  0.50547680  1
  In  In8  1  0.82569511  0.00711289  0.46419123  1
  In  In9  1  0.60534530  0.49422708  0.05401572  1
  In  In10  1  0.02019207  0.32670768  0.32158205  1
  In  In11  1  0.82653726  0.34475855  0.84612318  1
  In  In12  1  0.16344350  0.65997570  0.81392766  1
  In  In13  1  0.18952966  0.30765333  0.49283261  1
  In  In14  1  0.02409120  0.00745543  -0.00626713  1
  In  In15  1  0.81260409  0.17866893  0.32151898  1
  In  In16  1  -0.00551623  0.51285978  0.83858690  1
  In  In17  1  0.01038949  -0.00074130  0.66278962  1
  In  In18  1  0.02165502  0.17932159  0.49250703  1
  In  In19  1  0.65870200  0.84681113  0.48032213  1
  In  In20  1  0.16906027  0.83159475  0.65783869  1
  In  In21  1  0.31242719  0.66038379  0.33064788  1
  In  In22  1  0.45566822  0.08815805  0.30775937  1
  In  In23  1  0.48990624  0.16447659  0.65977286  1
  In  In24  1  0.50304338  0.81956198  0.00114100  1
  In  In25  1  0.33505948  0.48669511  0.16879149  1
  In  In26  1  0.83541283  0.50875483  0.70212306  1
  In  In27  1  0.35346077  0.87858283  0.53564175  1
  In  In28  1  0.33690050  0.17721339  0.17669769  1
  In  In29  1  0.60492144  -0.01536922  0.65552985  1
  In  In30  1  0.81835688  -0.00413791  0.18925900  1
  In  In31  1  0.66998764  0.83383511  0.15064819  1
  In  In32  1  0.47229807  0.66750309  0.83910191  1
  In  In33  1  -0.00697418  -0.01375903  0.33414645  1
  In  In34  1  0.16737614  0.84150830  0.00604994  1
  In  In35  1  0.34085250  0.64489749  0.00045855  1
  In  In36  1  0.31574528  0.84561378  0.81601461  1
  In  In37  1  0.32460775  0.85815948  0.16222395  1
  In  In38  1  0.47741518  0.48689235  0.34833248  1
  In  In39  1  0.16622627  0.84248274  0.34035712  1
  In  In40  1  0.83897879  0.17418461  0.66671100  1
  In  In41  1  0.49856243  -0.01595778  0.83910485  1
  In  In42  1  0.18630372  0.16611942  0.00850459  1
  In  In43  1  0.48957448  0.67349567  0.51194119  1
  In  In44  1  -0.00109143  0.48512835  0.17402824  1
  In  In45  1  0.00663896  0.85447749  0.15667810  1
  In  In46  1  0.48069803  0.49255012  0.67798594  1
  In  In47  1  0.85687841  0.17342000  0.03362993  1
  In  In48  1  0.65852995  0.32348087  0.32814557  1
  In  In49  1  0.86123899  0.80862459  -0.01159146  1
  In  In50  1  0.69312429  0.17309357  0.85204464  1
  In  In51  1  0.19206054  0.01006719  0.51831579  1
  In  In52  1  0.68375839  0.67909681  0.64627782  1
  In  In53  1  0.32628459  0.66340135  0.67038877  1
  In  In54  1  0.84569024  0.83483849  0.63544463  1
  In  In55  1  0.15757401  0.49089543  0.33770748  1
  In  In56  1  0.82451812  0.51386147  -0.00338955  1
  In  In57  1  0.65649375  0.52068499  0.84248009  1
  In  In58  1  0.17005853  0.31309197  0.17464464  1
  In  In59  1  0.85052766  0.63800194  0.51369109  1
  In  In60  1  0.86600723  0.49494188  0.31057107  1
  In  In61  1  0.48842550  0.83790088  0.30772977  1
  In  In62  1  0.85192009  0.67156671  0.16961410  1
  In  In63  1  0.67783304  0.69743727  0.33141221  1
  In  In64  1  0.18161890  0.32573373  0.85863682  1
  In  In65  1  0.67382242  -0.01544166  0.00482156  1
  In  In66  1  0.63456901  0.47536512  0.48787553  1
  In  In67  1  0.00273431  0.67837972  0.32839273  1
  In  In68  1  0.84091840  0.35536004  0.51594198  1
  In  In69  1  0.33520934  0.15510134  0.84863323  1
  In  In70  1  0.02992051  0.14538945  0.82363702  1
  In  In71  1  0.02502085  0.33239132  0.66113498  1
  Te  Te72  1  0.07708640  0.10450619  0.08715300  1
  Te  Te73  1  0.09025994  0.06903862  0.41978423  1
  Te  Te74  1  0.11834715  0.05625360  0.74691379  1
  Te  Te75  1  0.08800048  0.40239649  0.08404852  1
  Te  Te76  1  0.08064171  0.40152005  0.43565129  1
  Te  Te77  1  0.09141144  0.42214477  0.76391285  1
  Te  Te78  1  0.06884784  0.75451332  0.07126006  1
  Te  Te79  1  0.09873688  0.74000191  0.42086609  1
  Te  Te80  1  0.08013168  0.76623829  0.75603339  1
  Te  Te81  1  0.40028623  0.07591434  0.08950492  1
  Te  Te82  1  0.37928426  0.10906809  0.43492296  1
  Te  Te83  1  0.41127537  0.06860858  0.74917225  1
  Te  Te84  1  0.44639155  0.44292369  0.07972907  1
  Te  Te85  1  0.38035934  0.41176810  0.42503104  1
  Te  Te86  1  0.40229883  0.39081763  0.74711354  1
  Te  Te87  1  0.40490121  0.74889229  0.09131401  1
  Te  Te88  1  0.41103467  0.75244321  0.40951472  1
  Te  Te89  1  0.41724620  0.76465823  0.73679789  1
  Te  Te90  1  0.74409326  0.08509468  0.09140003  1
  Te  Te91  1  0.71265905  0.07262927  0.37909218  1
  Te  Te92  1  0.75011223  0.07897124  0.74461531  1
  Te  Te93  1  0.73853168  0.45124333  0.09643590  1
  Te  Te94  1  0.75957845  0.42161084  0.40482532  1
  Te  Te95  1  0.72929700  0.41475266  0.75498032  1
  Te  Te96  1  0.75561017  0.73629431  0.07273606  1
  Te  Te97  1  0.76924692  0.74585510  0.44065547  1
  Te  Te98  1  0.76035895  0.76682579  0.73295146  1
  Te  Te99  1  0.09968223  0.21588351  0.26442273  1
  Te  Te100  1  0.11163618  0.22414052  0.60390948  1
  Te  Te101  1  0.07555682  0.24255478  0.92709568  1
  Te  Te102  1  0.08757870  0.58651848  0.24199510  1
  Te  Te103  1  0.06523883  0.63851232  0.62257932  1
  Te  Te104  1  0.08807570  0.59224072  0.92708076  1
  Te  Te105  1  0.10144219  0.93767001  0.23963519  1
  Te  Te106  1  0.08165377  0.91297003  0.56217489  1
  Te  Te107  1  0.07505446  0.90262459  0.90791303  1
  Te  Te108  1  0.44098659  0.23986110  0.26715788  1
  Te  Te109  1  0.37669886  0.24816658  0.60941629  1
  Te  Te110  1  0.43275193  0.24409604  0.92430813  1
  Te  Te111  1  0.41755961  0.58585493  0.25049154  1
  Te  Te112  1  0.40020748  0.57003853  0.57337569  1
  Te  Te113  1  0.40685290  0.55482281  0.90428331  1
  Te  Te114  1  0.39932737  0.94928570  0.25588199  1
  Te  Te115  1  0.46294276  0.94514436  0.60471834  1
  Te  Te116  1  0.40290923  0.90657361  0.92575437  1
  Te  Te117  1  0.72626402  0.24657405  0.22225705  1
  Te  Te118  1  0.74482253  0.26978015  0.59551703  1
  Te  Te119  1  0.75686045  0.26412882  0.95315492  1
  Te  Te120  1  0.75866378  0.59089869  0.25795678  1
  Te  Te121  1  0.73702570  0.55189532  0.58041458  1
  Te  Te122  1  0.76698951  0.60743184  0.89412728  1
  Te  Te123  1  0.74480626  0.89242233  0.26185294  1
  Te  Te124  1  0.74148474  0.93987778  0.57544731  1
  Te  Te125  1  0.74581595  0.88620139  0.91691013  1
  Te  Te126  1  0.27447730  0.27109795  0.07431410  1
  Te  Te127  1  0.26196781  0.21058004  0.40434111  1
  Te  Te128  1  0.24318181  0.23379686  0.76427677  1
  Te  Te129  1  0.24228563  0.58360337  0.09831599  1
  Te  Te130  1  0.22110891  0.59227808  0.42360948  1
  Te  Te131  1  0.25367191  0.55917642  0.74924303  1
  Te  Te132  1  0.24249220  0.94654127  0.07644422  1
  Te  Te133  1  0.27042081  0.92503964  0.41903315  1
  Te  Te134  1  0.24630572  0.93953759  0.72534700  1
  Te  Te135  1  0.59665268  0.25331072  0.09941529  1
  Te  Te136  1  0.58222012  0.24946652  0.43255422  1
  Te  Te137  1  0.59538724  0.22986096  0.74860818  1
  Te  Te138  1  0.56728284  0.63213387  0.02720777  1
  Te  Te139  1  0.58708468  0.60224335  0.41769204  1
  Te  Te140  1  0.57840188  0.59646722  0.73332630  1
  Te  Te141  1  0.56453520  0.92610891  0.09138811  1
  Te  Te142  1  0.56615089  0.92582000  0.39783852  1
  Te  Te143  1  0.59697945  0.89862627  0.77252980  1
  Te  Te144  1  0.93464476  0.26410860  0.11404391  1
  Te  Te145  1  0.90612946  0.25301961  0.42388070  1
  Te  Te146  1  0.92368752  0.26105088  0.75697560  1
  Te  Te147  1  0.93400574  0.58439723  0.07956925  1
  Te  Te148  1  0.94419926  0.56624271  0.41733107  1
  Te  Te149  1  0.92217646  0.61661743  0.75692317  1
  Te  Te150  1  0.90279813  0.93381256  0.07193924  1
  Te  Te151  1  0.91780859  0.90100846  0.42609941  1
  Te  Te152  1  0.92076299  0.91161488  0.74846226  1
  Te  Te153  1  0.23861089  0.12668074  0.27574554  1
  Te  Te154  1  0.29221887  0.11157404  0.56227558  1
  Te  Te155  1  0.25319223  0.06217419  0.92929390  1
  Te  Te156  1  0.25550019  0.40049318  0.26492343  1
  Te  Te157  1  0.23413902  0.41587264  0.58303051  1
  Te  Te158  1  0.27875895  0.41578405  0.92300013  1
  Te  Te159  1  0.23941100  0.75718674  0.23846917  1
  Te  Te160  1  0.26694297  0.75825190  0.56833587  1
  Te  Te161  1  0.25827566  0.73898533  0.90991259  1
  Te  Te162  1  0.59666523  0.07884928  0.27617505  1
  Te  Te163  1  0.56119167  0.08448358  0.54858860  1
  Te  Te164  1  0.59108891  0.08211104  0.91934345  1
  Te  Te165  1  0.58616275  0.43710429  0.25876007  1
  Te  Te166  1  0.55804957  0.39638624  0.58713608  1
  Te  Te167  1  0.59278297  0.41165432  0.92312773  1
  Te  Te168  1  0.57617419  0.74096294  0.22962955  1
  Te  Te169  1  0.57852909  0.77012357  0.58489647  1
  Te  Te170  1  0.58640926  0.73381487  0.91063288  1
  Te  Te171  1  0.91676206  0.09128528  0.25379399  1
  Te  Te172  1  0.91486494  0.08729475  0.56902991  1
  Te  Te173  1  0.90951386  0.09537527  0.90611618  1
  Te  Te174  1  0.90489211  0.36838068  0.22667952  1
  Te  Te175  1  0.93118537  0.43807298  0.60404892  1
  Te  Te176  1  0.92566025  0.41651305  0.93321829  1
  Te  Te177  1  0.91644276  0.77865880  0.25361361  1
  Te  Te178  1  0.94480973  0.73153686  0.58308493  1
  Te  Te179  1  0.89579054  0.70247038  0.89306822  1
