# generated using pymatgen
data_In2Te3
_symmetry_space_group_name_H-M   'P 1'
_cell_length_a   18.94921074
_cell_length_b   18.94674554
_cell_length_c   18.95015490
_cell_angle_alpha   90.05792886
_cell_angle_beta   90.08811777
_cell_angle_gamma   90.17641159
_symmetry_Int_Tables_number   1
_chemical_formula_structural   In2Te3
_chemical_formula_sum   'In72 Te108'
_cell_volume   6803.55212001
_cell_formula_units_Z   36
loop_
 _symmetry_equiv_pos_site_id
 _symmetry_equiv_pos_as_xyz
  1  'x, y, z'
loop_
 _atom_site_type_symbol
 _atom_site_label
 _atom_site_symmetry_multiplicity
 _atom_site_fract_x
 _atom_site_fract_y
 _atom_site_fract_z
 _atom_site_occupancy
  In  In0  1  0.04808975  0.30993967  -0.00704675  1
  In  In1  1  0.50655204  0.48469715  0.69327918  1
  In  In2  1  -0.00485115  0.16958503  0.49545719  1
  In  In3  1  0.15529224  0.16663334  0.33900243  1
  In  In4  1  -0.00036897  0.67494743  0.67322632  1
  In  In5  1  0.64256542  0.29736888  -0.01002608  1
  In  In6  1  0.30622467  0.85775389  0.83811843  1
  In  In7  1  0.47520343  0.32250151  0.50844376  1
  In  In8  1  0.47413994  0.34787607  0.85140039  1
  In  In9  1  0.29109729  0.18870532  0.85041299  1
  In  In10  1  0.29220861  0.13854230  0.52168910  1
  In  In11  1  0.31455193  0.85157480  0.50407383  1
  In  In12  1  0.47908495  0.01307400  0.85350897  1
  In  In13  1  0.02397241  0.51449227  0.18574023  1
  In  In14  1  0.84387601  0.69373722  0.17291454  1
  In  In15  1  0.00876254  0.31841829  0.68278592  1
  In  In16  1  0.79241775  0.32642103  0.86047440  1
  In  In17  1  0.87331794  0.02972031  0.87252128  1
  In  In18  1  0.65588600  0.16198526  0.85759765  1
  In  In19  1  0.83635168  0.51032691  0.63199870  1
  In  In20  1  0.52794015  0.82617173  0.32692887  1
  In  In21  1  0.02233981  -0.00738691  0.66394355  1
  In  In22  1  0.32892262  0.50036029  0.49002455  1
  In  In23  1  0.16464466  -0.01049435  0.15813225  1
  In  In24  1  0.64794788  0.49420861  0.16247820  1
  In  In25  1  0.67536039  0.48008281  0.83308881  1
  In  In26  1  0.35826157  -0.01172186  0.32852344  1
  In  In27  1  0.85612116  0.16883022  0.66941858  1
  In  In28  1  0.49671949  0.15286803  0.67818035  1
  In  In29  1  0.01032541  0.17176998  0.17898505  1
  In  In30  1  0.31884383  0.32784372  0.02582467  1
  In  In31  1  0.17419968  0.82065458  0.00225561  1
  In  In32  1  0.49917868  -0.00797510  0.49068558  1
  In  In33  1  0.67506666  0.65558676  0.33540262  1
  In  In34  1  0.02347429  0.48068266  0.85200398  1
  In  In35  1  0.84115467  0.83796131  0.64481546  1
  In  In36  1  0.15184399  0.68396361  0.48447515  1
  In  In37  1  0.48257260  0.00819513  0.15760974  1
  In  In38  1  0.83840466  0.63044463  0.46509724  1
  In  In39  1  0.48820556  0.33211680  0.15555853  1
  In  In40  1  0.84366673  0.03109538  0.15363151  1
  In  In41  1  0.85242643  0.67633958  0.82808342  1
  In  In42  1  0.51719632  0.67164895  0.49594285  1
  In  In43  1  0.31449188  0.64943956  0.65556129  1
  In  In44  1  0.66027812  0.65593523  0.00342324  1
  In  In45  1  0.21258487  0.49423831  0.31316165  1
  In  In46  1  0.51283133  0.16883830  0.31466598  1
  In  In47  1  0.18634578  0.52363307  0.01035414  1
  In  In48  1  0.67901489  -0.01256598  0.66866602  1
  In  In49  1  0.16637262  0.01770586  0.84508621  1
  In  In50  1  0.68310545  0.32698830  0.33322871  1
  In  In51  1  0.84004630  0.35291064  0.48716722  1
  In  In52  1  0.66726213  0.83933101  0.83851277  1
  In  In53  1  0.00689555  0.83420879  0.17891687  1
  In  In54  1  0.45940805  0.68611814  0.14404830  1
  In  In55  1  0.32603606  0.49491750  0.82015078  1
  In  In56  1  0.47642640  0.83832529  0.64832188  1
  In  In57  1  0.32042503  0.17741724  0.15042467  1
  In  In58  1  0.49024277  0.65876150  0.83596797  1
  In  In59  1  0.70826019  0.14261983  0.44737358  1
  In  In60  1  0.01297345  0.84667557  0.82004983  1
  In  In61  1  0.14124554  0.49307250  0.66436733  1
  In  In62  1  0.66565500  0.86206117  0.15262440  1
  In  In63  1  0.14928092  0.32554372  0.51120289  1
  In  In64  1  0.65549816  0.31367297  0.64511142  1
  In  In65  1  0.84641205  0.49544963  0.03052407  1
  In  In66  1  0.82704002  0.32143310  0.18058080  1
  In  In67  1  0.85337857  0.85466894  -0.02075325  1
  In  In68  1  0.87477556  0.85679478  0.34101819  1
  In  In69  1  0.26745249  0.67057105  0.24764401  1
  In  In70  1  0.65641625  0.84625931  0.47885751  1
  In  In71  1  0.01243636  0.36145019  0.33313206  1
  Te  Te72  1  0.08445417  0.08875229  0.07918948  1
  Te  Te73  1  0.08957292  0.07652645  0.43373805  1
  Te  Te74  1  0.05663790  0.09024821  0.77187466  1
  Te  Te75  1  0.09240753  0.42672141  0.08400364  1
  Te  Te76  1  0.11357175  0.43809430  0.41470619  1
  Te  Te77  1  0.11765210  0.38102676  0.77245338  1
  Te  Te78  1  0.10653493  0.74419697  0.11237867  1
  Te  Te79  1  0.09059770  0.81021356  0.43572107  1
  Te  Te80  1  0.09737093  0.74875943  0.75255768  1
  Te  Te81  1  0.38042983  0.06998618  0.06760524  1
  Te  Te82  1  0.41614096  0.10049594  0.42334724  1
  Te  Te83  1  0.38956213  0.09797020  0.76755359  1
  Te  Te84  1  0.38782530  0.43452316  0.10895372  1
  Te  Te85  1  0.40965251  0.40874912  0.41088092  1
  Te  Te86  1  0.39259763  0.39052972  0.73171362  1
  Te  Te87  1  0.36058228  0.71014843  0.03653916  1
  Te  Te88  1  0.43039450  0.77756958  0.43257194  1
  Te  Te89  1  0.40304156  0.74533719  0.74285154  1
  Te  Te90  1  0.75165921  0.08371272  0.05307787  1
  Te  Te91  1  0.81706181  0.07613787  0.38183750  1
  Te  Te92  1  0.74384079  0.10029971  0.74754454  1
  Te  Te93  1  0.73518041  0.40069582  0.07699458  1
  Te  Te94  1  0.74755562  0.43830664  0.40995053  1
  Te  Te95  1  0.75407189  0.40690373  0.72403390  1
  Te  Te96  1  0.75971313  0.75958994  0.05867031  1
  Te  Te97  1  0.75874751  0.76532273  0.40088803  1
  Te  Te98  1  0.75382041  0.75548896  0.74623492  1
  Te  Te99  1  0.10106654  0.27466267  0.24728021  1
  Te  Te100  1  0.09506083  0.21955641  0.60566684  1
  Te  Te101  1  0.06243160  0.20080529  0.89245293  1
  Te  Te102  1  0.11818482  0.59984902  0.26425665  1
  Te  Te103  1  0.06952946  0.58702591  0.56906165  1
  Te  Te104  1  0.08413152  0.58980235  0.92609862  1
  Te  Te105  1  0.06969263  0.94020744  0.25869441  1
  Te  Te106  1  0.05591252  0.87759977  0.57668996  1
  Te  Te107  1  0.08528232  0.92045668  0.93026940  1
  Te  Te108  1  0.40335627  0.25228716  0.25593061  1
  Te  Te109  1  0.39420420  0.23020944  0.59745481  1
  Te  Te110  1  0.41086368  0.24449983  0.93594450  1
  Te  Te111  1  0.40712300  0.62281418  0.26364060  1
  Te  Te112  1  0.43144751  0.57769624  0.59193110  1
  Te  Te113  1  0.42070383  0.55700728  0.91337834  1
  Te  Te114  1  0.42248421  0.88702412  0.23745381  1
  Te  Te115  1  0.39491022  0.95282194  0.59587961  1
  Te  Te116  1  0.41906363  0.89813344  0.92145651  1
  Te  Te117  1  0.74529835  0.22254052  0.25086088  1
  Te  Te118  1  0.76282445  0.23792762  0.56792759  1
  Te  Te119  1  0.77007030  0.20804969  0.96193580  1
  Te  Te120  1  0.75319247  0.58238133  0.22747435  1
  Te  Te121  1  0.73729613  0.59208586  0.56452605  1
  Te  Te122  1  0.76410058  0.57766867  0.92071224  1
  Te  Te123  1  0.77660067  0.91711522  0.23666518  1
  Te  Te124  1  0.75958046  0.93015855  0.55430021  1
  Te  Te125  1  0.74926381  0.94252920  0.91333291  1
  Te  Te126  1  0.20973703  0.23757011  0.07062731  1
  Te  Te127  1  0.24901841  0.25061547  0.42604033  1
  Te  Te128  1  0.20157856  0.24770481  0.75080839  1
  Te  Te129  1  0.26795473  0.60915405  0.10528622  1
  Te  Te130  1  0.26992357  0.61753367  0.41676034  1
  Te  Te131  1  0.22196204  0.58415681  0.75546956  1
  Te  Te132  1  0.26452351  0.89213726  0.10160923  1
  Te  Te133  1  0.24577859  0.93953956  0.41025409  1
  Te  Te134  1  0.23299329  0.93869067  0.73405782  1
  Te  Te135  1  0.56467535  0.22585391  0.08994872  1
  Te  Te136  1  0.59024497  0.24339043  0.43105306  1
  Te  Te137  1  0.57545025  0.26258955  0.76422749  1
  Te  Te138  1  0.55418321  0.58163168  0.08150133  1
  Te  Te139  1  0.56483194  0.57912693  0.39447497  1
  Te  Te140  1  0.60137073  0.58707352  0.75523608  1
  Te  Te141  1  0.55599963  0.91087623  0.07120351  1
  Te  Te142  1  0.59889489  0.94936574  0.38332686  1
  Te  Te143  1  0.56792571  0.91950905  0.74740891  1
  Te  Te144  1  0.93476458  0.26850783  0.08928107  1
  Te  Te145  1  0.92035438  0.26087877  0.39890278  1
  Te  Te146  1  0.90607070  0.25986515  0.77794612  1
  Te  Te147  1  0.93460720  0.60049038  0.09210102  1
  Te  Te148  1  0.89913895  0.51552228  0.39997295  1
  Te  Te149  1  0.92215925  0.56000761  0.75687380  1
  Te  Te150  1  0.93244139  0.92747250  0.08386757  1
  Te  Te151  1  0.96129570  0.90097617  0.45408358  1
  Te  Te152  1  0.89804404  0.92543884  0.75680268  1
  Te  Te153  1  0.25637534  0.08043420  0.25488841  1
  Te  Te154  1  0.23824689  0.04010274  0.61521454  1
  Te  Te155  1  0.26637354  0.07273873  0.94139778  1
  Te  Te156  1  0.27898219  0.40809065  0.21754350  1
  Te  Te157  1  0.24666536  0.41711796  0.58668415  1
  Te  Te158  1  0.24767984  0.41448313  0.92364220  1
  Te  Te159  1  0.21406916  0.80704529  0.22235432  1
  Te  Te160  1  0.23313428  0.75939359  0.59323881  1
  Te  Te161  1  0.25577903  0.73650462  0.90919446  1
  Te  Te162  1  0.59071220  0.07515578  0.23472415  1
  Te  Te163  1  0.58785329  0.07782632  0.58325432  1
  Te  Te164  1  0.58113774  0.07064716  0.94317513  1
  Te  Te165  1  0.57495707  0.40530456  0.25899104  1
  Te  Te166  1  0.57830806  0.42101775  0.57440251  1
  Te  Te167  1  0.57702972  0.42307539  0.93333461  1
  Te  Te168  1  0.60545600  0.74260119  0.22614477  1
  Te  Te169  1  0.59467651  0.76388970  0.59051545  1
  Te  Te170  1  0.57503619  0.75279728  0.92321899  1
  Te  Te171  1  0.92595411  0.08669654  0.26985709  1
  Te  Te172  1  0.91794435  0.06626927  0.58022480  1
  Te  Te173  1  0.96782931  0.10056363  0.96216876  1
  Te  Te174  1  0.90642156  0.43347071  0.24783924  1
  Te  Te175  1  0.94244815  0.41132507  0.58235888  1
  Te  Te176  1  0.91377420  0.40605325  0.92747465  1
  Te  Te177  1  0.94091044  0.73328707  0.28137183  1
  Te  Te178  1  0.90601329  0.72717900  0.56624418  1
  Te  Te179  1  0.94417260  0.74733817  0.92288156  1
