# generated using pymatgen
data_In2Te3
_symmetry_space_group_name_H-M   'P 1'
_cell_length_a   19.00564686
_cell_length_b   19.04586999
_cell_length_c   18.99783323
_cell_angle_alpha   89.99972277
_cell_angle_beta   89.93559484
_cell_angle_gamma   89.98664980
_symmetry_Int_Tables_number   1
_chemical_formula_structural   In2Te3
_chemical_formula_sum   'In72 Te108'
_cell_volume   6876.81364703
_cell_formula_units_Z   36
loop_
 _symmetry_equiv_pos_site_id
 _symmetry_equiv_pos_as_xyz
  1  'x, y, z'
loop_
 _atom_site_type_symbol
 _atom_site_label
 _atom_site_symmetry_multiplicity
 _atom_site_fract_x
 _atom_site_fract_y
 _atom_site_fract_z
 _atom_site_occupancy
  In  In0  1  0.67045803  0.82347033  0.49948640  1
  In  In1  1  0.34336603  0.33514630  0.31939517  1
  In  In2  1  0.67585387  -0.00325432  0.31718858  1
  In  In3  1  0.85739459  0.50552964  0.01628646  1
  In  In4  1  0.68583876  0.46739249  0.84662641  1
  In  In5  1  0.14430546  0.83740114  0.33944761  1
  In  In6  1  0.63109774  0.68169774  0.67460007  1
  In  In7  1  0.51854658  0.51166854  -0.00611733  1
  In  In8  1  0.47569524  0.81959987  0.27614915  1
  In  In9  1  0.29604061  0.32410957  0.68392936  1
  In  In10  1  0.15352786  0.85169810  0.67944815  1
  In  In11  1  -0.01180939  0.82809389  0.84820438  1
  In  In12  1  0.17462906  0.46549276  0.34756766  1
  In  In13  1  0.66954324  0.83553053  0.15908114  1
  In  In14  1  0.85736137  0.00397426  0.17240054  1
  In  In15  1  0.87361534  0.29413661  0.19660103  1
  In  In16  1  0.55002291  0.15126006  0.31953982  1
  In  In17  1  0.32420553  0.50586446  0.19343977  1
  In  In18  1  0.00437966  0.69001064  0.67997027  1
  In  In19  1  0.19535550  0.86130809  0.02637308  1
  In  In20  1  0.12761849  0.01485885  0.50311723  1
  In  In21  1  0.65118307  0.68143188  -0.01190737  1
  In  In22  1  0.50070198  0.50664489  0.66543373  1
  In  In23  1  0.15805290  0.68269478  0.16411018  1
  In  In24  1  0.16209198  0.67909408  0.48133468  1
  In  In25  1  0.81671105  0.86045346  0.66736056  1
  In  In26  1  0.32104616  0.68170129  0.32289614  1
  In  In27  1  0.68418083  0.65729161  0.35876297  1
  In  In28  1  0.66881227  0.31709597  -0.00489393  1
  In  In29  1  0.48741208  0.87093450  0.70485688  1
  In  In30  1  0.48517600  0.31944893  0.14324024  1
  In  In31  1  0.34120417  0.50135211  0.83387735  1
  In  In32  1  0.02619816  0.00531016  0.02005777  1
  In  In33  1  0.83902459  0.64889641  0.51478193  1
  In  In34  1  0.31261018  0.13264163  0.49446969  1
  In  In35  1  0.68557171  -0.02073964  -0.00391562  1
  In  In36  1  0.02556738  0.30957377  0.65286568  1
  In  In37  1  0.28938379  0.16822862  0.17354558  1
  In  In38  1  0.51070519  -0.01171334  0.49777778  1
  In  In39  1  0.68231230  0.16386686  0.47970749  1
  In  In40  1  0.81719067  0.47329299  0.66339651  1
  In  In41  1  -0.00580145  0.50882883  0.84643401  1
  In  In42  1  0.31102646  0.32230946  0.01381733  1
  In  In43  1  0.83297005  0.68059451  0.83086721  1
  In  In44  1  0.00679504  0.33169883  -0.01375332  1
  In  In45  1  0.65358597  0.49067799  0.48486980  1
  In  In46  1  0.66296978  0.16610623  0.81569339  1
  In  In47  1  0.02225642  0.49230901  0.48557013  1
  In  In48  1  0.66087990  0.50852636  0.13439543  1
  In  In49  1  0.82501524  0.00282703  0.83216539  1
  In  In50  1  0.83133666  0.66346168  0.18955974  1
  In  In51  1  0.00441686  0.67450898  0.31187908  1
  In  In52  1  0.33103485  0.84318941  0.51552335  1
  In  In53  1  0.83909320  0.15365793  0.00509105  1
  In  In54  1  0.33500808  -0.00882779  0.31643040  1
  In  In55  1  0.88329184  0.28488297  0.47647778  1
  In  In56  1  0.52914821  0.50318302  0.33129621  1
  In  In57  1  0.00616138  0.00072273  0.35456741  1
  In  In58  1  0.16536304  0.50355388  0.00443001  1
  In  In59  1  0.32287191  0.83834454  0.85594142  1
  In  In60  1  0.17328250  0.49205056  0.68116256  1
  In  In61  1  0.18462471  0.03257280  0.84742921  1
  In  In62  1  0.69800311  0.32887365  0.32679686  1
  In  In63  1  0.45502781  0.15112086  0.71394487  1
  In  In64  1  0.33145376  0.49231388  0.54125956  1
  In  In65  1  0.14797022  0.15691834  0.35255700  1
  In  In66  1  0.63633211  0.01560234  0.67394561  1
  In  In67  1  0.48353992  0.15961342  -0.02181005  1
  In  In68  1  0.47906728  0.32925927  0.51745596  1
  In  In69  1  0.49217390  0.68452258  0.83238580  1
  In  In70  1  0.01242958  0.17097873  0.80823477  1
  In  In71  1  0.85927914  0.46158819  0.31548997  1
  Te  Te72  1  0.14849769  0.08452281  0.04499612  1
  Te  Te73  1  0.06257573  0.15856407  0.48370552  1
  Te  Te74  1  0.08613591  0.06257902  0.74127980  1
  Te  Te75  1  0.07351337  0.41992107  0.08426421  1
  Te  Te76  1  0.07109490  0.37661623  0.40669054  1
  Te  Te77  1  0.07167353  0.41400706  0.75743714  1
  Te  Te78  1  0.08605495  0.78227697  0.08656720  1
  Te  Te79  1  0.04742641  0.76154585  0.42899635  1
  Te  Te80  1  0.10124389  0.74741413  0.77682869  1
  Te  Te81  1  0.38556589  0.10291613  0.07884744  1
  Te  Te82  1  0.42774073  0.07919229  0.40112579  1
  Te  Te83  1  0.41541813  0.05216402  0.81721693  1
  Te  Te84  1  0.41170736  0.43599793  0.08176630  1
  Te  Te85  1  0.41771751  0.42762710  0.41440748  1
  Te  Te86  1  0.41080517  0.40733879  0.73844788  1
  Te  Te87  1  0.40074320  0.79480280  0.15213405  1
  Te  Te88  1  0.40826735  0.76958106  0.40878513  1
  Te  Te89  1  0.39637523  0.75701005  0.74336696  1
  Te  Te90  1  0.74721528  0.07655096  0.09454078  1
  Te  Te91  1  0.76919080  0.07167529  0.40532044  1
  Te  Te92  1  0.75961877  0.08921616  0.72691281  1
  Te  Te93  1  0.75703388  0.40576225  0.08057420  1
  Te  Te94  1  0.77090137  0.40954436  0.43282086  1
  Te  Te95  1  0.74322959  0.37942326  0.74576535  1
  Te  Te96  1  0.75655465  0.73814276  0.07975317  1
  Te  Te97  1  0.78041934  0.75491059  0.42027429  1
  Te  Te98  1  0.73429360  0.76327451  0.75070243  1
  Te  Te99  1  0.06543945  0.26046275  0.28606156  1
  Te  Te100  1  0.12492898  0.20472171  0.61398533  1
  Te  Te101  1  0.09800810  0.25675647  0.89473161  1
  Te  Te102  1  0.10881691  0.57834314  0.26568839  1
  Te  Te103  1  0.07952381  0.59161485  0.58500598  1
  Te  Te104  1  0.08108464  0.59442172  0.92468816  1
  Te  Te105  1  0.05841201  0.91281733  0.24796712  1
  Te  Te106  1  0.06253757  0.90183842  0.57523948  1
  Te  Te107  1  0.09443488  0.91754910  0.91177917  1
  Te  Te108  1  0.42221637  0.22817558  0.24706193  1
  Te  Te109  1  0.38837609  0.23298678  0.59182010  1
  Te  Te110  1  0.40435972  0.26680283  0.91358158  1
  Te  Te111  1  0.42861958  0.59205306  0.25924337  1
  Te  Te112  1  0.41709237  0.59813694  0.58938101  1
  Te  Te113  1  0.41333231  0.59748180  0.92706122  1
  Te  Te114  1  0.41654584  0.94075718  0.20083323  1
  Te  Te115  1  0.40599300  0.94614726  0.59748486  1
  Te  Te116  1  0.39372580  0.94758758  0.93007054  1
  Te  Te117  1  0.74735335  0.22793996  0.23561339  1
  Te  Te118  1  0.77130941  0.24620337  0.56184291  1
  Te  Te119  1  0.76273811  0.23876606  0.90665268  1
  Te  Te120  1  0.74137077  0.55291013  0.26210362  1
  Te  Te121  1  0.72517492  0.58634014  0.59378159  1
  Te  Te122  1  0.75085163  0.57892629  0.92528373  1
  Te  Te123  1  0.77208488  0.90266889  0.24822481  1
  Te  Te124  1  0.72926327  0.93984055  0.57488841  1
  Te  Te125  1  0.79073158  0.89797891  0.93031686  1
  Te  Te126  1  0.20362942  0.23963442  0.07495974  1
  Te  Te127  1  0.25997385  0.24568676  0.41019878  1
  Te  Te128  1  0.21666989  0.24644848  0.78126632  1
  Te  Te129  1  0.25744841  0.59341278  0.09221583  1
  Te  Te130  1  0.25742759  0.57657434  0.42175982  1
  Te  Te131  1  0.25507725  0.58723648  0.75245586  1
  Te  Te132  1  0.27260435  0.99489346  0.02259039  1
  Te  Te133  1  0.24215249  0.92551250  0.42406757  1
  Te  Te134  1  0.25531013  0.93095474  0.75586520  1
  Te  Te135  1  0.58317957  0.22645130  0.07936425  1
  Te  Te136  1  0.57609106  0.27370627  0.41118154  1
  Te  Te137  1  0.56599985  0.24195394  0.73620196  1
  Te  Te138  1  0.56300983  0.61692282  0.09442563  1
  Te  Te139  1  0.56642353  0.60482188  0.43990387  1
  Te  Te140  1  0.58943018  0.57338810  0.77560603  1
  Te  Te141  1  0.58205634  0.88974725  0.05369499  1
  Te  Te142  1  0.58492645  0.90349182  0.39928951  1
  Te  Te143  1  0.59640431  0.92712328  0.78316232  1
  Te  Te144  1  0.94690066  0.22710069  0.08067432  1
  Te  Te145  1  0.91917331  0.23958161  0.33738413  1
  Te  Te146  1  0.91682913  0.23847671  0.71971970  1
  Te  Te147  1  0.93124189  0.58575296  0.11312248  1
  Te  Te148  1  0.91768787  0.57688543  0.40587813  1
  Te  Te149  1  0.90250531  0.58378481  0.73512668  1
  Te  Te150  1  0.90598859  0.92692092  0.05456447  1
  Te  Te151  1  0.88867953  0.95042094  0.42739412  1
  Te  Te152  1  0.92668292  0.92452130  0.74821917  1
  Te  Te153  1  0.21682311  0.06250139  0.25310548  1
  Te  Te154  1  0.22773076  0.07569089  0.60075717  1
  Te  Te155  1  0.29238516  0.14126231  0.86283342  1
  Te  Te156  1  0.23506301  0.38980216  0.22960979  1
  Te  Te157  1  0.22033693  0.39760708  0.57174827  1
  Te  Te158  1  0.24471592  0.41473624  0.91178721  1
  Te  Te159  1  0.24900920  0.78468477  0.24068636  1
  Te  Te160  1  0.23555833  0.75279903  0.58943644  1
  Te  Te161  1  0.26505522  0.75180050  0.95852322  1
  Te  Te162  1  0.57850126  0.04970561  0.22015119  1
  Te  Te163  1  0.57281640  0.10723164  0.56783805  1
  Te  Te164  1  0.59763080  0.07873934  0.91877115  1
  Te  Te165  1  0.58420664  0.40622145  0.22815944  1
  Te  Te166  1  0.58771381  0.40578662  0.59104972  1
  Te  Te167  1  0.56927348  0.39548956  0.91224146  1
  Te  Te168  1  0.60636567  0.73901610  0.26021624  1
  Te  Te169  1  0.55840615  0.78395347  0.59362348  1
  Te  Te170  1  0.56644203  0.77933921  0.91757607  1
  Te  Te171  1  0.95430267  0.08823075  0.24592237  1
  Te  Te172  1  0.96411066  0.03648603  0.52379924  1
  Te  Te173  1  0.93457099  0.08013883  0.91249222  1
  Te  Te174  1  0.94997563  0.42242744  0.20647646  1
  Te  Te175  1  0.93015196  0.41460725  0.57928246  1
  Te  Te176  1  0.90056764  0.40765750  0.90829450  1
  Te  Te177  1  0.92413131  0.76827287  0.23534339  1
  Te  Te178  1  0.90544226  0.76153912  0.59120034  1
  Te  Te179  1  0.93041260  0.72159977  0.93092708  1
