# generated using pymatgen
data_In2Te3
_symmetry_space_group_name_H-M   'P 1'
_cell_length_a   19.01062421
_cell_length_b   18.99982695
_cell_length_c   18.97120996
_cell_angle_alpha   90.21497530
_cell_angle_beta   89.88670312
_cell_angle_gamma   89.92277429
_symmetry_Int_Tables_number   1
_chemical_formula_structural   In2Te3
_chemical_formula_sum   'In72 Te108'
_cell_volume   6852.30599291
_cell_formula_units_Z   36
loop_
 _symmetry_equiv_pos_site_id
 _symmetry_equiv_pos_as_xyz
  1  'x, y, z'
loop_
 _atom_site_type_symbol
 _atom_site_label
 _atom_site_symmetry_multiplicity
 _atom_site_fract_x
 _atom_site_fract_y
 _atom_site_fract_z
 _atom_site_occupancy
  In  In0  1  0.31043160  0.18387089  0.83707334  1
  In  In1  1  -0.00080668  0.18616080  0.15035912  1
  In  In2  1  0.51110623  0.67500579  0.16850086  1
  In  In3  1  0.15742298  0.32818772  0.15788935  1
  In  In4  1  0.49704998  0.15669670  0.01889312  1
  In  In5  1  0.49863471  0.31522724  0.48964257  1
  In  In6  1  0.82888099  0.33507819  0.84367500  1
  In  In7  1  0.33993630  0.46681310  0.53762124  1
  In  In8  1  0.15319834  0.67832015  0.84642328  1
  In  In9  1  0.67087047  0.30684005  -0.00908132  1
  In  In10  1  0.04350556  0.67015654  0.68279502  1
  In  In11  1  0.36352121  0.66899033  0.02035479  1
  In  In12  1  0.49263686  0.18727948  0.66122347  1
  In  In13  1  0.15502235  0.46628294  0.34565534  1
  In  In14  1  0.16416019  0.49243905  0.68900959  1
  In  In15  1  -0.00123823  0.32926990  0.64089701  1
  In  In16  1  0.17237421  0.02009312  0.51938120  1
  In  In17  1  0.83732290  0.67615320  0.51879591  1
  In  In18  1  0.64047954  0.82887727  0.46579163  1
  In  In19  1  0.29393304  0.24574612  0.33640948  1
  In  In20  1  0.69360308  0.16818217  0.17826761  1
  In  In21  1  -0.00729655  0.84529364  0.49655809  1
  In  In22  1  0.31851946  0.69123244  0.67045097  1
  In  In23  1  0.83314967  0.44733711  0.28697207  1
  In  In24  1  0.65558886  0.83634441  0.84063044  1
  In  In25  1  0.17615904  0.86529460  -0.00057321  1
  In  In26  1  0.80480862  0.00928909  0.43612126  1
  In  In27  1  0.67122514  0.64550962  0.31725442  1
  In  In28  1  0.36150727  0.88651166  0.41660074  1
  In  In29  1  0.30779924  0.67633545  0.35596489  1
  In  In30  1  0.80889196  0.84674684  0.67923887  1
  In  In31  1  -0.00362293  0.02013252  0.69173649  1
  In  In32  1  0.32159070  0.85589370  0.83170374  1
  In  In33  1  0.16783462  0.64203054  0.54114312  1
  In  In34  1  0.15996191  0.81139340  0.68282178  1
  In  In35  1  0.75648650  0.69746228  0.02695313  1
  In  In36  1  0.86362650  -0.00358429  0.14830718  1
  In  In37  1  -0.00512726  0.46905037  0.45805237  1
  In  In38  1  0.91197335  0.60852445  0.98701109  1
  In  In39  1  0.83247710  0.13683522  0.66222623  1
  In  In40  1  0.65514590  0.33318497  0.31291297  1
  In  In41  1  0.48709610  0.66620665  0.50473932  1
  In  In42  1  -0.01138859  0.65987966  0.32427442  1
  In  In43  1  -0.02854199  0.17100985  0.50158101  1
  In  In44  1  0.49850014  0.43218555  0.69760263  1
  In  In45  1  0.80599539  0.30668864  0.46810690  1
  In  In46  1  0.65403285  0.65456480  0.67777452  1
  In  In47  1  0.00741688  0.83603629  0.15267818  1
  In  In48  1  0.34738467  0.15595581  0.18041233  1
  In  In49  1  -0.01225766  0.49780793  0.84528795  1
  In  In50  1  0.67356171  0.48739635  0.14488389  1
  In  In51  1  0.01355734  0.18039112  0.83762737  1
  In  In52  1  0.15375005  0.16968941  -0.00632374  1
  In  In53  1  0.82946515  0.81254311  0.25272052  1
  In  In54  1  0.53334001  0.83975100  0.02646684  1
  In  In55  1  0.85676374  0.50143089  0.67807257  1
  In  In56  1  0.48245216  0.02639226  0.44459605  1
  In  In57  1  0.18469261  0.66249806  0.15697178  1
  In  In58  1  -0.00948031  0.00164452  0.33549965  1
  In  In59  1  0.12729582  0.82368917  0.33032920  1
  In  In60  1  0.67073832  0.01769831  0.02326641  1
  In  In61  1  0.49638531  0.52541570  0.33675235  1
  In  In62  1  0.35015925  -0.00181783  0.63419665  1
  In  In63  1  0.51346992  0.47988032  -0.01297592  1
  In  In64  1  0.50431812  0.00206917  0.83426904  1
  In  In65  1  0.83061750  0.02989004  0.85833116  1
  In  In66  1  0.65109631  -0.00129205  0.63572842  1
  In  In67  1  0.33043361  0.02109691  0.00613510  1
  In  In68  1  0.34226471  0.49123419  0.14792158  1
  In  In69  1  0.67675336  0.32767959  0.66279466  1
  In  In70  1  0.48111923  0.66222010  0.82360926  1
  In  In71  1  0.32529607  0.34225884  -0.01834194  1
  Te  Te72  1  0.05547551  0.08054584  0.06015435  1
  Te  Te73  1  0.07730178  0.08903953  0.42283192  1
  Te  Te74  1  0.09952182  0.11506181  0.73524973  1
  Te  Te75  1  0.08078856  0.44024182  0.10232335  1
  Te  Te76  1  0.07682000  0.35408772  0.40739274  1
  Te  Te77  1  0.06572086  0.40055534  0.75674080  1
  Te  Te78  1  0.10144888  0.75119252  0.06815618  1
  Te  Te79  1  0.07589454  0.72513396  0.44110826  1
  Te  Te80  1  0.06141670  0.79186929  0.80358474  1
  Te  Te81  1  0.43777615  0.05513930  0.11257877  1
  Te  Te82  1  0.38970087  0.13815341  0.39292470  1
  Te  Te83  1  0.40725423  0.08569881  0.75481142  1
  Te  Te84  1  0.43165047  0.39175971  0.08028560  1
  Te  Te85  1  0.41719101  0.42280872  0.41398167  1
  Te  Te86  1  0.37347968  0.40120173  0.76687033  1
  Te  Te87  1  0.41763437  0.77911064  0.10957213  1
  Te  Te88  1  0.43419892  0.74997043  0.39124508  1
  Te  Te89  1  0.41913257  0.77558326  0.74368697  1
  Te  Te90  1  0.78291472  0.10456464  0.07393660  1
  Te  Te91  1  0.73077936  0.12561947  0.38645765  1
  Te  Te92  1  0.72952633  0.06680569  0.74600609  1
  Te  Te93  1  0.76066983  0.39632109  0.06932080  1
  Te  Te94  1  0.73779784  0.42591549  0.40305885  1
  Te  Te95  1  0.74964495  0.42736473  0.75375590  1
  Te  Te96  1  0.72810969  0.78973884  0.13922059  1
  Te  Te97  1  0.75228470  0.74054337  0.41105974  1
  Te  Te98  1  0.74591261  0.73919476  0.76498369  1
  Te  Te99  1  0.10521086  0.22449359  0.24512728  1
  Te  Te100  1  0.07872669  0.21376757  0.59567063  1
  Te  Te101  1  0.07815970  0.27592793  0.92841476  1
  Te  Te102  1  0.10715309  0.58643726  0.26423176  1
  Te  Te103  1  0.05180170  0.55292494  0.58170696  1
  Te  Te104  1  0.06619078  0.59316960  0.93179981  1
  Te  Te105  1  0.08503723  0.93559209  0.23641388  1
  Te  Te106  1  0.07757220  0.91877141  0.59902318  1
  Te  Te107  1  0.10585004  0.91378583  0.88387161  1
  Te  Te108  1  0.42882648  0.24346947  0.27129376  1
  Te  Te109  1  0.39643438  0.26406828  0.58199061  1
  Te  Te110  1  0.42286059  0.24316872  0.91818652  1
  Te  Te111  1  0.39388451  0.59687097  0.24644634  1
  Te  Te112  1  0.40833629  0.58336453  0.60429832  1
  Te  Te113  1  0.41018916  0.56658874  0.91712782  1
  Te  Te114  1  0.44217721  0.95632420  0.31500502  1
  Te  Te115  1  0.43490416  0.91269909  0.54632667  1
  Te  Te116  1  0.42730530  0.91496621  0.93221761  1
  Te  Te117  1  0.77605424  0.28602822  0.23229818  1
  Te  Te118  1  0.74126273  0.22118982  0.57539614  1
  Te  Te119  1  0.76339630  0.22297531  0.91062382  1
  Te  Te120  1  0.76933513  0.57226448  0.22743790  1
  Te  Te121  1  0.75217738  0.57612232  0.59274840  1
  Te  Te122  1  0.77368407  0.57975429  0.94226798  1
  Te  Te123  1  0.75670584  0.93922187  0.23319905  1
  Te  Te124  1  0.74524607  0.90807308  0.55642181  1
  Te  Te125  1  0.74271591  0.92326112  0.92662425  1
  Te  Te126  1  0.26547054  0.23593996  0.08006007  1
  Te  Te127  1  0.22580256  0.30568177  0.45373715  1
  Te  Te128  1  0.25668276  0.29448289  0.75634026  1
  Te  Te129  1  0.25104306  0.56855242  0.05703579  1
  Te  Te130  1  0.25021876  0.56245372  0.43789863  1
  Te  Te131  1  0.24834453  0.59450142  0.76248870  1
  Te  Te132  1  0.24950003  0.94300767  0.09909132  1
  Te  Te133  1  0.21458474  0.92183043  0.40967183  1
  Te  Te134  1  0.24747422  0.93053802  0.72577463  1
  Te  Te135  1  0.58578144  0.24462337  0.10296908  1
  Te  Te136  1  0.59779309  0.23295815  0.40834678  1
  Te  Te137  1  0.58423970  0.25655701  0.75297884  1
  Te  Te138  1  0.58504768  0.58731041  0.07150855  1
  Te  Te139  1  0.59433037  0.58401642  0.43458063  1
  Te  Te140  1  0.56809187  0.55779569  0.75540638  1
  Te  Te141  1  0.58348758  0.94377200  0.11626189  1
  Te  Te142  1  0.59576282  0.94191718  0.38263366  1
  Te  Te143  1  0.57536984  0.91143027  0.73557405  1
  Te  Te144  1  0.90384440  0.30115396  0.13982507  1
  Te  Te145  1  0.91937640  0.25427453  0.39220006  1
  Te  Te146  1  0.90524650  0.24574885  0.73632877  1
  Te  Te147  1  0.94713799  0.51912967  0.10123541  1
  Te  Te148  1  0.89803488  0.57868262  0.41346226  1
  Te  Te149  1  0.92562032  0.60769504  0.75930965  1
  Te  Te150  1  0.92450228  0.90199096  0.05050609  1
  Te  Te151  1  0.90437991  0.88508189  0.38122015  1
  Te  Te152  1  0.90147442  0.92817286  0.76733441  1
  Te  Te153  1  0.26498119  0.10405290  0.29420061  1
  Te  Te154  1  0.27884717  0.10730413  0.56795085  1
  Te  Te155  1  0.23292703  0.07329817  0.90397155  1
  Te  Te156  1  0.25818263  0.41279490  0.24504129  1
  Te  Te157  1  0.21113034  0.40225562  0.57803303  1
  Te  Te158  1  0.25245351  0.40504975  0.87068051  1
  Te  Te159  1  0.24470623  0.76620268  0.25201057  1
  Te  Te160  1  0.25018883  0.76896649  0.56261970  1
  Te  Te161  1  0.27197430  0.74543676  0.92273500  1
  Te  Te162  1  0.61118600  0.11351412  0.29066698  1
  Te  Te163  1  0.56157328  0.09312362  0.56358008  1
  Te  Te164  1  0.59037254  0.09278190  0.91709493  1
  Te  Te165  1  0.56699897  0.43259783  0.23976003  1
  Te  Te166  1  0.58289685  0.41176437  0.57648799  1
  Te  Te167  1  0.58853616  0.39002883  0.90007599  1
  Te  Te168  1  0.60026742  0.75750532  0.25186743  1
  Te  Te169  1  0.58319094  0.75127864  0.58566671  1
  Te  Te170  1  0.57284047  0.73723811  0.91963436  1
  Te  Te171  1  0.91631445  0.09791613  0.24955654  1
  Te  Te172  1  0.90309797  0.04553480  0.56380917  1
  Te  Te173  1  0.94926327  0.08250199  0.92934908  1
  Te  Te174  1  0.96753361  0.42258732  0.22390534  1
  Te  Te175  1  0.88845893  0.40074286  0.56458084  1
  Te  Te176  1  0.91682636  0.40711920  0.93694217  1
  Te  Te177  1  0.92930930  0.71277618  0.19729973  1
  Te  Te178  1  0.92446485  0.76215838  0.60955154  1
  Te  Te179  1  0.87922388  0.75375054  0.96502667  1
