# generated using pymatgen
data_In2Te3
_symmetry_space_group_name_H-M   'P 1'
_cell_length_a   18.97356619
_cell_length_b   19.07550013
_cell_length_c   19.02116566
_cell_angle_alpha   89.94839047
_cell_angle_beta   89.81217997
_cell_angle_gamma   89.85851669
_symmetry_Int_Tables_number   1
_chemical_formula_structural   In2Te3
_chemical_formula_sum   'In72 Te108'
_cell_volume   6884.27479419
_cell_formula_units_Z   36
loop_
 _symmetry_equiv_pos_site_id
 _symmetry_equiv_pos_as_xyz
  1  'x, y, z'
loop_
 _atom_site_type_symbol
 _atom_site_label
 _atom_site_symmetry_multiplicity
 _atom_site_fract_x
 _atom_site_fract_y
 _atom_site_fract_z
 _atom_site_occupancy
  In  In0  1  0.65120965  0.67910184  0.32306658  1
  In  In1  1  0.84694073  -0.00163622  0.50209253  1
  In  In2  1  0.18275183  0.17307738  -0.01745640  1
  In  In3  1  0.20046294  0.53273667  0.66640170  1
  In  In4  1  0.16613603  0.48679179  0.03408711  1
  In  In5  1  0.00593102  -0.03305642  0.67677305  1
  In  In6  1  0.20212895  0.00270681  0.80597300  1
  In  In7  1  0.20331237  0.19239890  0.37087609  1
  In  In8  1  0.34338103  0.66056548  -0.01545831  1
  In  In9  1  0.84509804  0.71515781  0.07893083  1
  In  In10  1  0.49096446  0.32554024  0.16475692  1
  In  In11  1  0.62607371  0.62035796  0.67397988  1
  In  In12  1  0.32961319  0.67629179  0.32619936  1
  In  In13  1  0.59859779  0.17520255  0.49772845  1
  In  In14  1  0.01797786  0.68271057  0.67216650  1
  In  In15  1  0.85294972  0.48576652  0.71320566  1
  In  In16  1  0.19726421  0.85520267  -0.00853171  1
  In  In17  1  0.65178439  0.82866696  0.48138025  1
  In  In18  1  0.85666111  0.52449496  -0.00584548  1
  In  In19  1  0.84906404  0.18382047  0.01311586  1
  In  In20  1  -0.00114400  0.84677081  0.16123580  1
  In  In21  1  0.81405927  0.50244955  0.35017709  1
  In  In22  1  0.17439525  0.83834043  0.33405763  1
  In  In23  1  0.40778751  0.85209786  0.72385580  1
  In  In24  1  0.49012206  0.49525351  0.68709354  1
  In  In25  1  0.47189431  -0.00219023  0.82537204  1
  In  In26  1  0.02999705  0.33609234  0.68693966  1
  In  In27  1  0.51674877  0.67717842  0.16641595  1
  In  In28  1  0.65580731  0.47196714  0.51152092  1
  In  In29  1  0.67820418  -0.02265327  -0.00698152  1
  In  In30  1  0.00750913  0.52579270  0.85293733  1
  In  In31  1  0.62426782  0.32656154  0.63450853  1
  In  In32  1  0.64615908  0.48653013  0.83944758  1
  In  In33  1  0.48404838  0.49077990  0.33528469  1
  In  In34  1  0.67002249  0.50604060  0.15010426  1
  In  In35  1  0.02744185  0.34013383  0.32584456  1
  In  In36  1  0.02515066  0.16638869  0.85227453  1
  In  In37  1  0.81055216  0.00891812  0.17620947  1
  In  In38  1  0.48161627  0.67032743  0.49577560  1
  In  In39  1  0.01465129  0.49345518  0.47376302  1
  In  In40  1  0.79019693  0.72616603  0.88262575  1
  In  In41  1  0.15876397  0.66970201  0.18621940  1
  In  In42  1  0.82600160  0.36645786  0.84859812  1
  In  In43  1  0.19691343  0.16667083  0.64315158  1
  In  In44  1  0.65899316  0.14644352  0.83117430  1
  In  In45  1  0.86474899  0.32591091  0.17237449  1
  In  In46  1  0.50763268  0.31593529  0.83307109  1
  In  In47  1  0.64185885  0.69227737  -0.00028075  1
  In  In48  1  0.32364970  0.48577773  0.48984915  1
  In  In49  1  0.51601790  0.00452884  0.17025427  1
  In  In50  1  0.83542561  0.33618451  0.50776448  1
  In  In51  1  0.19172224  -0.00252374  0.14773924  1
  In  In52  1  0.20346216  0.48243550  0.29825981  1
  In  In53  1  0.17827792  0.71097892  0.51063857  1
  In  In54  1  0.66307860  0.31835996  0.02692537  1
  In  In55  1  0.83143234  0.16497129  0.68625012  1
  In  In56  1  0.47675663  0.14877698  0.33305328  1
  In  In57  1  0.34071287  0.15749233  0.14915786  1
  In  In58  1  0.80917073  0.67403351  0.53047317  1
  In  In59  1  0.18401825  0.66544632  0.82621569  1
  In  In60  1  0.62833522  0.83168884  0.83679344  1
  In  In61  1  0.01487811  0.16968710  0.48559533  1
  In  In62  1  0.34069460  -0.01987114  0.33559009  1
  In  In63  1  0.33233988  0.17626169  0.81251717  1
  In  In64  1  0.00921980  0.00420930  -0.00408805  1
  In  In65  1  0.34024240  0.33680754  0.00676511  1
  In  In66  1  0.82125697  0.82920314  0.69530670  1
  In  In67  1  0.00883077  0.03221623  0.35031376  1
  In  In68  1  0.81307568  0.16478165  0.31672126  1
  In  In69  1  0.01941480  0.84999166  0.49121177  1
  In  In70  1  0.65677510  0.01213335  0.65702425  1
  In  In71  1  0.65370542  -0.00388226  0.34546645  1
  Te  Te72  1  0.09591308  0.09275607  0.07954178  1
  Te  Te73  1  0.12333874  0.07695191  0.43823488  1
  Te  Te74  1  0.08942398  0.09025661  0.73898516  1
  Te  Te75  1  0.04341742  0.40828247  0.05645004  1
  Te  Te76  1  0.12498289  0.41052873  0.41532782  1
  Te  Te77  1  0.09453633  0.45543139  0.75053361  1
  Te  Te78  1  0.10846392  0.77572581  0.08522534  1
  Te  Te79  1  0.07498571  0.74458888  0.39929769  1
  Te  Te80  1  0.09253728  0.76372409  0.76486650  1
  Te  Te81  1  0.41333700  0.05371185  0.07454446  1
  Te  Te82  1  0.38568121  0.08547801  0.43464299  1
  Te  Te83  1  0.41463075  0.08811934  0.72207337  1
  Te  Te84  1  0.39507044  0.42857542  0.11202530  1
  Te  Te85  1  0.36283335  0.41353937  0.36717785  1
  Te  Te86  1  0.41502677  0.38369817  0.74354286  1
  Te  Te87  1  0.42388551  0.74583693  0.07450215  1
  Te  Te88  1  0.40009142  0.76424050  0.42071583  1
  Te  Te89  1  0.39218372  0.70494255  0.71193512  1
  Te  Te90  1  0.74227041  0.09313070  0.07045318  1
  Te  Te91  1  0.74936847  0.08921920  0.43134124  1
  Te  Te92  1  0.75899981  0.05464101  0.76015360  1
  Te  Te93  1  0.77216221  0.41969668  0.07323246  1
  Te  Te94  1  0.73252162  0.38975440  0.40973611  1
  Te  Te95  1  0.71758144  0.39597619  0.73910779  1
  Te  Te96  1  0.70869085  0.77403932  0.10099581  1
  Te  Te97  1  0.75857268  0.74895118  0.40908946  1
  Te  Te98  1  0.72185474  0.72549671  0.74085682  1
  Te  Te99  1  0.10890302  0.23496871  0.26793621  1
  Te  Te100  1  0.09597849  0.26215324  0.57216889  1
  Te  Te101  1  0.11904490  0.26981236  0.89134098  1
  Te  Te102  1  0.08999571  0.56635373  0.26354804  1
  Te  Te103  1  0.08368115  0.58926061  0.57216842  1
  Te  Te104  1  0.10827211  0.59573984  0.93693937  1
  Te  Te105  1  0.08821205  0.93830845  0.25314272  1
  Te  Te106  1  0.10710735  0.91861581  0.58454570  1
  Te  Te107  1  0.10228784  0.93254620  0.90197420  1
  Te  Te108  1  0.39428586  0.24974051  0.25486407  1
  Te  Te109  1  0.45326242  0.22272194  0.52348142  1
  Te  Te110  1  0.41719756  0.23519177  0.92402990  1
  Te  Te111  1  0.41779140  0.58807056  0.24161574  1
  Te  Te112  1  0.40741613  0.57365270  0.58208646  1
  Te  Te113  1  0.37172141  0.53500039  0.91172771  1
  Te  Te114  1  0.44149613  0.90783894  0.25483069  1
  Te  Te115  1  0.36203405  0.91251735  0.59409953  1
  Te  Te116  1  0.40818785  0.87710620  0.87803285  1
  Te  Te117  1  0.74734457  0.25935181  0.22816022  1
  Te  Te118  1  0.74656180  0.23984103  0.58526349  1
  Te  Te119  1  0.74078299  0.24902602  0.90684339  1
  Te  Te120  1  0.74920667  0.59090925  0.24579971  1
  Te  Te121  1  0.74929277  0.55202294  0.60115676  1
  Te  Te122  1  0.74353821  0.57917959  0.90924902  1
  Te  Te123  1  0.74843330  0.91571847  0.26864374  1
  Te  Te124  1  0.75088775  0.90969760  0.57984133  1
  Te  Te125  1  0.75178976  0.87566391  0.90841562  1
  Te  Te126  1  0.23925694  0.25886602  0.09299241  1
  Te  Te127  1  0.30823780  0.22729081  0.46774350  1
  Te  Te128  1  0.23254038  0.26310282  0.74853745  1
  Te  Te129  1  0.25256768  0.59832516  0.09163619  1
  Te  Te130  1  0.24369903  0.60306510  0.42743866  1
  Te  Te131  1  0.29918089  0.58060217  0.77213201  1
  Te  Te132  1  0.29671525  0.92402840  0.07654273  1
  Te  Te133  1  0.26059174  0.90198048  0.43410091  1
  Te  Te134  1  0.25859953  0.90112374  0.71207379  1
  Te  Te135  1  0.56104182  0.22978368  0.07865938  1
  Te  Te136  1  0.54932709  0.26634554  0.39467247  1
  Te  Te137  1  0.57293118  0.22006258  0.73194750  1
  Te  Te138  1  0.57106791  0.57472855  0.06038682  1
  Te  Te139  1  0.58861803  0.57787573  0.41881698  1
  Te  Te140  1  0.54502684  0.59019016  0.79822435  1
  Te  Te141  1  0.60738480  0.90639826  0.10110608  1
  Te  Te142  1  0.55635816  0.93078133  0.43671172  1
  Te  Te143  1  0.56707281  0.90740643  0.72330213  1
  Te  Te144  1  0.95828448  0.25823262  0.07873877  1
  Te  Te145  1  0.91411885  0.25232647  0.40825285  1
  Te  Te146  1  0.91340088  0.26793071  0.76007696  1
  Te  Te147  1  0.93447547  0.59470231  0.09519197  1
  Te  Te148  1  0.90118687  0.58761208  0.43877402  1
  Te  Te149  1  0.91809837  0.61137693  0.76348265  1
  Te  Te150  1  0.90605683  0.93362744  0.07993224  1
  Te  Te151  1  0.92030132  0.91743621  0.39839237  1
  Te  Te152  1  0.92324433  0.89714532  0.77348419  1
  Te  Te153  1  0.25436188  0.08307162  0.25668501  1
  Te  Te154  1  0.30033020  0.06327593  0.61897934  1
  Te  Te155  1  0.27609343  0.07633974  0.91339639  1
  Te  Te156  1  0.25349982  0.41531062  0.17852073  1
  Te  Te157  1  0.25505544  0.41574969  0.59899959  1
  Te  Te158  1  0.25745643  0.43171809  0.92506888  1
  Te  Te159  1  0.26247441  0.77272901  0.23127503  1
  Te  Te160  1  0.27284467  0.73584716  0.61890792  1
  Te  Te161  1  0.27491254  0.76834167  0.89429859  1
  Te  Te162  1  0.59676660  0.10123972  0.25324477  1
  Te  Te163  1  0.55412667  0.04861906  0.55820812  1
  Te  Te164  1  0.57244598  0.06067088  0.91937581  1
  Te  Te165  1  0.58361593  0.42274779  0.24118627  1
  Te  Te166  1  0.52742773  0.41205534  0.55851007  1
  Te  Te167  1  0.57081921  0.40364485  0.93992891  1
  Te  Te168  1  0.54706333  0.77236848  0.27648213  1
  Te  Te169  1  0.58545391  0.73660403  0.58304874  1
  Te  Te170  1  0.53317519  0.76961526  0.93176582  1
  Te  Te171  1  0.92273690  0.09345407  0.24141451  1
  Te  Te172  1  0.92985761  0.09141625  0.58883166  1
  Te  Te173  1  0.91144801  0.08800908  0.91310337  1
  Te  Te174  1  0.92127657  0.42934514  0.26644555  1
  Te  Te175  1  0.93300228  0.41672688  0.59009415  1
  Te  Te176  1  0.94946235  0.40665804  0.93164402  1
  Te  Te177  1  0.91524304  0.73722122  0.20970792  1
  Te  Te178  1  0.91823445  0.76780856  0.58240951  1
  Te  Te179  1  0.91915791  0.72337488  0.94994336  1
