# generated using pymatgen
data_In2Te3
_symmetry_space_group_name_H-M   'P 1'
_cell_length_a   18.88882737
_cell_length_b   18.89119024
_cell_length_c   18.89930725
_cell_angle_alpha   89.98097465
_cell_angle_beta   89.97405230
_cell_angle_gamma   89.96905931
_symmetry_Int_Tables_number   1
_chemical_formula_structural   In2Te3
_chemical_formula_sum   'In72 Te108'
_cell_volume   6743.88371011
_cell_formula_units_Z   36
loop_
 _symmetry_equiv_pos_site_id
 _symmetry_equiv_pos_as_xyz
  1  'x, y, z'
loop_
 _atom_site_type_symbol
 _atom_site_label
 _atom_site_symmetry_multiplicity
 _atom_site_fract_x
 _atom_site_fract_y
 _atom_site_fract_z
 _atom_site_occupancy
  In  In0  1  0.32400048  0.52704407  0.16137267  1
  In  In1  1  0.01511758  0.31627718  0.02084266  1
  In  In2  1  0.34326421  0.16805373  0.84353761  1
  In  In3  1  0.49831136  0.32268160  0.81371549  1
  In  In4  1  0.81236647  0.65815145  0.49925087  1
  In  In5  1  0.65125559  0.51035559  0.81731510  1
  In  In6  1  -0.02557603  0.69783882  0.29223298  1
  In  In7  1  0.83736941  0.50337221  0.32231086  1
  In  In8  1  0.33734272  0.19236842  0.50473094  1
  In  In9  1  0.64690085  0.34123904  0.67386408  1
  In  In10  1  0.17174876  0.15377625  0.68581085  1
  In  In11  1  0.84470802  -0.01008972  0.51530389  1
  In  In12  1  0.18344789  0.67536045  0.17282121  1
  In  In13  1  -0.00820504  -0.01441411  0.31603691  1
  In  In14  1  0.48513287  0.16684582  -0.00971487  1
  In  In15  1  0.67530598  0.51592016  0.18224289  1
  In  In16  1  0.49581547  0.83742169  0.33784056  1
  In  In17  1  -0.00868753  0.14971077  0.14398277  1
  In  In18  1  0.17485979  0.48857469  0.67098645  1
  In  In19  1  0.83762200  0.85824817  0.00917261  1
  In  In20  1  0.63762441  0.78580625  0.49032248  1
  In  In21  1  0.17398077  0.83505900  0.31107808  1
  In  In22  1  0.01546148  0.83427402  0.84645628  1
  In  In23  1  0.01293123  0.85310544  0.47942829  1
  In  In24  1  0.34528747  0.71396286  -0.00852271  1
  In  In25  1  0.66172791  0.82790354  0.15115670  1
  In  In26  1  0.68603955  0.34138242  0.33491066  1
  In  In27  1  0.48946904  0.00127664  0.82890299  1
  In  In28  1  0.17385500  0.65746316  0.84148054  1
  In  In29  1  0.48719498  -0.01257972  0.52600624  1
  In  In30  1  0.15866628  0.01295062  0.48436261  1
  In  In31  1  0.51390373  0.34599841  0.15534938  1
  In  In32  1  0.65355542  0.15978060  0.49486922  1
  In  In33  1  0.31759555  0.15320910  0.18070518  1
  In  In34  1  0.62758647  0.70137963  -0.03280765  1
  In  In35  1  0.19264423  0.69365111  0.50873978  1
  In  In36  1  0.19298741  0.34234439  0.50004011  1
  In  In37  1  0.82420352  0.81761458  0.67461299  1
  In  In38  1  0.00109186  0.64496499  0.01000660  1
  In  In39  1  0.34337743  0.33736781  0.34278877  1
  In  In40  1  -0.01656589  -0.00621609  0.67225688  1
  In  In41  1  0.32425695  0.48494242  0.84680964  1
  In  In42  1  0.66320568  -0.01112584  0.67798492  1
  In  In43  1  -0.02943317  0.13304685  0.85846745  1
  In  In44  1  0.83909766  0.31702004  0.83990777  1
  In  In45  1  -0.01661205  0.65842390  0.67401728  1
  In  In46  1  0.20533545  0.85644243  0.69346027  1
  In  In47  1  0.83887107  0.49626291  0.00006275  1
  In  In48  1  0.17235238  0.84417091  0.00095316  1
  In  In49  1  0.83652947  0.35300985  0.48459046  1
  In  In50  1  0.83650054  0.30722759  0.17517451  1
  In  In51  1  0.36281733  0.82067219  0.51160433  1
  In  In52  1  0.32681988  0.34652958  0.66350375  1
  In  In53  1  0.67925866  -0.01743797  0.31024431  1
  In  In54  1  0.52210070  0.14269710  0.32165833  1
  In  In55  1  0.32519001  -0.01007362  0.00904010  1
  In  In56  1  0.68484402  0.30761638  -0.01284716  1
  In  In57  1  0.01841551  0.34068605  0.67248166  1
  In  In58  1  0.16129821  0.32278238  0.16426960  1
  In  In59  1  0.63514193  0.66078669  0.64632021  1
  In  In60  1  0.81701247  0.14910252  0.65805676  1
  In  In61  1  0.15694392  0.16134127  0.00816490  1
  In  In62  1  0.00412573  0.49157221  0.50343982  1
  In  In63  1  0.49367077  0.37134416  0.50651245  1
  In  In64  1  0.49206569  0.67863588  0.16670683  1
  In  In65  1  0.84559173  0.17878280  0.33148502  1
  In  In66  1  0.66811131  -0.01833787  0.00403218  1
  In  In67  1  0.00569187  0.47879654  0.14740111  1
  In  In68  1  0.32223209  -0.00243775  0.32881736  1
  In  In69  1  0.16766787  0.51912516  0.35296192  1
  In  In70  1  0.83035541  0.66206972  0.81796919  1
  In  In71  1  0.48974364  0.49558992  0.00253793  1
  Te  Te72  1  0.07247943  0.05353548  0.06437133  1
  Te  Te73  1  0.05546358  0.08257102  0.40863349  1
  Te  Te74  1  0.07852199  0.06507751  0.76643386  1
  Te  Te75  1  0.11885856  0.42917483  0.05594745  1
  Te  Te76  1  0.08534923  0.40420420  0.41024632  1
  Te  Te77  1  0.10350022  0.40907991  0.77473573  1
  Te  Te78  1  0.08413569  0.74727627  0.08265528  1
  Te  Te79  1  0.08252663  0.74124212  0.40283257  1
  Te  Te80  1  0.08723107  0.75116077  0.73873516  1
  Te  Te81  1  0.41746515  0.07876879  0.09363008  1
  Te  Te82  1  0.42061659  0.08698167  0.42247200  1
  Te  Te83  1  0.40897503  0.08910828  0.73699760  1
  Te  Te84  1  0.39484196  0.41270869  0.08617508  1
  Te  Te85  1  0.41450044  0.44749314  0.40891124  1
  Te  Te86  1  0.42441635  0.43355143  0.74213891  1
  Te  Te87  1  0.43402623  0.78864865  0.08582259  1
  Te  Te88  1  0.43019708  0.72687404  0.41629528  1
  Te  Te89  1  0.44415532  0.71199910  0.79585937  1
  Te  Te90  1  0.77691782  0.06513972  0.06135490  1
  Te  Te91  1  0.75675671  0.07907666  0.41886722  1
  Te  Te92  1  0.76545383  0.05813639  0.75965266  1
  Te  Te93  1  0.74668017  0.40977027  0.09541833  1
  Te  Te94  1  0.73706143  0.45152053  0.42667324  1
  Te  Te95  1  0.75207218  0.41314262  0.75774584  1
  Te  Te96  1  0.74406779  0.74148614  0.05717764  1
  Te  Te97  1  0.75011463  0.74967529  0.40324306  1
  Te  Te98  1  0.72114362  0.74377400  0.75492335  1
  Te  Te99  1  0.06112146  0.24381652  0.23508228  1
  Te  Te100  1  0.10571372  0.25140743  0.58589789  1
  Te  Te101  1  0.07342603  0.23566285  0.90522559  1
  Te  Te102  1  0.08031460  0.57877939  0.24038031  1
  Te  Te103  1  0.09498931  0.58951731  0.57903340  1
  Te  Te104  1  0.05960524  0.57870191  0.89184178  1
  Te  Te105  1  0.07244779  0.89986637  0.22376080  1
  Te  Te106  1  0.09486599  0.91318300  0.59556822  1
  Te  Te107  1  0.08035210  0.93792991  0.92933465  1
  Te  Te108  1  0.42880097  0.24814033  0.24743001  1
  Te  Te109  1  0.43517213  0.26202231  0.59580182  1
  Te  Te110  1  0.40590199  0.27980972  0.92576738  1
  Te  Te111  1  0.43135785  0.57314437  0.24935244  1
  Te  Te112  1  0.46943723  0.64379220  0.55539220  1
  Te  Te113  1  0.41499009  0.59600669  0.91809074  1
  Te  Te114  1  0.42313182  0.92853645  0.24916681  1
  Te  Te115  1  0.39749134  0.91760974  0.62430902  1
  Te  Te116  1  0.41555732  0.90906660  0.92092411  1
  Te  Te117  1  0.72727540  0.22732400  0.24448848  1
  Te  Te118  1  0.74292111  0.25842873  0.57164598  1
  Te  Te119  1  0.74812411  0.21467741  0.89365690  1
  Te  Te120  1  0.75468514  0.60965846  0.26177111  1
  Te  Te121  1  0.76589828  0.59115981  0.61927217  1
  Te  Te122  1  0.73959315  0.58121211  0.92152553  1
  Te  Te123  1  0.76999068  0.90566713  0.22103061  1
  Te  Te124  1  0.73878391  0.89751380  0.57461596  1
  Te  Te125  1  0.73750020  0.89231128  0.90839232  1
  Te  Te126  1  0.26070078  0.24859981  0.07662504  1
  Te  Te127  1  0.24094093  0.23783652  0.39687057  1
  Te  Te128  1  0.25069492  0.25959449  0.76105243  1
  Te  Te129  1  0.25256266  0.60809506  0.05471187  1
  Te  Te130  1  0.26548921  0.61230151  0.41001301  1
  Te  Te131  1  0.26628390  0.58517658  0.74477310  1
  Te  Te132  1  0.24926077  0.91046029  0.10672178  1
  Te  Te133  1  0.25079793  0.90001087  0.43557566  1
  Te  Te134  1  0.30175851  0.95529795  0.74347666  1
  Te  Te135  1  0.58848060  0.23650034  0.08110608  1
  Te  Te136  1  0.57408011  0.26270981  0.41550082  1
  Te  Te137  1  0.59687995  0.23115311  0.75667297  1
  Te  Te138  1  0.58738371  0.58643067  0.07565598  1
  Te  Te139  1  0.60001218  0.60089096  0.50530882  1
  Te  Te140  1  0.54711168  0.59932839  0.75868944  1
  Te  Te141  1  0.56019077  0.90232200  0.07226678  1
  Te  Te142  1  0.58810263  0.93013595  0.42713707  1
  Te  Te143  1  0.57398103  0.89980830  0.75589501  1
  Te  Te144  1  0.89212649  0.23228716  0.05729816  1
  Te  Te145  1  0.92793985  0.25757044  0.42330209  1
  Te  Te146  1  0.92645672  0.23403035  0.74073917  1
  Te  Te147  1  0.90082414  0.58385337  0.10755055  1
  Te  Te148  1  0.92905470  0.58941574  0.41439744  1
  Te  Te149  1  0.92255979  0.55978362  0.76355594  1
  Te  Te150  1  0.94870287  0.88415261  0.10318293  1
  Te  Te151  1  0.89370165  0.90177091  0.40142960  1
  Te  Te152  1  0.90422066  0.90768708  0.76798352  1
  Te  Te153  1  0.22057303  0.07403835  0.25632935  1
  Te  Te154  1  0.25480416  0.08595696  0.57726226  1
  Te  Te155  1  0.24482194  0.07839412  0.91427217  1
  Te  Te156  1  0.24395828  0.42074692  0.25214009  1
  Te  Te157  1  0.27743272  0.45064657  0.56277655  1
  Te  Te158  1  0.20672918  0.42487034  0.90819306  1
  Te  Te159  1  0.27827736  0.74520609  0.25989751  1
  Te  Te160  1  0.28046191  0.74551607  0.62114312  1
  Te  Te161  1  0.25298678  0.77857174  0.88797621  1
  Te  Te162  1  0.59108761  0.06080917  0.22254483  1
  Te  Te163  1  0.57398733  0.08815968  0.60091144  1
  Te  Te164  1  0.58410521  0.08300731  0.91509199  1
  Te  Te165  1  0.58115421  0.42874414  0.26411366  1
  Te  Te166  1  0.58667887  0.44974972  0.59120295  1
  Te  Te167  1  0.58762344  0.40971066  0.92147585  1
  Te  Te168  1  0.59121525  0.74636255  0.26016187  1
  Te  Te169  1  0.54105231  0.77774810  0.60468566  1
  Te  Te170  1  0.53251316  0.79004930  0.88470513  1
  Te  Te171  1  0.89511141  0.07311912  0.23495170  1
  Te  Te172  1  0.93446989  0.09816898  0.57304716  1
  Te  Te173  1  0.89550565  0.06272648  0.96795944  1
  Te  Te174  1  0.92629780  0.40130850  0.25283129  1
  Te  Te175  1  0.91099516  0.42153093  0.59984094  1
  Te  Te176  1  0.93030637  0.40464755  0.92465168  1
  Te  Te177  1  0.89322393  0.79240730  0.21109162  1
  Te  Te178  1  0.92699088  0.76098719  0.57379940  1
  Te  Te179  1  0.91643786  0.74145625  0.91782039  1
