# generated using pymatgen
data_In2Te3
_symmetry_space_group_name_H-M   'P 1'
_cell_length_a   18.93134132
_cell_length_b   18.94862603
_cell_length_c   18.92230123
_cell_angle_alpha   90.22116499
_cell_angle_beta   89.99273764
_cell_angle_gamma   89.89331030
_symmetry_Int_Tables_number   1
_chemical_formula_structural   In2Te3
_chemical_formula_sum   'In72 Te108'
_cell_volume   6787.80050218
_cell_formula_units_Z   36
loop_
 _symmetry_equiv_pos_site_id
 _symmetry_equiv_pos_as_xyz
  1  'x, y, z'
loop_
 _atom_site_type_symbol
 _atom_site_label
 _atom_site_symmetry_multiplicity
 _atom_site_fract_x
 _atom_site_fract_y
 _atom_site_fract_z
 _atom_site_occupancy
  In  In0  1  0.48429469  0.52484317  0.31938308  1
  In  In1  1  0.50046156  0.65134804  0.85677191  1
  In  In2  1  0.88371792  0.03242188  0.13623411  1
  In  In3  1  0.84545793  0.64536385  0.82727137  1
  In  In4  1  0.16333565  0.82496118  0.01011016  1
  In  In5  1  -0.00708162  0.63730871  0.67308668  1
  In  In6  1  0.70917908  0.15433253  0.50308065  1
  In  In7  1  0.46727223  0.67776165  0.49022855  1
  In  In8  1  0.68463380  0.32893325  0.30564586  1
  In  In9  1  0.32490746  0.18348525  0.82970122  1
  In  In10  1  0.64946277  0.67259592  0.68582811  1
  In  In11  1  0.66396061  0.02706995  0.69662360  1
  In  In12  1  0.66571310  0.67975189  0.31315259  1
  In  In13  1  0.14411589  0.48533671  0.66680663  1
  In  In14  1  0.83508104  0.62367099  0.50153953  1
  In  In15  1  0.84942785  0.48483672  -0.02084048  1
  In  In16  1  0.50230767  0.85682271  0.68687019  1
  In  In17  1  0.66194311  0.51591530  0.18721343  1
  In  In18  1  0.85494186  0.17176422  -0.01771663  1
  In  In19  1  0.13394328  0.03196979  0.13529766  1
  In  In20  1  0.30230722  0.00459703  0.32122955  1
  In  In21  1  -0.00137211  0.01334945  0.69339932  1
  In  In22  1  0.46880143  0.66525130  0.17162853  1
  In  In23  1  0.46721244  0.20202699  0.69771030  1
  In  In24  1  0.31936406  0.34488836  0.66922335  1
  In  In25  1  0.19983772  0.50089151  0.00782369  1
  In  In26  1  0.49906322  0.81112104  0.01345667  1
  In  In27  1  0.84545217  0.82910513  0.31126278  1
  In  In28  1  0.15416146  0.82691173  0.67121510  1
  In  In29  1  0.82740990  0.00132232  0.85848193  1
  In  In30  1  0.02598261  0.20956278  0.51596092  1
  In  In31  1  0.48900140  0.33950269  0.83993766  1
  In  In32  1  0.01579025  0.65940694  0.00445246  1
  In  In33  1  0.32905343  0.33515498  -0.00440195  1
  In  In34  1  0.46323474  0.02915782  0.52084918  1
  In  In35  1  0.84836909  0.32582253  0.13984294  1
  In  In36  1  0.16216218  0.29891504  0.16494242  1
  In  In37  1  0.83727004  0.83766895  0.01411051  1
  In  In38  1  0.64277779  0.31160370  0.04347532  1
  In  In39  1  0.31952803  0.01747573  0.63815873  1
  In  In40  1  0.49414227  0.00093369  0.19363831  1
  In  In41  1  0.66039556  0.50087342  0.51833320  1
  In  In42  1  0.15926003  -0.00289643  0.86639830  1
  In  In43  1  0.18500764  0.50644124  0.35355695  1
  In  In44  1  0.69143249  0.01243583  0.35643366  1
  In  In45  1  0.52219206  0.34734607  0.47677447  1
  In  In46  1  0.82695369  0.83763461  0.66335084  1
  In  In47  1  0.00895576  0.81772910  0.48135852  1
  In  In48  1  0.82850983  0.50126717  0.35058920  1
  In  In49  1  0.34836724  0.00467226  0.00907898  1
  In  In50  1  0.65239264  0.84384496  0.47477808  1
  In  In51  1  0.15298043  0.15707470  0.33174788  1
  In  In52  1  0.18171115  0.82840204  0.28807119  1
  In  In53  1  0.50897037  0.01666466  0.86799251  1
  In  In54  1  0.01201152  0.48451251  0.16033759  1
  In  In55  1  0.31781499  0.80725626  0.47066591  1
  In  In56  1  0.66616216  0.83284227  0.15147782  1
  In  In57  1  0.33028931  0.64287235  0.65173996  1
  In  In58  1  0.34675459  0.33268571  0.32560118  1
  In  In59  1  0.83248828  -0.02384393  0.47579004  1
  In  In60  1  0.66767687  0.17590534  0.84863506  1
  In  In61  1  0.86978345  0.32028032  0.83364271  1
  In  In62  1  0.15523562  0.65921517  0.82231223  1
  In  In63  1  0.87441988  0.19460918  0.65071736  1
  In  In64  1  0.02506226  0.34964034  0.36044647  1
  In  In65  1  0.30288211  0.17608006  0.51527459  1
  In  In66  1  0.45892739  0.83817657  0.35891830  1
  In  In67  1  -0.00510760  0.67832167  0.31037367  1
  In  In68  1  0.50436853  0.17458499  0.31204262  1
  In  In69  1  0.30879996  0.81126609  0.83142800  1
  In  In70  1  0.48991162  0.51083904  0.01439820  1
  In  In71  1  0.69053632  0.47326929  0.82939489  1
  Te  Te72  1  0.06190866  0.12802044  0.04208744  1
  Te  Te73  1  0.07259448  0.09359544  0.43802459  1
  Te  Te74  1  0.11592816  0.08170997  0.75188258  1
  Te  Te75  1  0.09821471  0.40076613  0.07063830  1
  Te  Te76  1  0.11663976  0.41940781  0.45522875  1
  Te  Te77  1  0.02587699  0.39606649  0.68424027  1
  Te  Te78  1  0.09175204  0.73702654  0.10815862  1
  Te  Te79  1  0.10569987  0.74216621  0.39362206  1
  Te  Te80  1  0.05717328  0.75401340  0.75913776  1
  Te  Te81  1  0.43220819  0.09025976  0.09438551  1
  Te  Te82  1  0.39750716  0.09811450  0.40000076  1
  Te  Te83  1  0.42092156  0.06845776  0.74841363  1
  Te  Te84  1  0.40339272  0.42005533  0.09340404  1
  Te  Te85  1  0.41216107  0.43483130  0.41796993  1
  Te  Te86  1  0.40821214  0.42480463  0.75379783  1
  Te  Te87  1  0.38664516  0.75405242  0.08833507  1
  Te  Te88  1  0.37438600  0.70694147  0.36302413  1
  Te  Te89  1  0.41516576  0.74447895  0.74352032  1
  Te  Te90  1  0.76623000  0.09116323  0.06799600  1
  Te  Te91  1  0.81151255  0.10635146  0.38898727  1
  Te  Te92  1  0.77614651  0.10903937  0.75677658  1
  Te  Te93  1  0.73972703  0.42911547  0.08997426  1
  Te  Te94  1  0.74148963  0.40555995  0.42574855  1
  Te  Te95  1  0.78794702  0.40474033  0.74423461  1
  Te  Te96  1  0.76039474  0.73875835  0.09292929  1
  Te  Te97  1  0.76006112  0.75164990  0.41835069  1
  Te  Te98  1  0.75169525  0.75332976  0.76338918  1
  Te  Te99  1  0.05317202  0.24221047  0.25600067  1
  Te  Te100  1  0.10114081  0.28107278  0.62271954  1
  Te  Te101  1  0.05127242  0.18440683  0.89424928  1
  Te  Te102  1  0.09129620  0.57485733  0.25099523  1
  Te  Te103  1  0.10460684  0.60345643  0.58597231  1
  Te  Te104  1  0.08836831  0.56133291  0.91543883  1
  Te  Te105  1  0.09886469  0.94328032  0.24833686  1
  Te  Te106  1  0.06058310  0.91170618  0.58909993  1
  Te  Te107  1  0.06625364  0.90231249  0.92864362  1
  Te  Te108  1  0.41435931  0.24865577  0.21844934  1
  Te  Te109  1  0.42360690  0.25528388  0.56351599  1
  Te  Te110  1  0.43030697  0.23260147  0.92562125  1
  Te  Te111  1  0.38333398  0.54622329  0.20913122  1
  Te  Te112  1  0.43717509  0.56995566  0.58259810  1
  Te  Te113  1  0.39553379  0.57713519  0.92406662  1
  Te  Te114  1  0.38633394  0.90507904  0.24310611  1
  Te  Te115  1  0.39773364  0.89370652  0.57555458  1
  Te  Te116  1  0.40522194  0.90350373  0.90639049  1
  Te  Te117  1  0.76655310  0.23826003  0.22541535  1
  Te  Te118  1  0.75845294  0.26049349  0.59017656  1
  Te  Te119  1  0.74868575  0.27566358  0.93132049  1
  Te  Te120  1  0.77603654  0.59939958  0.24747335  1
  Te  Te121  1  0.74654722  0.57638088  0.62005131  1
  Te  Te122  1  0.74553482  0.58024941  0.92188921  1
  Te  Te123  1  0.74762034  0.92272140  0.24478726  1
  Te  Te124  1  0.72754183  0.92536703  0.58732029  1
  Te  Te125  1  0.73945179  0.92297009  0.94331246  1
  Te  Te126  1  0.24344164  0.23296768  0.06070902  1
  Te  Te127  1  0.24023915  0.25809834  0.40709033  1
  Te  Te128  1  0.23245895  0.23839656  0.72697574  1
  Te  Te129  1  0.25119526  0.58695250  0.11759056  1
  Te  Te130  1  0.27954327  0.59725598  0.41763588  1
  Te  Te131  1  0.24905377  0.56432325  0.75127226  1
  Te  Te132  1  0.23993918  0.93185741  0.08623882  1
  Te  Te133  1  0.22675134  0.91366359  0.41473370  1
  Te  Te134  1  0.24975752  0.92133193  0.74501972  1
  Te  Te135  1  0.54581396  0.24888015  0.13139452  1
  Te  Te136  1  0.60372744  0.23263200  0.41403229  1
  Te  Te137  1  0.59421201  0.26293550  0.74824951  1
  Te  Te138  1  0.58371515  0.60495808  0.09301679  1
  Te  Te139  1  0.59105420  0.59453374  0.41466098  1
  Te  Te140  1  0.58274973  0.56218924  0.76469720  1
  Te  Te141  1  0.57072268  0.92582218  0.08094189  1
  Te  Te142  1  0.55867281  0.94584018  0.41229214  1
  Te  Te143  1  0.59991960  0.92054580  0.78303329  1
  Te  Te144  1  0.95305810  0.23930576  0.07765477  1
  Te  Te145  1  0.92339253  0.28959982  0.44839099  1
  Te  Te146  1  0.96815937  0.22634937  0.76621083  1
  Te  Te147  1  0.91694147  0.57322898  0.08298650  1
  Te  Te148  1  0.95736852  0.56650687  0.41611246  1
  Te  Te149  1  0.93623359  0.54305566  0.77011010  1
  Te  Te150  1  0.95033069  0.92225370  0.06361417  1
  Te  Te151  1  0.94291463  0.91742828  0.38833358  1
  Te  Te152  1  0.91079557  0.91142995  0.76515429  1
  Te  Te153  1  0.24332490  0.10141001  0.22274575  1
  Te  Te154  1  0.20916872  0.07191400  0.55764712  1
  Te  Te155  1  0.25324735  0.09682975  0.93241885  1
  Te  Te156  1  0.23476834  0.40106822  0.25049038  1
  Te  Te157  1  0.24006606  0.41964169  0.56896985  1
  Te  Te158  1  0.23006974  0.39738016  0.90630864  1
  Te  Te159  1  0.23479728  0.72373300  0.19294086  1
  Te  Te160  1  0.23487517  0.73650384  0.57888129  1
  Te  Te161  1  0.24365573  0.72091558  0.93096360  1
  Te  Te162  1  0.60995479  0.08554202  0.24885145  1
  Te  Te163  1  0.59027700  0.09245312  0.58199846  1
  Te  Te164  1  0.60341196  0.09243400  0.94983394  1
  Te  Te165  1  0.57084612  0.41564427  0.25410114  1
  Te  Te166  1  0.57589547  0.41136369  0.59720262  1
  Te  Te167  1  0.58434950  0.41435332  0.93685244  1
  Te  Te168  1  0.56355712  0.77640026  0.26007131  1
  Te  Te169  1  0.57597773  0.76332048  0.58052626  1
  Te  Te170  1  0.58993384  0.74743879  0.91911774  1
  Te  Te171  1  0.90764567  0.09357517  0.26562926  1
  Te  Te172  1  0.90524380  0.06218842  0.58325901  1
  Te  Te173  1  0.95193304  0.07127702  0.91796031  1
  Te  Te174  1  0.91405780  0.41242439  0.25479806  1
  Te  Te175  1  0.91059870  0.50624682  0.54753079  1
  Te  Te176  1  0.95230402  0.39273125  0.93196128  1
  Te  Te177  1  0.93488764  0.76834339  0.21176267  1
  Te  Te178  1  0.90926484  0.74544904  0.57453494  1
  Te  Te179  1  0.91810794  0.73914737  0.92091571  1
