# generated using pymatgen
data_In2Te3
_symmetry_space_group_name_H-M   'P 1'
_cell_length_a   18.74406187
_cell_length_b   18.76341711
_cell_length_c   18.75657394
_cell_angle_alpha   89.92980711
_cell_angle_beta   90.00116872
_cell_angle_gamma   90.02161331
_symmetry_Int_Tables_number   1
_chemical_formula_structural   In2Te3
_chemical_formula_sum   'In72 Te108'
_cell_volume   6596.73136072
_cell_formula_units_Z   36
loop_
 _symmetry_equiv_pos_site_id
 _symmetry_equiv_pos_as_xyz
  1  'x, y, z'
loop_
 _atom_site_type_symbol
 _atom_site_label
 _atom_site_symmetry_multiplicity
 _atom_site_fract_x
 _atom_site_fract_y
 _atom_site_fract_z
 _atom_site_occupancy
  In  In0  1  0.31913089  0.00824325  -0.00099280  1
  In  In1  1  0.66679571  0.48297324  0.83783625  1
  In  In2  1  0.83408849  0.66914626  0.19669323  1
  In  In3  1  -0.04396096  0.01089466  0.63287065  1
  In  In4  1  0.14877265  0.48189483  0.66496804  1
  In  In5  1  0.13991354  0.01781089  0.83554886  1
  In  In6  1  0.16507408  0.32095676  0.84320922  1
  In  In7  1  0.36927821  0.49917978  0.83666299  1
  In  In8  1  0.50319564  0.66446902  0.83470374  1
  In  In9  1  0.01100030  0.86694066  0.82447417  1
  In  In10  1  0.33445365  -0.00010144  0.30835971  1
  In  In11  1  0.35212117  0.81927823  0.82249240  1
  In  In12  1  0.81565921  0.47410841  0.01246589  1
  In  In13  1  0.53741294  0.15401767  0.34176957  1
  In  In14  1  -0.02802353  0.47114872  0.18328818  1
  In  In15  1  0.67279572  -0.01403191  0.33788951  1
  In  In16  1  0.82627539  0.18182897  0.33905802  1
  In  In17  1  -0.01845437  0.16318425  0.17981975  1
  In  In18  1  0.50999808  0.17745493  0.67664629  1
  In  In19  1  0.35549497  0.87138417  0.15838545  1
  In  In20  1  0.67596239  0.48569658  0.50249747  1
  In  In21  1  0.32967324  0.50094810  0.49830901  1
  In  In22  1  0.50779825  0.48116956  0.67097079  1
  In  In23  1  0.82237181  0.48062938  0.33275583  1
  In  In24  1  0.00369111  0.46662388  0.84218955  1
  In  In25  1  -0.00545580  0.68240713  -0.00041428  1
  In  In26  1  0.15826682  0.49555101  0.01590207  1
  In  In27  1  0.82610359  0.47650432  0.67376687  1
  In  In28  1  0.34991950  0.66798495  0.66336486  1
  In  In29  1  0.51531840  -0.01196457  0.48334180  1
  In  In30  1  0.66928083  0.69330983  0.63255487  1
  In  In31  1  0.53214798  0.65306578  0.15213356  1
  In  In32  1  0.67560965  0.17430973  0.83700451  1
  In  In33  1  0.14674467  0.33962897  0.50091309  1
  In  In34  1  -0.01361014  0.87655982  0.14986256  1
  In  In35  1  0.16716661  0.86194596  0.65316225  1
  In  In36  1  0.33843567  0.35093580  0.33613739  1
  In  In37  1  0.34180943  0.46983878  0.17794675  1
  In  In38  1  0.16690600  0.48728626  0.34560112  1
  In  In39  1  0.53430030  0.01588791  0.81364439  1
  In  In40  1  -0.03252045  0.67975670  0.63020062  1
  In  In41  1  0.14907665  0.18027344  0.67356245  1
  In  In42  1  0.83493157  0.01077609  0.84240803  1
  In  In43  1  0.68249824  0.84057013  0.18842217  1
  In  In44  1  -0.01193860  0.50029360  0.50470175  1
  In  In45  1  0.12940589  0.16479366  0.34983619  1
  In  In46  1  0.65018382  0.65725553  0.00979404  1
  In  In47  1  0.69336995  -0.00585022  0.65331896  1
  In  In48  1  0.15074824  0.87382459  -0.02644639  1
  In  In49  1  0.35277032  0.02764761  0.67416464  1
  In  In50  1  0.69438890  0.67594804  0.35361041  1
  In  In51  1  0.34396469  0.67839363  0.35669058  1
  In  In52  1  0.33877998  0.83768034  0.50678827  1
  In  In53  1  0.17453162  0.68106249  0.81297416  1
  In  In54  1  0.82103269  0.66795823  0.79635375  1
  In  In55  1  0.13086181  0.01262200  0.47675218  1
  In  In56  1  0.83260808  0.86052561  -0.00297560  1
  In  In57  1  0.52515719  0.31700816  0.16919580  1
  In  In58  1  0.16943977  0.67051347  0.18812272  1
  In  In59  1  0.13616095  0.83452818  0.32774060  1
  In  In60  1  -0.03526938  0.31045887  0.01281550  1
  In  In61  1  0.51342316  0.49528549  0.32477333  1
  In  In62  1  0.33204550  0.16025206  0.16116010  1
  In  In63  1  0.33504969  0.17091227  0.52636682  1
  In  In64  1  0.68816048  0.19130460  0.50054231  1
  In  In65  1  0.35577813  0.30351925  -0.01143296  1
  In  In66  1  -0.01518276  0.68332868  0.35504098  1
  In  In67  1  0.35112843  0.64652018  -0.02984097  1
  In  In68  1  0.51989414  0.01748930  0.17492658  1
  In  In69  1  0.13963658  0.17557814  0.00950272  1
  In  In70  1  0.68637354  0.31557131  -0.00749433  1
  In  In71  1  0.51596670  0.83373690  0.00446012  1
  Te  Te72  1  0.07896277  0.07874065  0.10202136  1
  Te  Te73  1  0.01737382  0.07586985  0.40089116  1
  Te  Te74  1  0.04600575  0.08779541  0.73871118  1
  Te  Te75  1  0.06780639  0.39686293  0.08776119  1
  Te  Te76  1  0.05188189  0.40527436  0.40070127  1
  Te  Te77  1  0.06385001  0.37738092  0.73365676  1
  Te  Te78  1  0.08639856  0.76211975  0.09259141  1
  Te  Te79  1  0.08536406  0.75224589  0.43846202  1
  Te  Te80  1  0.06905377  0.75556352  0.73019950  1
  Te  Te81  1  0.42988679  0.08715541  0.07004365  1
  Te  Te82  1  0.41145504  0.08751160  0.41641142  1
  Te  Te83  1  0.41142753  0.10880251  0.78928315  1
  Te  Te84  1  0.43333162  0.40406691  0.07948435  1
  Te  Te85  1  0.43734569  0.41368252  0.43283987  1
  Te  Te86  1  0.42286469  0.39107700  0.75406020  1
  Te  Te87  1  0.41798935  0.74541337  0.08263797  1
  Te  Te88  1  0.44243685  0.75313876  0.43895222  1
  Te  Te89  1  0.45365168  0.76149847  0.72493616  1
  Te  Te90  1  0.68596482  0.10090536  0.08735865  1
  Te  Te91  1  0.75670838  0.07438139  0.43156415  1
  Te  Te92  1  0.76672011  0.09900692  0.73594391  1
  Te  Te93  1  0.74809914  0.38688086  0.11348897  1
  Te  Te94  1  0.75973739  0.38641560  0.42876165  1
  Te  Te95  1  0.74621281  0.37881552  0.75935621  1
  Te  Te96  1  0.75941308  0.74554437  0.08411873  1
  Te  Te97  1  0.78319515  0.77786229  0.42004891  1
  Te  Te98  1  0.74282568  0.77562518  0.73374923  1
  Te  Te99  1  0.06843567  0.25953751  0.25410908  1
  Te  Te100  1  0.06464725  0.22913492  0.55964332  1
  Te  Te101  1  0.04857128  0.23827041  0.90212785  1
  Te  Te102  1  0.06635047  0.57823436  0.25397460  1
  Te  Te103  1  0.08618954  0.58972054  0.57901185  1
  Te  Te104  1  0.08457240  0.58728104  0.91587316  1
  Te  Te105  1  0.05881084  0.94112960  0.26289574  1
  Te  Te106  1  0.05389729  0.91155552  0.56418927  1
  Te  Te107  1  0.02916672  0.96891745  0.94409922  1
  Te  Te108  1  0.41987236  0.24039680  0.26022274  1
  Te  Te109  1  0.43452752  0.26378261  0.58123889  1
  Te  Te110  1  0.43237932  0.22320044  0.89660146  1
  Te  Te111  1  0.41095696  0.58776563  0.24943600  1
  Te  Te112  1  0.43623043  0.58084602  0.57489255  1
  Te  Te113  1  0.46910366  0.55612794  0.93814675  1
  Te  Te114  1  0.45374046  0.91196453  0.26834579  1
  Te  Te115  1  0.43033482  0.92409060  0.59652137  1
  Te  Te116  1  0.42147642  0.91825861  0.91786469  1
  Te  Te117  1  0.77674818  0.27032435  0.22538409  1
  Te  Te118  1  0.78164117  0.23640199  0.60964474  1
  Te  Te119  1  0.78653192  0.22210105  0.92871833  1
  Te  Te120  1  0.73192990  0.56977020  0.24522781  1
  Te  Te121  1  0.76365051  0.58488697  0.58178432  1
  Te  Te122  1  0.76227157  0.58734758  0.91422640  1
  Te  Te123  1  0.78341050  0.93402093  0.24853216  1
  Te  Te124  1  0.77214392  0.91531169  0.55192138  1
  Te  Te125  1  0.73265833  0.92748188  0.91115998  1
  Te  Te126  1  0.24529217  0.26012321  0.08438135  1
  Te  Te127  1  0.25127641  0.24797371  0.41940881  1
  Te  Te128  1  0.25385935  0.25550097  0.74429283  1
  Te  Te129  1  0.25627607  0.58725386  0.09063569  1
  Te  Te130  1  0.23455210  0.59738760  0.42660886  1
  Te  Te131  1  0.25768891  0.56828834  0.74397346  1
  Te  Te132  1  0.22874194  0.93116707  0.09613325  1
  Te  Te133  1  0.25028151  0.92553460  0.41628037  1
  Te  Te134  1  0.24995306  0.92379053  0.76630090  1
  Te  Te135  1  0.59008633  0.22225664  0.07035411  1
  Te  Te136  1  0.59937832  0.27058485  0.40908043  1
  Te  Te137  1  0.60218684  0.27126623  0.74759245  1
  Te  Te138  1  0.60731614  0.54119834  0.09171436  1
  Te  Te139  1  0.59055764  0.58577907  0.42161753  1
  Te  Te140  1  0.60223859  0.58750176  0.74434366  1
  Te  Te141  1  0.60708539  0.92543893  0.08466343  1
  Te  Te142  1  0.61120915  0.88258825  0.43155702  1
  Te  Te143  1  0.59607221  0.91126107  0.73122901  1
  Te  Te144  1  0.87348204  0.21626427  0.08478616  1
  Te  Te145  1  0.93415655  0.21751074  0.44040738  1
  Te  Te146  1  0.87706513  0.30056135  0.71175259  1
  Te  Te147  1  0.91662213  0.57836118  0.08121357  1
  Te  Te148  1  0.89111818  0.58529669  0.42364801  1
  Te  Te149  1  0.93419026  0.57305367  0.74642101  1
  Te  Te150  1  0.87790032  0.96413525  0.09356876  1
  Te  Te151  1  0.88715529  0.89308412  0.44822168  1
  Te  Te152  1  0.89779304  0.91235362  0.73455632  1
  Te  Te153  1  0.22884384  0.09193686  0.25077252  1
  Te  Te154  1  0.23065798  0.06567298  0.58876778  1
  Te  Te155  1  0.23836109  0.10506960  0.91337593  1
  Te  Te156  1  0.22523575  0.39404862  0.23978259  1
  Te  Te157  1  0.25581793  0.40202082  0.58906918  1
  Te  Te158  1  0.25361365  0.42448702  0.91925391  1
  Te  Te159  1  0.26702523  0.76849519  0.25772505  1
  Te  Te160  1  0.24351285  0.74667814  0.58606422  1
  Te  Te161  1  0.24878102  0.76155515  0.93170349  1
  Te  Te162  1  0.63980205  0.10415739  0.23371772  1
  Te  Te163  1  0.58717847  0.08856689  0.57626628  1
  Te  Te164  1  0.60790028  0.07505477  0.92999787  1
  Te  Te165  1  0.60407986  0.39181062  0.26997364  1
  Te  Te166  1  0.60700526  0.39645922  0.60062216  1
  Te  Te167  1  0.58221905  0.38962690  0.91442426  1
  Te  Te168  1  0.58716620  0.74505564  0.25922501  1
  Te  Te169  1  0.58311311  0.77197861  0.54119885  1
  Te  Te170  1  0.60297474  0.75885201  0.90432455  1
  Te  Te171  1  0.88350436  0.07112404  0.25214535  1
  Te  Te172  1  0.88945496  0.12411964  0.55834998  1
  Te  Te173  1  0.93602073  0.08932266  0.91652159  1
  Te  Te174  1  0.89626831  0.36640635  0.26045132  1
  Te  Te175  1  0.91156231  0.39514015  0.57925781  1
  Te  Te176  1  0.88785430  0.39205527  0.90488994  1
  Te  Te177  1  0.92004185  0.77843075  0.25480119  1
  Te  Te178  1  0.87634180  0.77233393  0.55345586  1
  Te  Te179  1  0.91333144  0.76122084  0.89812772  1
