# generated using pymatgen
data_In2Te3
_symmetry_space_group_name_H-M   'P 1'
_cell_length_a   18.93490059
_cell_length_b   18.92800595
_cell_length_c   18.92945577
_cell_angle_alpha   90.10431332
_cell_angle_beta   89.96027535
_cell_angle_gamma   90.00274654
_symmetry_Int_Tables_number   1
_chemical_formula_structural   In2Te3
_chemical_formula_sum   'In72 Te108'
_cell_volume   6784.30237992
_cell_formula_units_Z   36
loop_
 _symmetry_equiv_pos_site_id
 _symmetry_equiv_pos_as_xyz
  1  'x, y, z'
loop_
 _atom_site_type_symbol
 _atom_site_label
 _atom_site_symmetry_multiplicity
 _atom_site_fract_x
 _atom_site_fract_y
 _atom_site_fract_z
 _atom_site_occupancy
  In  In0  1  0.64489802  0.37631915  0.63486749  1
  In  In1  1  0.64461661  0.86034214  0.80005203  1
  In  In2  1  -0.00498112  0.32331673  0.33244995  1
  In  In3  1  0.30941344  0.66147333  0.01530727  1
  In  In4  1  -0.01442885  0.49671025  0.48424940  1
  In  In5  1  0.48615429  0.85968327  -0.02117848  1
  In  In6  1  0.00932908  0.50289037  0.82201647  1
  In  In7  1  0.82448307  0.17827555  0.31009331  1
  In  In8  1  0.14309436  0.82989248  0.03295939  1
  In  In9  1  0.50028630  0.16268754  0.02965969  1
  In  In10  1  0.00402147  0.84415744  0.51233806  1
  In  In11  1  0.00833985  0.65852768  0.32934213  1
  In  In12  1  0.69242933  0.46617327  0.15226724  1
  In  In13  1  -0.01028749  0.32774578  0.65524022  1
  In  In14  1  0.33937519  0.84083335  0.81925546  1
  In  In15  1  0.83064181  0.82605917  0.68080531  1
  In  In16  1  0.16952227  0.34709246  0.50559861  1
  In  In17  1  0.50222279  0.50181679  -0.02034943  1
  In  In18  1  0.32679256  0.00125627  0.67272497  1
  In  In19  1  0.49529464  0.02587877  0.50205403  1
  In  In20  1  0.33769772  0.16789986  0.50800020  1
  In  In21  1  0.80143755  0.35077635  0.46232600  1
  In  In22  1  0.49668030  0.00583707  0.18683656  1
  In  In23  1  0.16097444  0.17651361  0.66652928  1
  In  In24  1  0.19301429  0.31876616  0.84238944  1
  In  In25  1  0.83939442  0.14873139  0.64153940  1
  In  In26  1  0.67261424  0.52330043  0.84015341  1
  In  In27  1  0.86887729  0.65834716  0.16152087  1
  In  In28  1  -0.00300036  0.82250149  0.83114163  1
  In  In29  1  0.67560503  0.14882686  0.83118619  1
  In  In30  1  0.00517210  0.00151368  0.01174042  1
  In  In31  1  0.69244580  0.00416659  -0.00738111  1
  In  In32  1  0.50507092  0.18544053  0.34558565  1
  In  In33  1  0.30207099  0.68774918  0.33566855  1
  In  In34  1  0.49503136  0.16319201  0.67266205  1
  In  In35  1  0.32063268  0.49660084  0.81955755  1
  In  In36  1  0.85234021  -0.01829412  0.83713667  1
  In  In37  1  0.84393960  0.79686347  0.32689915  1
  In  In38  1  0.50079318  0.68343211  0.16883211  1
  In  In39  1  0.50271829  0.69566134  0.81626697  1
  In  In40  1  0.17525655  0.65167866  0.50386580  1
  In  In41  1  -0.01003781  0.31781466  0.01009661  1
  In  In42  1  0.14391419  0.86395016  0.31217380  1
  In  In43  1  0.85197722  0.65660033  0.83999529  1
  In  In44  1  0.52091419  0.33720493  0.18084136  1
  In  In45  1  0.30141914  0.83734682  0.49228280  1
  In  In46  1  0.16448569  0.16066073  0.00323500  1
  In  In47  1  0.83739718  -0.02381285  0.51138195  1
  In  In48  1  0.17043387  0.51696888  0.67394781  1
  In  In49  1  0.16754417  0.04981247  0.31321872  1
  In  In50  1  0.67417036  0.67081146  0.32600236  1
  In  In51  1  -0.00390482  0.48434986  0.18649164  1
  In  In52  1  0.15207700  0.31443788  0.18870639  1
  In  In53  1  0.84546260  0.16854336  0.03253359  1
  In  In54  1  0.15460956  0.68257766  0.82773241  1
  In  In55  1  0.50875702  0.52068232  0.33443312  1
  In  In56  1  0.30953018  0.50744763  0.14890879  1
  In  In57  1  0.65104617  0.00134487  0.33897642  1
  In  In58  1  0.34378182  0.33719555  0.65230189  1
  In  In59  1  0.82073401  0.32553845  0.82516051  1
  In  In60  1  0.66518785  0.81700178  0.16632895  1
  In  In61  1  0.17651443  0.02028897  0.82358068  1
  In  In62  1  0.35774219  0.34603561  0.33614694  1
  In  In63  1  0.84839027  -0.00048724  0.17144003  1
  In  In64  1  0.65856760  0.65370633  0.65771083  1
  In  In65  1  0.66216637  0.16123702  0.51010394  1
  In  In66  1  0.52090090  0.32530174  0.85270995  1
  In  In67  1  0.32708087  0.33298855  -0.00935959  1
  In  In68  1  0.49694666  0.66434967  0.52075086  1
  In  In69  1  0.32087138  0.86967996  0.17957627  1
  In  In70  1  0.82705409  0.65400035  0.49707313  1
  In  In71  1  0.68254147  0.65768422  0.01135831  1
  Te  Te72  1  0.06884458  0.10276352  0.10169151  1
  Te  Te73  1  0.07872792  0.03840132  0.43918081  1
  Te  Te74  1  0.07416057  0.09421438  0.75012093  1
  Te  Te75  1  0.08659814  0.40551509  0.08668358  1
  Te  Te76  1  0.08885184  0.42394273  0.40287744  1
  Te  Te77  1  0.10514450  0.39267925  0.73526856  1
  Te  Te78  1  0.03241635  0.73953291  0.06098477  1
  Te  Te79  1  0.09160239  0.75427478  0.41614206  1
  Te  Te80  1  0.07186183  0.75006541  0.72792391  1
  Te  Te81  1  0.39950074  0.07629586  0.09880630  1
  Te  Te82  1  0.40284670  0.08625981  0.39736037  1
  Te  Te83  1  0.43093659  0.06312615  0.76374843  1
  Te  Te84  1  0.42117223  0.41885473  0.08094085  1
  Te  Te85  1  0.44127483  0.42635259  0.42875116  1
  Te  Te86  1  0.42620693  0.40542303  0.76232116  1
  Te  Te87  1  0.40820047  0.76367307  0.08005996  1
  Te  Te88  1  0.40833917  0.74676749  0.42636678  1
  Te  Te89  1  0.42866726  0.77651113  0.72009308  1
  Te  Te90  1  0.74100376  0.08852487  0.10844024  1
  Te  Te91  1  0.75426133  0.08257948  0.41786668  1
  Te  Te92  1  0.76296386  0.06240815  0.74343037  1
  Te  Te93  1  0.78782312  0.37065679  0.09583340  1
  Te  Te94  1  0.70432578  0.45073106  0.42108599  1
  Te  Te95  1  0.74191753  0.42671876  0.74467114  1
  Te  Te96  1  0.77359063  0.75451863  0.08251254  1
  Te  Te97  1  0.73990876  0.76035849  0.43084878  1
  Te  Te98  1  0.73849503  0.73524534  0.77156100  1
  Te  Te99  1  0.09677982  0.22277266  0.29043688  1
  Te  Te100  1  0.07329450  0.24384535  0.55978214  1
  Te  Te101  1  0.08017098  0.24385065  0.90710710  1
  Te  Te102  1  0.09693225  0.57727238  0.24474722  1
  Te  Te103  1  0.06559347  0.57954136  0.58306317  1
  Te  Te104  1  0.09374572  0.58001957  0.91237527  1
  Te  Te105  1  0.06861622  0.96529317  0.23622091  1
  Te  Te106  1  0.10812263  0.94249337  0.54683031  1
  Te  Te107  1  0.08773607  0.91778075  0.91248874  1
  Te  Te108  1  0.41371816  0.24543452  0.23827830  1
  Te  Te109  1  0.44405436  0.25873038  0.56692948  1
  Te  Te110  1  0.41842652  0.23644191  0.91792452  1
  Te  Te111  1  0.40301869  0.59286465  0.24279798  1
  Te  Te112  1  0.43053695  0.56150150  0.60027824  1
  Te  Te113  1  0.40563418  0.59780641  0.91304579  1
  Te  Te114  1  0.42970635  0.90525328  0.26973660  1
  Te  Te115  1  0.40407169  0.92328830  0.56863133  1
  Te  Te116  1  0.38041606  0.94186661  0.92033582  1
  Te  Te117  1  0.77544824  0.29217704  0.22919657  1
  Te  Te118  1  0.74726829  0.26246929  0.59035794  1
  Te  Te119  1  0.75371222  0.23617986  0.92712281  1
  Te  Te120  1  0.75268968  0.58552730  0.22990172  1
  Te  Te121  1  0.75017189  0.56439838  0.58570957  1
  Te  Te122  1  0.77677017  0.56278857  0.94272268  1
  Te  Te123  1  0.74900287  0.90458142  0.26029869  1
  Te  Te124  1  0.74166324  0.90938594  0.59995222  1
  Te  Te125  1  0.74864464  0.89369886  0.90542819  1
  Te  Te126  1  0.25313741  0.24970061  0.09167472  1
  Te  Te127  1  0.25864027  0.25958979  0.41761147  1
  Te  Te128  1  0.27752164  0.23727847  0.74509318  1
  Te  Te129  1  0.20522290  0.59883925  0.09866867  1
  Te  Te130  1  0.25892278  0.57247359  0.41372378  1
  Te  Te131  1  0.26721266  0.61258303  0.74153621  1
  Te  Te132  1  0.22616781  0.94322337  0.09069343  1
  Te  Te133  1  0.24930116  0.93719275  0.39095217  1
  Te  Te134  1  0.22858764  0.90525742  0.73729948  1
  Te  Te135  1  0.59557437  0.26303409  0.07952726  1
  Te  Te136  1  0.60321404  0.26263963  0.42234624  1
  Te  Te137  1  0.60113317  0.25337442  0.74414093  1
  Te  Te138  1  0.57926268  0.57307379  0.09625803  1
  Te  Te139  1  0.61089505  0.58260503  0.43234880  1
  Te  Te140  1  0.56216640  0.57364298  0.75059995  1
  Te  Te141  1  0.58899845  0.91952282  0.08276624  1
  Te  Te142  1  0.58055486  0.92363398  0.43960633  1
  Te  Te143  1  0.54340543  0.95310876  0.75802301  1
  Te  Te144  1  0.95551067  0.22084031  0.11800342  1
  Te  Te145  1  0.90172062  0.24523851  0.42490181  1
  Te  Te146  1  0.91338766  0.23410908  0.74661945  1
  Te  Te147  1  0.93068100  0.55754909  0.07655473  1
  Te  Te148  1  0.89664591  0.57337703  0.38809480  1
  Te  Te149  1  0.91293436  0.57226005  0.73788415  1
  Te  Te150  1  0.89868048  0.91407531  0.06380163  1
  Te  Te151  1  0.91906426  0.90535743  0.40178827  1
  Te  Te152  1  0.93962014  0.92194218  0.72923578  1
  Te  Te153  1  0.26834303  0.04769826  0.19954561  1
  Te  Te154  1  0.23703758  0.07783640  0.57581652  1
  Te  Te155  1  0.26344247  0.08955601  0.91927958  1
  Te  Te156  1  0.25080417  0.41485843  0.25266643  1
  Te  Te157  1  0.26368973  0.44211440  0.57746222  1
  Te  Te158  1  0.23462550  0.43764434  0.92947089  1
  Te  Te159  1  0.22463867  0.76277978  0.23029441  1
  Te  Te160  1  0.24193812  0.74793582  0.59190338  1
  Te  Te161  1  0.24470473  0.76842702  0.92913315  1
  Te  Te162  1  0.59265778  0.10766699  0.24826839  1
  Te  Te163  1  0.59648503  0.06869866  0.60956264  1
  Te  Te164  1  0.58007130  0.07814309  0.92496426  1
  Te  Te165  1  0.60842044  0.41905106  0.27466797  1
  Te  Te166  1  0.53070839  0.45355103  0.57154151  1
  Te  Te167  1  0.61509666  0.41321162  0.93243671  1
  Te  Te168  1  0.56893794  0.76798489  0.27473280  1
  Te  Te169  1  0.57492620  0.76096157  0.60112863  1
  Te  Te170  1  0.58198241  0.74548822  0.93568787  1
  Te  Te171  1  0.92495192  0.07703707  0.27076788  1
  Te  Te172  1  0.93792812  0.07307178  0.56150614  1
  Te  Te173  1  0.91646266  0.08851370  0.92159228  1
  Te  Te174  1  0.89081612  0.40076706  0.25610547  1
  Te  Te175  1  0.89672978  0.41160365  0.57149521  1
  Te  Te176  1  0.92467733  0.40481657  0.90291347  1
  Te  Te177  1  0.95715174  0.76388612  0.23085563  1
  Te  Te178  1  0.91470615  0.74315870  0.58455173  1
  Te  Te179  1  0.93938680  0.73245814  0.93657266  1
