# generated using pymatgen
data_In2Te3
_symmetry_space_group_name_H-M   'P 1'
_cell_length_a   18.75926455
_cell_length_b   18.76179865
_cell_length_c   18.75701048
_cell_angle_alpha   89.96553253
_cell_angle_beta   89.95128643
_cell_angle_gamma   89.98760500
_symmetry_Int_Tables_number   1
_chemical_formula_structural   In2Te3
_chemical_formula_sum   'In72 Te108'
_cell_volume   6601.66761503
_cell_formula_units_Z   36
loop_
 _symmetry_equiv_pos_site_id
 _symmetry_equiv_pos_as_xyz
  1  'x, y, z'
loop_
 _atom_site_type_symbol
 _atom_site_label
 _atom_site_symmetry_multiplicity
 _atom_site_fract_x
 _atom_site_fract_y
 _atom_site_fract_z
 _atom_site_occupancy
  In  In0  1  0.33644493  0.66881949  0.36505632  1
  In  In1  1  0.51287890  0.68125531  0.52606238  1
  In  In2  1  0.18275010  0.65225556  0.80736003  1
  In  In3  1  0.67320548  0.33996355  -0.00117983  1
  In  In4  1  0.80685972  0.49369323  0.32833239  1
  In  In5  1  0.33294996  0.18694109  0.16727657  1
  In  In6  1  0.16075913  0.49548909  -0.00107834  1
  In  In7  1  -0.01553689  0.82459751  0.51075440  1
  In  In8  1  0.20386254  0.84263546  0.34264740  1
  In  In9  1  0.82406794  0.84088668  0.34758321  1
  In  In10  1  0.16749880  0.84918979  -0.01296882  1
  In  In11  1  0.66971781  0.67761988  0.34698775  1
  In  In12  1  0.17624076  0.82101466  0.67538076  1
  In  In13  1  -0.01231134  0.01857219  0.66099451  1
  In  In14  1  0.81996479  0.34996719  0.15202987  1
  In  In15  1  0.17746647  0.00458454  0.48249699  1
  In  In16  1  0.48765732  0.68464065  0.82359895  1
  In  In17  1  0.15863497  0.16438066  0.66439227  1
  In  In18  1  0.18283767  0.00462352  0.14257735  1
  In  In19  1  0.87292225  0.31505254  0.80402464  1
  In  In20  1  0.17977177  0.35493801  0.54566384  1
  In  In21  1  -0.01212345  0.85079668  0.15063039  1
  In  In22  1  0.01737167  -0.00650308  0.36106326  1
  In  In23  1  0.84308974  0.65471612  0.15033007  1
  In  In24  1  0.00152947  -0.00209855  -0.03163941  1
  In  In25  1  0.15583487  0.15876986  0.34661668  1
  In  In26  1  0.66950862  0.15524381  0.51912070  1
  In  In27  1  0.64448818  -0.01689864  0.66522722  1
  In  In28  1  0.50313002  0.67148570  0.16797930  1
  In  In29  1  0.66359674  0.31431611  0.67322867  1
  In  In30  1  0.68474937  0.50722898  0.49953058  1
  In  In31  1  0.17174681  0.51193964  0.32382469  1
  In  In32  1  0.50937439  -0.00944179  0.17146089  1
  In  In33  1  0.65812693  0.51955986  0.83172453  1
  In  In34  1  0.00636202  0.50030877  0.51928609  1
  In  In35  1  0.65773757  0.14943766  0.82310549  1
  In  In36  1  0.49008690  0.50830868  0.67836228  1
  In  In37  1  -0.01879152  0.66358218  -0.02077635  1
  In  In38  1  0.15450132  0.35730630  0.79637268  1
  In  In39  1  0.32646243  0.33849935  -0.00760352  1
  In  In40  1  0.81916242  -0.01608039  0.82825034  1
  In  In41  1  0.18373717  0.17946153  -0.03315311  1
  In  In42  1  0.83209105  0.00380894  0.14919189  1
  In  In43  1  0.37203719  0.66979521  -0.00905840  1
  In  In44  1  0.82954822  0.68853941  0.50923151  1
  In  In45  1  0.36151057  -0.01006559  0.35811991  1
  In  In46  1  0.81639937  0.82341294  0.66555712  1
  In  In47  1  0.82643614  0.14524390  -0.00580499  1
  In  In48  1  0.66754384  0.81831383  0.16118180  1
  In  In49  1  0.50503094  0.33828427  0.82088081  1
  In  In50  1  0.00010861  0.17495992  0.17896871  1
  In  In51  1  0.52437797  0.14998697  -0.01886223  1
  In  In52  1  0.33757159  0.51812532  0.16480638  1
  In  In53  1  0.16757620  0.67769176  0.19436486  1
  In  In54  1  -0.01498545  0.32647480  0.33873787  1
  In  In55  1  0.35145690  0.13549888  0.80387051  1
  In  In56  1  0.83478111  0.50405674  0.66400400  1
  In  In57  1  0.65111344  0.35717832  0.34764048  1
  In  In58  1  0.33195712  0.33982489  0.35364640  1
  In  In59  1  0.00902862  0.34899815  -0.02678092  1
  In  In60  1  0.34752876  0.15024953  0.52065964  1
  In  In61  1  0.34687263  0.83989657  0.81229568  1
  In  In62  1  0.82206242  0.16557741  0.36076813  1
  In  In63  1  0.64817676  0.66819991  -0.01135457  1
  In  In64  1  0.83324207  0.67490211  0.81742675  1
  In  In65  1  0.01278515  0.65470116  0.33710241  1
  In  In66  1  0.48418949  0.32384231  0.50794554  1
  In  In67  1  0.48583911  0.34093783  0.18238628  1
  In  In68  1  0.34310693  -0.01033161  -0.02014296  1
  In  In69  1  0.61594668  -0.03282582  0.36420358  1
  In  In70  1  0.68327216  0.14760752  0.16479757  1
  In  In71  1  0.17142251  0.66491058  0.53824641  1
  Te  Te72  1  0.07803134  0.09171117  0.07323202  1
  Te  Te73  1  0.06368824  0.10508739  0.45641117  1
  Te  Te74  1  0.08392087  0.07638229  0.75785271  1
  Te  Te75  1  0.08361595  0.40459049  0.08690937  1
  Te  Te76  1  0.09118326  0.41792811  0.41927921  1
  Te  Te77  1  0.05712821  0.45097083  0.73315527  1
  Te  Te78  1  0.08468925  0.75185696  0.08536450  1
  Te  Te79  1  0.09864660  0.75243674  0.41867618  1
  Te  Te80  1  0.07825326  0.74321680  0.75399145  1
  Te  Te81  1  0.41337344  0.08929162  0.08189434  1
  Te  Te82  1  0.44349206  0.09335625  0.42321226  1
  Te  Te83  1  0.43975355  0.03349624  0.73474378  1
  Te  Te84  1  0.42083065  0.42737043  0.07296156  1
  Te  Te85  1  0.42328836  0.42994028  0.42496844  1
  Te  Te86  1  0.39872687  0.40338691  0.73794967  1
  Te  Te87  1  0.44075832  0.76955179  0.07376341  1
  Te  Te88  1  0.43279292  0.76495306  0.42700042  1
  Te  Te89  1  0.39876981  0.73801027  0.71275243  1
  Te  Te90  1  0.71728788  0.05015299  0.04877180  1
  Te  Te91  1  0.73276742  0.05857312  0.41839970  1
  Te  Te92  1  0.75398370  0.08093172  0.72812051  1
  Te  Te93  1  0.73865566  0.44692480  0.07734032  1
  Te  Te94  1  0.76849062  0.39464161  0.43834968  1
  Te  Te95  1  0.74440001  0.41002079  0.76153304  1
  Te  Te96  1  0.76281017  0.74994043  0.06408037  1
  Te  Te97  1  0.72178943  0.78208018  0.44816499  1
  Te  Te98  1  0.72501451  0.76883513  0.77026511  1
  Te  Te99  1  0.09784933  0.26456997  0.25279667  1
  Te  Te100  1  0.06924711  0.27653664  0.61100656  1
  Te  Te101  1  0.07761308  0.24745575  0.88336114  1
  Te  Te102  1  0.06747663  0.56571545  0.22547696  1
  Te  Te103  1  0.09919961  0.55908047  0.62646415  1
  Te  Te104  1  0.08017422  0.57793618  0.89954542  1
  Te  Te105  1  0.09331629  0.91400521  0.24937057  1
  Te  Te106  1  0.08699350  0.91629997  0.57702036  1
  Te  Te107  1  0.08332355  0.90956867  0.88287660  1
  Te  Te108  1  0.42288389  0.23888275  0.27768594  1
  Te  Te109  1  0.40126235  0.25577123  0.61011337  1
  Te  Te110  1  0.41310216  0.23574696  0.91482952  1
  Te  Te111  1  0.42370970  0.58386100  0.26983869  1
  Te  Te112  1  0.40901354  0.58938767  0.58311036  1
  Te  Te113  1  0.41802047  0.57229432  0.89201376  1
  Te  Te114  1  0.41985986  0.90476607  0.25306454  1
  Te  Te115  1  0.45315026  0.93904593  0.60789592  1
  Te  Te116  1  0.43940759  0.90083125  0.91286461  1
  Te  Te117  1  0.75158733  0.25340801  0.25338429  1
  Te  Te118  1  0.76644688  0.24366604  0.59114965  1
  Te  Te119  1  0.74825416  0.24717651  0.90215819  1
  Te  Te120  1  0.73315453  0.59130010  0.23715579  1
  Te  Te121  1  0.73831345  0.60658031  0.60134477  1
  Te  Te122  1  0.76023018  0.58561215  0.92140763  1
  Te  Te123  1  0.74213092  0.92683072  0.24945182  1
  Te  Te124  1  0.75465378  0.92804019  0.58098859  1
  Te  Te125  1  0.71082196  0.94573092  0.92100349  1
  Te  Te126  1  0.22969468  0.26407972  0.08555409  1
  Te  Te127  1  0.24159645  0.24587699  0.44122686  1
  Te  Te128  1  0.25605147  0.24397855  0.75233361  1
  Te  Te129  1  0.24451359  0.60192667  0.07631367  1
  Te  Te130  1  0.24777063  0.57038438  0.44190695  1
  Te  Te131  1  0.24998286  0.56558039  0.70543947  1
  Te  Te132  1  0.27403380  0.89876396  0.08639494  1
  Te  Te133  1  0.28708438  0.90000242  0.45754031  1
  Te  Te134  1  0.25492625  0.93011863  0.73908417  1
  Te  Te135  1  0.58302295  0.24603394  0.09052892  1
  Te  Te136  1  0.58518153  0.24494550  0.42281866  1
  Te  Te137  1  0.55684803  0.22378174  0.73458556  1
  Te  Te138  1  0.57719140  0.57716221  0.08112492  1
  Te  Te139  1  0.57858967  0.58123846  0.42148070  1
  Te  Te140  1  0.59067517  0.61054768  0.73181548  1
  Te  Te141  1  0.57935049  0.90208342  0.07543698  1
  Te  Te142  1  0.53683075  0.89433639  0.47417415  1
  Te  Te143  1  0.53446024  0.90041241  0.72904048  1
  Te  Te144  1  0.90854489  0.24533081  0.07675943  1
  Te  Te145  1  0.92566718  0.23629167  0.43889746  1
  Te  Te146  1  0.94030517  0.22863535  0.70553067  1
  Te  Te147  1  0.92916851  0.56287419  0.07476634  1
  Te  Te148  1  0.90328155  0.58216334  0.41785422  1
  Te  Te149  1  0.92701603  0.56827816  0.76144894  1
  Te  Te150  1  0.89864842  0.91229031  0.04454095  1
  Te  Te151  1  0.90161531  0.93390595  0.44333563  1
  Te  Te152  1  0.92041144  0.90739268  0.74264209  1
  Te  Te153  1  0.25305689  0.07891613  0.25811331  1
  Te  Te154  1  0.25615340  0.05985746  0.60209656  1
  Te  Te155  1  0.24296865  0.06308903  0.89069055  1
  Te  Te156  1  0.25546299  0.41392739  0.24174461  1
  Te  Te157  1  0.27726757  0.43321182  0.62346934  1
  Te  Te158  1  0.25179794  0.42860905  0.89501367  1
  Te  Te159  1  0.28593209  0.75615317  0.24562743  1
  Te  Te160  1  0.28237684  0.74860149  0.59542063  1
  Te  Te161  1  0.25555574  0.74801270  0.91164823  1
  Te  Te162  1  0.58618841  0.08534408  0.26283002  1
  Te  Te163  1  0.55808882  0.08307212  0.58926748  1
  Te  Te164  1  0.57657201  0.04172342  0.89156452  1
  Te  Te165  1  0.58354454  0.43375668  0.24252067  1
  Te  Te166  1  0.59004968  0.42012100  0.58767399  1
  Te  Te167  1  0.57251178  0.42806977  0.92157134  1
  Te  Te168  1  0.57330735  0.76648455  0.26997592  1
  Te  Te169  1  0.60582894  0.78963680  0.57043987  1
  Te  Te170  1  0.59290126  0.76739746  0.89168767  1
  Te  Te171  1  0.92009029  0.07319439  0.26136385  1
  Te  Te172  1  0.89071988  0.11684297  0.60539840  1
  Te  Te173  1  0.91658455  0.09402233  0.88473210  1
  Te  Te174  1  0.91571390  0.42568135  0.24533667  1
  Te  Te175  1  0.91152139  0.40625346  0.58298138  1
  Te  Te176  1  0.89841195  0.41839990  0.90552464  1
  Te  Te177  1  0.91894201  0.75767629  0.25892820  1
  Te  Te178  1  0.93594684  0.72343265  0.61078404  1
  Te  Te179  1  0.91301666  0.76883565  0.90286526  1
