# generated using pymatgen
data_In2Te3
_symmetry_space_group_name_H-M   'P 1'
_cell_length_a   18.95278228
_cell_length_b   18.92491537
_cell_length_c   18.95489242
_cell_angle_alpha   89.85439692
_cell_angle_beta   90.11020304
_cell_angle_gamma   90.00077567
_symmetry_Int_Tables_number   1
_chemical_formula_structural   In2Te3
_chemical_formula_sum   'In72 Te108'
_cell_volume   6798.70250459
_cell_formula_units_Z   36
loop_
 _symmetry_equiv_pos_site_id
 _symmetry_equiv_pos_as_xyz
  1  'x, y, z'
loop_
 _atom_site_type_symbol
 _atom_site_label
 _atom_site_symmetry_multiplicity
 _atom_site_fract_x
 _atom_site_fract_y
 _atom_site_fract_z
 _atom_site_occupancy
  In  In0  1  0.49415509  0.16960598  0.32686907  1
  In  In1  1  0.67011116  0.50265193  0.49439512  1
  In  In2  1  0.32525519  -0.01028607  0.30200765  1
  In  In3  1  0.82738896  0.65604874  0.51293308  1
  In  In4  1  0.49561163  0.48529712  0.31808489  1
  In  In5  1  0.32526879  0.17034445  0.17280000  1
  In  In6  1  0.51397103  0.17507641  0.66879375  1
  In  In7  1  0.51115951  0.83739704  0.02094284  1
  In  In8  1  0.67937551  0.83102530  0.83824788  1
  In  In9  1  0.02114444  0.01136205  0.02280016  1
  In  In10  1  0.32923779  0.83458869  0.48729487  1
  In  In11  1  0.01043049  0.66998093  0.02234861  1
  In  In12  1  0.81827385  0.00744865  0.82921329  1
  In  In13  1  0.84499185  0.31842302  0.16684043  1
  In  In14  1  0.66093368  0.16157698  0.81549271  1
  In  In15  1  0.84719297  0.81103136  0.35358399  1
  In  In16  1  0.51843120  -0.02467632  0.84669877  1
  In  In17  1  0.15262418  0.47762469  0.63460335  1
  In  In18  1  0.81005305  0.36166406  0.81602269  1
  In  In19  1  0.85184457  0.18305536  0.33527947  1
  In  In20  1  0.49957894  0.67473445  0.16952418  1
  In  In21  1  0.27839467  -0.01388150  0.04615863  1
  In  In22  1  0.83989786  0.01464476  0.50194988  1
  In  In23  1  0.16457522  0.01151283  0.83108682  1
  In  In24  1  0.32302516  0.05267617  0.63467278  1
  In  In25  1  0.65491755  0.82441255  0.16305234  1
  In  In26  1  -0.02024310  0.49485412  0.86795905  1
  In  In27  1  0.65378553  0.84227422  0.51493845  1
  In  In28  1  0.03265586  0.03578093  0.34275775  1
  In  In29  1  0.17938179  0.68921400  0.82512061  1
  In  In30  1  0.00456764  0.47689059  0.49173174  1
  In  In31  1  0.51590912  0.50275485  0.65326119  1
  In  In32  1  0.50992390  0.84258754  0.68293709  1
  In  In33  1  0.01024736  0.17476919  0.17655509  1
  In  In34  1  0.51486263  0.63597793  0.81334600  1
  In  In35  1  0.34595663  0.67702021  0.64348956  1
  In  In36  1  0.17660894  0.66148420  0.48951345  1
  In  In37  1  0.35310402  0.36788817  0.04176291  1
  In  In38  1  0.31442397  0.32951229  0.32478253  1
  In  In39  1  0.01223718  0.84465272  0.51677062  1
  In  In40  1  0.00195351  0.64816650  0.29791279  1
  In  In41  1  0.16322841  0.31487564  0.83953231  1
  In  In42  1  0.33104119  0.49309577  0.81212444  1
  In  In43  1  0.34165592  0.63174477  0.34532450  1
  In  In44  1  0.50499845  0.67437741  0.50106719  1
  In  In45  1  0.48641080  0.29795976  0.49547571  1
  In  In46  1  0.66123252  -0.00415291  0.33318189  1
  In  In47  1  0.16743056  0.32218383  0.48943745  1
  In  In48  1  0.47419040  0.15618469  0.00523048  1
  In  In49  1  -0.01515353  0.85029103  0.84408069  1
  In  In50  1  0.17204044  0.66568917  0.16567424  1
  In  In51  1  -0.00524462  0.68553476  0.69041084  1
  In  In52  1  0.67110101  0.65242876  -0.00303103  1
  In  In53  1  0.83602726  0.66085899  0.15630655  1
  In  In54  1  0.36353001  0.67664641  0.00840528  1
  In  In55  1  0.50574293  0.36338500  0.84758141  1
  In  In56  1  0.14986535  0.48545924  0.01559953  1
  In  In57  1  0.80652158  0.30992727  0.53292979  1
  In  In58  1  0.32957982  0.16297569  0.81831128  1
  In  In59  1  0.81634330  0.65175026  0.83470922  1
  In  In60  1  0.15548984  0.84097216  0.32744787  1
  In  In61  1  0.49863417  0.02572856  0.50673834  1
  In  In62  1  0.83728924  0.47821751  0.31680471  1
  In  In63  1  0.66864891  0.49220899  0.18395064  1
  In  In64  1  0.32054081  0.85873567  0.83043379  1
  In  In65  1  0.00231850  0.34321208  0.66849008  1
  In  In66  1  0.66469943  0.15949018  0.16617840  1
  In  In67  1  -0.00067595  0.01841162  0.65867017  1
  In  In68  1  -0.00851357  0.18414808  0.83405670  1
  In  In69  1  0.16033469  0.32658747  0.17230541  1
  In  In70  1  0.67195994  0.32727908  0.00650048  1
  In  In71  1  0.82203671  -0.00831014  0.14391399  1
  Te  Te72  1  0.11376262  0.09737309  0.10202637  1
  Te  Te73  1  0.09343285  0.10718009  0.45774736  1
  Te  Te74  1  0.08874606  0.10917854  0.74525072  1
  Te  Te75  1  0.05850034  0.40065240  0.09065451  1
  Te  Te76  1  0.08909258  0.40895666  0.39572054  1
  Te  Te77  1  0.08597410  0.43449560  0.76487811  1
  Te  Te78  1  0.09718589  0.76949414  0.08841417  1
  Te  Te79  1  0.06920937  0.73941629  0.41221917  1
  Te  Te80  1  0.09056692  0.78582366  0.74987306  1
  Te  Te81  1  0.40086048  0.06005252  0.09783426  1
  Te  Te82  1  0.40154242  0.07961994  0.40593509  1
  Te  Te83  1  0.43258476  0.06761721  0.75301848  1
  Te  Te84  1  0.45529068  0.45715483  0.08894489  1
  Te  Te85  1  0.41190997  0.40425909  0.41521441  1
  Te  Te86  1  0.42063837  0.40825873  0.72583325  1
  Te  Te87  1  0.39840560  0.78676696  0.11869564  1
  Te  Te88  1  0.42052917  0.75119857  0.40129365  1
  Te  Te89  1  0.41035526  0.74844077  0.76348957  1
  Te  Te90  1  0.76715303  0.10954336  0.07136917  1
  Te  Te91  1  0.74899854  0.09291054  0.40738868  1
  Te  Te92  1  0.76515606  0.10352485  0.72422286  1
  Te  Te93  1  0.76133716  0.41959832  0.08897728  1
  Te  Te94  1  0.75464606  0.40326988  0.41757769  1
  Te  Te95  1  0.73644078  0.44764180  0.72068298  1
  Te  Te96  1  0.75362169  0.75555685  0.07046164  1
  Te  Te97  1  0.73480525  0.74322661  0.42962577  1
  Te  Te98  1  0.74647668  0.74368886  0.74416973  1
  Te  Te99  1  0.07978994  0.25725245  0.27590987  1
  Te  Te100  1  0.07063262  0.24848056  0.57761495  1
  Te  Te101  1  0.07412447  0.25257383  0.93525146  1
  Te  Te102  1  0.10277001  0.56042904  0.24288208  1
  Te  Te103  1  0.06778284  0.59669537  0.58665978  1
  Te  Te104  1  0.09599806  0.59336580  0.90860580  1
  Te  Te105  1  0.08181175  0.93672265  0.23869683  1
  Te  Te106  1  0.09978773  0.93545322  0.58869685  1
  Te  Te107  1  0.09610123  0.91482436  0.92400132  1
  Te  Te108  1  0.42285015  0.26686125  0.23537123  1
  Te  Te109  1  0.40075835  0.20859983  0.57919080  1
  Te  Te110  1  0.41377675  0.25749478  0.90802188  1
  Te  Te111  1  0.40491580  0.56571466  0.22298453  1
  Te  Te112  1  0.41046287  0.57040296  0.56236538  1
  Te  Te113  1  0.41883208  0.57178654  0.90857378  1
  Te  Te114  1  0.40774513  0.89410680  0.23177488  1
  Te  Te115  1  0.41818910  0.91359774  0.58579712  1
  Te  Te116  1  0.40774823  0.92333848  0.93633661  1
  Te  Te117  1  0.74143912  0.25382597  0.25666244  1
  Te  Te118  1  0.73377919  0.20333088  0.60662696  1
  Te  Te119  1  0.75002347  0.24763578  0.90364144  1
  Te  Te120  1  0.75233514  0.59256848  0.26224524  1
  Te  Te121  1  0.74853108  0.56771043  0.60352939  1
  Te  Te122  1  0.76759909  0.55990761  0.93886578  1
  Te  Te123  1  0.75999155  0.90337971  0.26415285  1
  Te  Te124  1  0.75695741  0.92187784  0.57993069  1
  Te  Te125  1  0.74978878  0.92152641  0.92714245  1
  Te  Te126  1  0.25753232  0.25751407  0.06840444  1
  Te  Te127  1  0.24044777  0.22661244  0.40105262  1
  Te  Te128  1  0.25029395  0.25674967  0.73884206  1
  Te  Te129  1  0.25430153  0.58708676  0.06486178  1
  Te  Te130  1  0.24092192  0.55340305  0.41716124  1
  Te  Te131  1  0.24713581  0.58961560  0.72823421  1
  Te  Te132  1  0.19486754  0.90346864  0.13458748  1
  Te  Te133  1  0.23562962  0.93065245  0.41913715  1
  Te  Te134  1  0.25445207  0.94512180  0.72825614  1
  Te  Te135  1  0.56899498  0.24642109  0.08392793  1
  Te  Te136  1  0.59072580  0.23018668  0.41822269  1
  Te  Te137  1  0.58886482  0.27846504  0.75028415  1
  Te  Te138  1  0.57367939  0.57312969  0.08352800  1
  Te  Te139  1  0.57765673  0.58351408  0.40538231  1
  Te  Te140  1  0.61677415  0.53974219  0.76216000  1
  Te  Te141  1  0.60013651  0.93477953  0.08293284  1
  Te  Te142  1  0.56325872  0.91882651  0.41955215  1
  Te  Te143  1  0.61408189  0.93545872  0.73746099  1
  Te  Te144  1  0.90154467  0.21077932  0.08156924  1
  Te  Te145  1  0.91206708  0.26946089  0.43769727  1
  Te  Te146  1  0.89958034  0.25977569  0.74092164  1
  Te  Te147  1  0.92607219  0.56969737  0.08592348  1
  Te  Te148  1  0.91541302  0.58197497  0.41247446  1
  Te  Te149  1  0.91713758  0.57156259  0.75221114  1
  Te  Te150  1  0.91795120  0.91527489  0.06490136  1
  Te  Te151  1  0.93584908  0.92360037  0.40971746  1
  Te  Te152  1  0.90703868  0.92305647  0.73740949  1
  Te  Te153  1  0.22568401  0.08190431  0.23838576  1
  Te  Te154  1  0.21368641  0.11010934  0.55753252  1
  Te  Te155  1  0.25668984  0.08400923  0.92651856  1
  Te  Te156  1  0.25948348  0.42205756  0.22361203  1
  Te  Te157  1  0.25964043  0.40289008  0.57380913  1
  Te  Te158  1  0.25595870  0.41861551  0.92126872  1
  Te  Te159  1  0.24944789  0.73553109  0.27655473  1
  Te  Te160  1  0.23595143  0.76379714  0.58490951  1
  Te  Te161  1  0.25915708  0.76184467  0.93108336  1
  Te  Te162  1  0.56706243  0.06813365  0.23933743  1
  Te  Te163  1  0.60635427  0.10148570  0.57671499  1
  Te  Te164  1  0.58409643  0.08638221  0.92541434  1
  Te  Te165  1  0.60012139  0.39552189  0.26927116  1
  Te  Te166  1  0.58199922  0.40072129  0.56465597  1
  Te  Te167  1  0.60096427  0.43453175  0.93224194  1
  Te  Te168  1  0.59241493  0.73801703  0.26228882  1
  Te  Te169  1  0.58829663  0.73478253  0.61077497  1
  Te  Te170  1  0.56831148  0.74358523  0.91524983  1
  Te  Te171  1  0.91064898  0.06894099  0.24937814  1
  Te  Te172  1  0.93990187  0.11023002  0.55632127  1
  Te  Te173  1  0.92926745  0.06991054  0.91067390  1
  Te  Te174  1  0.93843227  0.40906871  0.23749823  1
  Te  Te175  1  0.90207323  0.42277927  0.58622707  1
  Te  Te176  1  0.91664521  0.37388050  0.91955027  1
  Te  Te177  1  0.92522029  0.76082818  0.23278850  1
  Te  Te178  1  0.90818006  0.76023739  0.59014239  1
  Te  Te179  1  0.92029912  0.73484610  0.91555282  1
