# generated using pymatgen
data_In2Te3
_symmetry_space_group_name_H-M   'P 1'
_cell_length_a   18.78686882
_cell_length_b   18.78507004
_cell_length_c   18.80116483
_cell_angle_alpha   89.98267790
_cell_angle_beta   90.01006528
_cell_angle_gamma   89.93744984
_symmetry_Int_Tables_number   1
_chemical_formula_structural   In2Te3
_chemical_formula_sum   'In72 Te108'
_cell_volume   6635.16447829
_cell_formula_units_Z   36
loop_
 _symmetry_equiv_pos_site_id
 _symmetry_equiv_pos_as_xyz
  1  'x, y, z'
loop_
 _atom_site_type_symbol
 _atom_site_label
 _atom_site_symmetry_multiplicity
 _atom_site_fract_x
 _atom_site_fract_y
 _atom_site_fract_z
 _atom_site_occupancy
  In  In0  1  0.70453540  0.51898993  0.51843494  1
  In  In1  1  0.49398053  0.68337432  0.16252808  1
  In  In2  1  0.00369732  0.80766526  0.17761022  1
  In  In3  1  0.66368197  0.33439328  0.00815273  1
  In  In4  1  0.01969338  0.50748410  0.17910465  1
  In  In5  1  0.14511167  0.67452758  0.47853768  1
  In  In6  1  0.82056172  0.00926358  0.17792577  1
  In  In7  1  0.48936015  0.35056571  0.84974824  1
  In  In8  1  0.33361197  0.80971753  0.51090322  1
  In  In9  1  0.51302777  0.48538651  0.32837089  1
  In  In10  1  0.16838626  0.17780630  0.00277709  1
  In  In11  1  0.00173856  0.00753859  -0.01174489  1
  In  In12  1  0.70113693  0.38661137  0.68259109  1
  In  In13  1  0.00591232  -0.01766581  0.68189462  1
  In  In14  1  0.33655119  -0.03580583  0.01014673  1
  In  In15  1  0.86423502  0.80102537  0.66262615  1
  In  In16  1  0.32643534  0.83573901  0.17314447  1
  In  In17  1  0.69012812  0.34005692  0.32663520  1
  In  In18  1  0.47669108  -0.01329109  0.85213463  1
  In  In19  1  0.13111118  0.36398767  0.45863771  1
  In  In20  1  0.48843143  0.14898922  0.31523375  1
  In  In21  1  0.85330633  0.66198784  0.20118381  1
  In  In22  1  0.51755733  0.34544590  0.52100999  1
  In  In23  1  0.67782124  -0.00570768  0.65822975  1
  In  In24  1  0.14795488  0.16043326  0.32978459  1
  In  In25  1  0.52760061  0.17691907  0.64524412  1
  In  In26  1  0.33548931  0.00714980  0.33503843  1
  In  In27  1  0.35550653  0.34952684  0.67232990  1
  In  In28  1  -0.00672470  0.18100628  0.17108022  1
  In  In29  1  0.51853711  0.17576729  0.00357929  1
  In  In30  1  0.85651281  0.66165597  0.80900857  1
  In  In31  1  0.68360163  0.82807749  0.48430464  1
  In  In32  1  0.68643675  0.83050717  0.84891930  1
  In  In33  1  0.31976570  0.14823000  0.81001424  1
  In  In34  1  0.16299188  0.68665102  0.84884017  1
  In  In35  1  0.32393093  0.17485294  0.18376884  1
  In  In36  1  0.31624122  0.50416548  0.16033266  1
  In  In37  1  0.84993203  0.18171168  0.65457470  1
  In  In38  1  0.66187794  0.85936084  0.16114011  1
  In  In39  1  0.68532009  0.67494110  0.32866180  1
  In  In40  1  0.81662351  0.84387892  0.01059834  1
  In  In41  1  0.50280477  0.81679337  0.66568347  1
  In  In42  1  0.13958201  0.32088666  0.84373082  1
  In  In43  1  0.84386141  0.33747098  0.49649003  1
  In  In44  1  0.32916136  0.32762039  0.02232753  1
  In  In45  1  0.84730361  0.49226128  -0.02858960  1
  In  In46  1  0.31584926  -0.02220942  0.66990426  1
  In  In47  1  0.66118082  0.17285046  0.83321022  1
  In  In48  1  0.15336381  -0.02191662  0.52440788  1
  In  In49  1  0.65876176  0.66632256  -0.00292748  1
  In  In50  1  0.32353187  0.66925742  0.35981154  1
  In  In51  1  0.15011504  0.51053303  0.00625518  1
  In  In52  1  0.15196546  0.13763482  0.66523620  1
  In  In53  1  0.01815526  0.67533024  0.00463434  1
  In  In54  1  0.32350375  0.53393601  0.50571540  1
  In  In55  1  0.83892519  0.34993729  0.16961859  1
  In  In56  1  0.50922136  0.00173113  0.15708185  1
  In  In57  1  0.15660812  0.82457669  0.32161167  1
  In  In58  1  0.31194402  0.34763873  0.33068203  1
  In  In59  1  0.69184658  -0.02202600  0.33406824  1
  In  In60  1  0.50811013  0.50600831  -0.00919553  1
  In  In61  1  -0.00975935  0.34559040  0.66555951  1
  In  In62  1  0.32674554  0.51924273  0.84104441  1
  In  In63  1  0.16808533  0.50624951  0.64901539  1
  In  In64  1  0.16066771  -0.01801518  0.82158920  1
  In  In65  1  0.00054419  0.16147157  0.49686451  1
  In  In66  1  0.01282735  0.83097424  0.82362409  1
  In  In67  1  0.49540489  0.66620775  0.50498041  1
  In  In68  1  0.52363262  0.65418597  0.81647659  1
  In  In69  1  0.83370528  0.15228027  0.01268963  1
  In  In70  1  0.67245341  0.15988369  0.47759747  1
  In  In71  1  0.83685641  0.16861835  0.33953846  1
  Te  Te72  1  0.08327863  0.08544886  0.09101976  1
  Te  Te73  1  0.07438573  0.05487356  0.41764451  1
  Te  Te74  1  0.06125373  0.09180939  0.77509459  1
  Te  Te75  1  0.06062334  0.41477850  0.07063141  1
  Te  Te76  1  0.03422513  0.46622661  0.39020657  1
  Te  Te77  1  0.08424882  0.43089355  0.75313491  1
  Te  Te78  1  0.11091029  0.74342554  0.09570483  1
  Te  Te79  1  0.05329155  0.77898253  0.42141591  1
  Te  Te80  1  0.06091990  0.71778820  0.74420091  1
  Te  Te81  1  0.40248980  0.09262489  0.08070277  1
  Te  Te82  1  0.41626711  0.08912198  0.42750277  1
  Te  Te83  1  0.43514117  0.08438525  0.73419171  1
  Te  Te84  1  0.42638767  0.42052552  0.09019325  1
  Te  Te85  1  0.41329183  0.42489559  0.43063305  1
  Te  Te86  1  0.43382776  0.45384446  0.74994513  1
  Te  Te87  1  0.40659166  0.75944773  0.07303200  1
  Te  Te88  1  0.43416849  0.76346794  0.40487268  1
  Te  Te89  1  0.41565501  0.72848745  0.74500523  1
  Te  Te90  1  0.72895811  0.07507412  0.08335145  1
  Te  Te91  1  0.78353870  0.06045315  0.44010447  1
  Te  Te92  1  0.75594666  0.09400465  0.74273243  1
  Te  Te93  1  0.75234195  0.43762813  0.07891877  1
  Te  Te94  1  0.77303655  0.44111266  0.40636695  1
  Te  Te95  1  0.80915473  0.43593460  0.77283755  1
  Te  Te96  1  0.74960939  0.73838098  0.09949445  1
  Te  Te97  1  0.78311535  0.72903728  0.42871572  1
  Te  Te98  1  0.74162041  0.74146791  0.74131800  1
  Te  Te99  1  0.07303662  0.26797247  0.26102985  1
  Te  Te100  1  0.08796267  0.25366511  0.58180152  1
  Te  Te101  1  0.05484123  0.23380390  0.92598449  1
  Te  Te102  1  0.10422928  0.57452606  0.28214282  1
  Te  Te103  1  0.06528105  0.57801995  0.56706803  1
  Te  Te104  1  0.06368895  0.57580304  0.89965990  1
  Te  Te105  1  0.06609730  0.91977204  0.25277877  1
  Te  Te106  1  0.06199122  0.88156902  0.58906643  1
  Te  Te107  1  0.09452178  0.89901811  0.93274086  1
  Te  Te108  1  0.41995262  0.27137628  0.25177340  1
  Te  Te109  1  0.41155888  0.24647258  0.57281966  1
  Te  Te110  1  0.40155872  0.23771438  0.91149918  1
  Te  Te111  1  0.41421376  0.58326233  0.26111697  1
  Te  Te112  1  0.40501098  0.60571153  0.60536959  1
  Te  Te113  1  0.41485448  0.60606675  0.92769243  1
  Te  Te114  1  0.42843524  0.91713248  0.25438971  1
  Te  Te115  1  0.42157038  0.91456083  0.57961427  1
  Te  Te116  1  0.37593730  0.88157223  0.88908638  1
  Te  Te117  1  0.75386404  0.23735075  0.23244491  1
  Te  Te118  1  0.73477648  0.25876989  0.57845768  1
  Te  Te119  1  0.75594074  0.25481075  0.91790510  1
  Te  Te120  1  0.75338685  0.56722381  0.25344549  1
  Te  Te121  1  0.78414428  0.59892742  0.61559660  1
  Te  Te122  1  0.75215457  0.59318922  0.90306301  1
  Te  Te123  1  0.78859663  0.87320710  0.26080742  1
  Te  Te124  1  0.77341554  0.90190881  0.58571139  1
  Te  Te125  1  0.75432930  0.94135258  0.91880976  1
  Te  Te126  1  0.22372070  0.26763869  0.11365286  1
  Te  Te127  1  0.23791397  0.24737863  0.41638573  1
  Te  Te128  1  0.24321940  0.25923909  0.73858899  1
  Te  Te129  1  0.24890224  0.59893316  0.06902628  1
  Te  Te130  1  0.21992085  0.55816271  0.39223537  1
  Te  Te131  1  0.24209744  0.59868208  0.74405819  1
  Te  Te132  1  0.22927204  0.92220603  0.10042591  1
  Te  Te133  1  0.25064275  0.90858637  0.41955223  1
  Te  Te134  1  0.23212376  0.88006108  0.74068374  1
  Te  Te135  1  0.57773562  0.26195097  0.10530001  1
  Te  Te136  1  0.57967917  0.26003971  0.40823225  1
  Te  Te137  1  0.58361680  0.27626501  0.74696231  1
  Te  Te138  1  0.58734274  0.57941165  0.09997316  1
  Te  Te139  1  0.59200475  0.58088901  0.41881392  1
  Te  Te140  1  0.59401871  0.54865594  0.74220113  1
  Te  Te141  1  0.56583959  0.90599447  0.05945436  1
  Te  Te142  1  0.58582588  0.91510128  0.41461433  1
  Te  Te143  1  0.58383651  0.91928273  0.75543841  1
  Te  Te144  1  0.91931778  0.26767675  0.06929195  1
  Te  Te145  1  0.93918465  0.26397887  0.40170021  1
  Te  Te146  1  0.91257676  0.26252144  0.76260864  1
  Te  Te147  1  0.91587668  0.58804449  0.07985264  1
  Te  Te148  1  0.95556685  0.57643143  0.45145927  1
  Te  Te149  1  0.90074607  0.55528859  0.71311430  1
  Te  Te150  1  0.92095558  0.91965556  0.09252790  1
  Te  Te151  1  0.84999620  0.92766323  0.38712414  1
  Te  Te152  1  0.89869334  0.91159699  0.76428167  1
  Te  Te153  1  0.23246558  0.06732103  0.24069042  1
  Te  Te154  1  0.25759431  0.08179429  0.57292463  1
  Te  Te155  1  0.24799191  0.07018624  0.91925753  1
  Te  Te156  1  0.22127548  0.42340048  0.24119116  1
  Te  Te157  1  0.25183592  0.40548288  0.56971828  1
  Te  Te158  1  0.25243818  0.40583587  0.91469014  1
  Te  Te159  1  0.24367920  0.72681091  0.24393369  1
  Te  Te160  1  0.23188513  0.73412646  0.58371318  1
  Te  Te161  1  0.25653520  0.78052663  0.90989633  1
  Te  Te162  1  0.60382871  0.07951069  0.24834705  1
  Te  Te163  1  0.58469446  0.06435195  0.55809442  1
  Te  Te164  1  0.58673042  0.06965341  0.91990384  1
  Te  Te165  1  0.60013145  0.41332177  0.23458613  1
  Te  Te166  1  0.58588930  0.45729542  0.59945002  1
  Te  Te167  1  0.60730776  0.43138493  0.90198394  1
  Te  Te168  1  0.58595213  0.76468212  0.25464792  1
  Te  Te169  1  0.60379126  0.73712393  0.58442325  1
  Te  Te170  1  0.57064279  0.76321269  0.92090646  1
  Te  Te171  1  0.92950116  0.07504241  0.26171799  1
  Te  Te172  1  0.92048060  0.06624422  0.58443049  1
  Te  Te173  1  0.90033477  0.07434317  0.90509234  1
  Te  Te174  1  0.91928558  0.43265652  0.26371801  1
  Te  Te175  1  0.91469500  0.44139267  0.57784103  1
  Te  Te176  1  0.91818846  0.40415946  0.87619513  1
  Te  Te177  1  0.95489676  0.72162704  0.29171317  1
  Te  Te178  1  0.89273120  0.70222623  0.55236820  1
  Te  Te179  1  0.90969866  0.75515618  0.92505189  1
