# generated using pymatgen
data_In2Te3
_symmetry_space_group_name_H-M   'P 1'
_cell_length_a   18.76851840
_cell_length_b   18.77529523
_cell_length_c   18.77877411
_cell_angle_alpha   89.98509316
_cell_angle_beta   89.98560238
_cell_angle_gamma   90.02535964
_symmetry_Int_Tables_number   1
_chemical_formula_structural   In2Te3
_chemical_formula_sum   'In72 Te108'
_cell_volume   6617.34735879
_cell_formula_units_Z   36
loop_
 _symmetry_equiv_pos_site_id
 _symmetry_equiv_pos_as_xyz
  1  'x, y, z'
loop_
 _atom_site_type_symbol
 _atom_site_label
 _atom_site_symmetry_multiplicity
 _atom_site_fract_x
 _atom_site_fract_y
 _atom_site_fract_z
 _atom_site_occupancy
  In  In0  1  0.00559250  0.51807857  0.17324358  1
  In  In1  1  0.67030567  0.81856776  0.48802919  1
  In  In2  1  0.31845413  0.36851571  0.30819869  1
  In  In3  1  0.31965412  0.00212136  0.69047955  1
  In  In4  1  0.14223239  0.33946090  0.14986049  1
  In  In5  1  0.84140394  0.83176635  0.27926105  1
  In  In6  1  0.67408560  0.16529387  0.84912058  1
  In  In7  1  -0.00090620  0.15971539  0.16952907  1
  In  In8  1  0.32695995  -0.02088030  0.34726301  1
  In  In9  1  0.34021355  0.65434535  0.67671690  1
  In  In10  1  0.15884078  0.18885085  0.66597870  1
  In  In11  1  0.67112383  0.49914730  0.50328883  1
  In  In12  1  0.50361466  0.65172819  0.84709856  1
  In  In13  1  0.82633160  0.02240623  0.49778360  1
  In  In14  1  0.82670697  0.17021237  0.00607389  1
  In  In15  1  0.49488250  0.33215265  0.83073340  1
  In  In16  1  0.16296636  0.49877443  0.66555832  1
  In  In17  1  0.30689039  0.48257620  0.85066226  1
  In  In18  1  0.85503320  0.49176901  -0.00135197  1
  In  In19  1  -0.00602868  0.00557713  0.01696680  1
  In  In20  1  0.49901375  0.80910914  0.65576979  1
  In  In21  1  0.82170712  0.51126808  0.33916458  1
  In  In22  1  0.66276727  0.15077336  0.15388416  1
  In  In23  1  0.66806187  0.67417865  -0.00101677  1
  In  In24  1  0.32913936  0.00942655  -0.00155842  1
  In  In25  1  0.50415959  0.82291496  0.34829363  1
  In  In26  1  0.15249147  0.15535328  0.34279887  1
  In  In27  1  0.52179078  -0.03340015  0.13557804  1
  In  In28  1  0.14414005  0.33960212  0.48579538  1
  In  In29  1  0.33722589  0.84171812  0.46862986  1
  In  In30  1  0.49629426  0.67283910  0.47865840  1
  In  In31  1  0.18280481  0.81490204  0.32390331  1
  In  In32  1  0.16176448  0.00632060  0.83493670  1
  In  In33  1  0.86035018  0.18376709  0.35866471  1
  In  In34  1  0.01501629  0.50711544  0.84479084  1
  In  In35  1  0.52865529  0.17791248  0.32817041  1
  In  In36  1  0.17152044  0.79253656  0.01187573  1
  In  In37  1  0.32108627  0.80151569  0.17107307  1
  In  In38  1  0.49239219  0.00078618  0.83927207  1
  In  In39  1  0.83893831  0.82589314  0.69013882  1
  In  In40  1  0.49628085  0.13989010  0.65962458  1
  In  In41  1  0.65904061  0.48945385  0.81165591  1
  In  In42  1  0.48452035  0.34748799  0.14402334  1
  In  In43  1  0.01937458  0.18631875  0.85076441  1
  In  In44  1  0.48941210  0.68254593  0.16220248  1
  In  In45  1  0.84888136  0.33720557  0.15930024  1
  In  In46  1  -0.00190112  0.48927087  0.49333742  1
  In  In47  1  -0.00064117  0.84501748  0.51140029  1
  In  In48  1  0.82557877  0.84425291  0.01940431  1
  In  In49  1  -0.00325527  0.64737767  0.01175438  1
  In  In50  1  0.31371690  0.19176988  0.14959611  1
  In  In51  1  0.33179210  0.17349658  0.51937854  1
  In  In52  1  0.17287631  0.66186651  0.49126522  1
  In  In53  1  0.00567832  0.83529577  0.82610554  1
  In  In54  1  0.68440546  0.50575676  0.16579133  1
  In  In55  1  0.83185942  0.66274166  0.50209376  1
  In  In56  1  0.14094168  0.00206184  0.17009176  1
  In  In57  1  0.49443767  0.17086897  -0.01577841  1
  In  In58  1  0.33724414  0.33143286  0.69584867  1
  In  In59  1  0.47433452  0.49383784  -0.01387173  1
  In  In60  1  0.66649354  0.01304902  0.66691019  1
  In  In61  1  0.83688881  0.17313966  0.66332242  1
  In  In62  1  -0.00902876  0.00914501  0.33799364  1
  In  In63  1  0.51785110  -0.00315027  0.50066347  1
  In  In64  1  0.15736836  0.82511485  0.67658438  1
  In  In65  1  0.48733722  0.51626700  0.32997255  1
  In  In66  1  0.85316948  0.65253355  0.81948637  1
  In  In67  1  0.68744212  0.34120356  0.65360926  1
  In  In68  1  0.33318915  0.50454744  0.48508358  1
  In  In69  1  -0.00940315  0.34454323  0.66762305  1
  In  In70  1  0.67389089  0.33467410  0.34232391  1
  In  In71  1  0.68744903  0.82907517  0.84893345  1
  Te  Te72  1  0.10042765  0.10523031  0.06684867  1
  Te  Te73  1  0.07181242  0.07917918  0.43949257  1
  Te  Te74  1  0.07131403  0.08870541  0.74408826  1
  Te  Te75  1  0.06924723  0.43854859  0.06348771  1
  Te  Te76  1  0.10943942  0.45443290  0.39732574  1
  Te  Te77  1  0.09958708  0.39881840  0.75858952  1
  Te  Te78  1  0.06083123  0.75175406  0.10752411  1
  Te  Te79  1  0.07513328  0.75127436  0.41588029  1
  Te  Te80  1  0.08608421  0.72940243  0.76357463  1
  Te  Te81  1  0.42452999  0.08887149  0.10134032  1
  Te  Te82  1  0.41567185  0.08259475  0.42155892  1
  Te  Te83  1  0.40002314  0.10266932  0.77246287  1
  Te  Te84  1  0.37230234  0.41627149  0.06985700  1
  Te  Te85  1  0.42571890  0.40543818  0.41427475  1
  Te  Te86  1  0.42052203  0.44460307  0.75542395  1
  Te  Te87  1  0.41641415  0.76551969  0.06247814  1
  Te  Te88  1  0.38846905  0.72606037  0.38426247  1
  Te  Te89  1  0.41241514  0.75437379  0.76657192  1
  Te  Te90  1  0.76451891  0.06429716  0.09078175  1
  Te  Te91  1  0.74665077  0.09986021  0.40074006  1
  Te  Te92  1  0.76406732  0.07722108  0.76170857  1
  Te  Te93  1  0.74620662  0.40627275  0.06941064  1
  Te  Te94  1  0.77530655  0.40113400  0.43305283  1
  Te  Te95  1  0.76925615  0.41056446  0.75510669  1
  Te  Te96  1  0.74261568  0.75075110  0.10457223  1
  Te  Te97  1  0.76424281  0.74815999  0.39408344  1
  Te  Te98  1  0.73757111  0.72719493  0.74893871  1
  Te  Te99  1  0.06985012  0.26191639  0.26778946  1
  Te  Te100  1  0.05543815  0.24689815  0.56643528  1
  Te  Te101  1  0.11116132  0.28271888  0.91622012  1
  Te  Te102  1  0.07793735  0.63608665  0.23016056  1
  Te  Te103  1  0.07497535  0.59071024  0.58388423  1
  Te  Te104  1  0.10751155  0.57450499  0.94343753  1
  Te  Te105  1  0.07210033  0.90448603  0.26113984  1
  Te  Te106  1  0.07449365  0.92614855  0.60931903  1
  Te  Te107  1  0.08985132  0.90843251  0.93817287  1
  Te  Te108  1  0.41502478  0.25231472  0.25295885  1
  Te  Te109  1  0.42979071  0.26193763  0.59365793  1
  Te  Te110  1  0.39984914  0.26548165  0.92272603  1
  Te  Te111  1  0.40212117  0.57087627  0.21888280  1
  Te  Te112  1  0.42892085  0.57725541  0.57868797  1
  Te  Te113  1  0.37985990  0.60328196  0.93170839  1
  Te  Te114  1  0.41758430  0.90807928  0.24515082  1
  Te  Te115  1  0.41165138  0.92187427  0.58483195  1
  Te  Te116  1  0.41803161  0.91241212  0.93146486  1
  Te  Te117  1  0.75281662  0.24909365  0.24202441  1
  Te  Te118  1  0.76024155  0.24945062  0.56266440  1
  Te  Te119  1  0.75033833  0.26650479  0.92341309  1
  Te  Te120  1  0.75261212  0.60590322  0.24844192  1
  Te  Te121  1  0.75935022  0.57471405  0.59548073  1
  Te  Te122  1  0.75206970  0.57878422  0.91574589  1
  Te  Te123  1  0.73712004  0.91295385  0.20805226  1
  Te  Te124  1  0.74799495  0.90784153  0.58770925  1
  Te  Te125  1  0.76889846  0.93140963  0.91413854  1
  Te  Te126  1  0.23331563  0.26937521  0.05126828  1
  Te  Te127  1  0.25630894  0.25511339  0.41138741  1
  Te  Te128  1  0.24818822  0.24157415  0.77151132  1
  Te  Te129  1  0.28898304  0.54335577  0.11094800  1
  Te  Te130  1  0.23456736  0.56661034  0.39267702  1
  Te  Te131  1  0.23437325  0.59012334  0.76484731  1
  Te  Te132  1  0.24325131  0.91613404  0.09479111  1
  Te  Te133  1  0.21466983  0.92473497  0.43326969  1
  Te  Te134  1  0.25243689  0.89688604  0.77638349  1
  Te  Te135  1  0.58542492  0.25658242  0.07340116  1
  Te  Te136  1  0.57932891  0.26539946  0.43373075  1
  Te  Te137  1  0.58387888  0.23706005  0.74781117  1
  Te  Te138  1  0.57424920  0.57236297  0.07695498  1
  Te  Te139  1  0.59888988  0.59077876  0.39966844  1
  Te  Te140  1  0.57467932  0.58485774  0.73743843  1
  Te  Te141  1  0.64058457  0.89069549  0.08796544  1
  Te  Te142  1  0.60730834  0.92665902  0.40056552  1
  Te  Te143  1  0.57962121  0.91152866  0.74231361  1
  Te  Te144  1  0.94015253  0.25738538  0.06806746  1
  Te  Te145  1  0.97145585  0.26886956  0.39946019  1
  Te  Te146  1  0.91224659  0.25860431  0.76672244  1
  Te  Te147  1  0.88685217  0.59330553  0.10663989  1
  Te  Te148  1  0.93052762  0.59621553  0.40475808  1
  Te  Te149  1  0.92840184  0.55903417  0.73532636  1
  Te  Te150  1  0.92365723  0.91340079  0.10880100  1
  Te  Te151  1  0.89366292  0.90732821  0.41443695  1
  Te  Te152  1  0.91640414  0.93051221  0.75859845  1
  Te  Te153  1  0.25339217  0.08025010  0.25040020  1
  Te  Te154  1  0.23607920  0.07750790  0.58735358  1
  Te  Te155  1  0.24522458  0.09757009  0.91605933  1
  Te  Te156  1  0.22461415  0.44832845  0.22059511  1
  Te  Te157  1  0.25541306  0.40613410  0.58203714  1
  Te  Te158  1  0.20348263  0.40968777  0.92941898  1
  Te  Te159  1  0.22678959  0.70210711  0.23329740  1
  Te  Te160  1  0.26692760  0.75091542  0.57836692  1
  Te  Te161  1  0.27384135  0.72110279  0.93666418  1
  Te  Te162  1  0.58026309  0.06159200  0.24758392  1
  Te  Te163  1  0.60794305  0.10479420  0.56018978  1
  Te  Te164  1  0.59428386  0.06497421  0.93391254  1
  Te  Te165  1  0.58080895  0.41539510  0.24605408  1
  Te  Te166  1  0.57992544  0.41909611  0.58819757  1
  Te  Te167  1  0.58673026  0.41093912  0.92315913  1
  Te  Te168  1  0.58581315  0.74277938  0.25585952  1
  Te  Te169  1  0.59992820  0.72226260  0.58290729  1
  Te  Te170  1  0.57137816  0.76654049  0.92567767  1
  Te  Te171  1  0.89520307  0.07976514  0.24452516  1
  Te  Te172  1  0.92722267  0.08423787  0.58390244  1
  Te  Te173  1  0.91947023  0.08702142  0.91367876  1
  Te  Te174  1  0.92146031  0.42304502  0.26084758  1
  Te  Te175  1  0.89902802  0.42268388  0.58101354  1
  Te  Te176  1  0.93007531  0.40317598  0.90943160  1
  Te  Te177  1  0.94518382  0.74496790  0.21708448  1
  Te  Te178  1  0.92527669  0.74197348  0.59708960  1
  Te  Te179  1  0.91461117  0.74591958  0.92406735  1
