# generated using pymatgen
data_In2Te3
_symmetry_space_group_name_H-M   'P 1'
_cell_length_a   19.04586856
_cell_length_b   19.03864579
_cell_length_c   19.03946569
_cell_angle_alpha   90.04101260
_cell_angle_beta   90.03372735
_cell_angle_gamma   90.01064273
_symmetry_Int_Tables_number   1
_chemical_formula_structural   In2Te3
_chemical_formula_sum   'In72 Te108'
_cell_volume   6903.85083202
_cell_formula_units_Z   36
loop_
 _symmetry_equiv_pos_site_id
 _symmetry_equiv_pos_as_xyz
  1  'x, y, z'
loop_
 _atom_site_type_symbol
 _atom_site_label
 _atom_site_symmetry_multiplicity
 _atom_site_fract_x
 _atom_site_fract_y
 _atom_site_fract_z
 _atom_site_occupancy
  In  In0  1  0.31641781  0.15194652  0.16252540  1
  In  In1  1  0.65185653  0.31773704  0.28959958  1
  In  In2  1  0.67758797  0.16063570  0.85059498  1
  In  In3  1  -0.00878059  -0.01006709  0.68229628  1
  In  In4  1  0.80270821  0.01110814  0.15531963  1
  In  In5  1  0.84078891  0.35953113  0.48005130  1
  In  In6  1  -0.03539860  0.84991807  0.86428227  1
  In  In7  1  0.32640548  0.67132062  0.32820495  1
  In  In8  1  0.17298167  0.50816838  0.64053114  1
  In  In9  1  0.49579394  -0.01084720  0.50409509  1
  In  In10  1  0.82948993  0.50546820  0.64757385  1
  In  In11  1  0.47180745  0.84453277  0.34479728  1
  In  In12  1  0.12918750  0.30464424  0.20366343  1
  In  In13  1  0.16826800  0.51879853  0.31376997  1
  In  In14  1  0.00963468  0.82681518  0.50590484  1
  In  In15  1  0.34177576  0.65837340  0.64447821  1
  In  In16  1  0.17272332  0.83307054  0.67535970  1
  In  In17  1  0.00230196  0.64743322  0.66152780  1
  In  In18  1  0.18152061  0.33016055  0.49763077  1
  In  In19  1  0.63638886  0.79059784  0.66723858  1
  In  In20  1  0.50765635  0.82335394  -0.00911272  1
  In  In21  1  0.33482537  0.17884870  0.50440076  1
  In  In22  1  -0.00481258  0.51399776  0.46628629  1
  In  In23  1  0.82718482  0.15757066  0.32560062  1
  In  In24  1  0.34577292  0.82050147  0.83637988  1
  In  In25  1  0.51831194  0.17882670  0.00838858  1
  In  In26  1  0.00316062  0.00417055  0.34033024  1
  In  In27  1  0.32477347  0.87116299  0.15477019  1
  In  In28  1  0.01310832  0.15230945  0.46262190  1
  In  In29  1  0.51656222  0.51030463  0.01858632  1
  In  In30  1  0.32923256  0.16485972  0.83622675  1
  In  In31  1  0.00720078  0.01453019  -0.01239856  1
  In  In32  1  -0.01997056  0.65531718  0.02832127  1
  In  In33  1  0.18418069  0.65651938  0.83229646  1
  In  In34  1  0.17334729  0.69619488  0.15123210  1
  In  In35  1  0.34256912  0.01537352  0.68198629  1
  In  In36  1  0.14270738  0.15931487  0.65969178  1
  In  In37  1  0.49913702  0.49104538  0.67226390  1
  In  In38  1  0.02640031  0.49508224  0.82236083  1
  In  In39  1  0.68517393  0.82661010  0.85320228  1
  In  In40  1  0.83718672  -0.01750400  0.52312772  1
  In  In41  1  0.53666523  0.14699194  0.69062581  1
  In  In42  1  0.49189273  0.16414194  0.31480554  1
  In  In43  1  0.85591998  0.32044949  0.83492383  1
  In  In44  1  0.80201940  0.46207121  0.02453329  1
  In  In45  1  0.30654392  0.86226239  0.48786659  1
  In  In46  1  0.34046438  0.35650353  0.01142556  1
  In  In47  1  0.66911583  0.66767247  0.33752696  1
  In  In48  1  0.17001890  0.48446199  0.01990536  1
  In  In49  1  -0.00343060  0.67180597  0.33561285  1
  In  In50  1  0.68008814  0.80967742  0.15540336  1
  In  In51  1  0.35792524  0.66142683  -0.00356968  1
  In  In52  1  0.32953061  0.34040562  0.66704381  1
  In  In53  1  0.84597301  0.18379127  0.02152924  1
  In  In54  1  0.16674673  0.16513866  -0.00839590  1
  In  In55  1  0.00697257  0.16826209  0.84277424  1
  In  In56  1  0.14688530  0.01053060  0.16484430  1
  In  In57  1  0.00435759  0.32178180  0.01258307  1
  In  In58  1  0.68060246  0.30183521  0.67012613  1
  In  In59  1  0.49783149  0.64748638  0.18674019  1
  In  In60  1  0.47957315  0.34316739  0.50655546  1
  In  In61  1  0.51676133  0.65456420  0.82231282  1
  In  In62  1  0.66142181  0.50066520  0.47486891  1
  In  In63  1  0.50964578  0.00084811  0.16342764  1
  In  In64  1  0.32838132  0.33983804  0.33571628  1
  In  In65  1  0.63823233  -0.01553782  0.32813929  1
  In  In66  1  0.84541260  0.67836440  0.48945208  1
  In  In67  1  0.68794671  0.18252991  0.48581916  1
  In  In68  1  -0.02711790  0.84604129  0.15361316  1
  In  In69  1  0.66026272  0.48972077  0.85228318  1
  In  In70  1  0.82177143  0.65800509  0.16325873  1
  In  In71  1  0.66758746  -0.01428055  0.69930192  1
  Te  Te72  1  0.06347445  0.11200365  0.08805303  1
  Te  Te73  1  0.11727049  0.05027434  0.42631868  1
  Te  Te74  1  0.09111228  0.06767711  0.76683500  1
  Te  Te75  1  0.07312303  0.41460370  0.11126028  1
  Te  Te76  1  0.09249264  0.40864260  0.40250955  1
  Te  Te77  1  0.09665253  0.41628795  0.72330136  1
  Te  Te78  1  0.07178515  0.77071285  0.06760378  1
  Te  Te79  1  0.09096317  0.75366295  0.40987956  1
  Te  Te80  1  0.08436735  0.73847176  0.75335143  1
  Te  Te81  1  0.41845788  0.08255161  0.07618097  1
  Te  Te82  1  0.41508171  0.08357274  0.41734448  1
  Te  Te83  1  0.44215964  0.07279644  0.77931232  1
  Te  Te84  1  0.42277905  0.43417034  0.10636281  1
  Te  Te85  1  0.43346876  0.42336334  0.39512084  1
  Te  Te86  1  0.42244923  0.40346418  0.75834895  1
  Te  Te87  1  0.41719726  0.75503514  0.10155968  1
  Te  Te88  1  0.40179647  0.75073864  0.43505002  1
  Te  Te89  1  0.42767161  0.74200094  0.73760443  1
  Te  Te90  1  0.73078746  0.10492510  0.06965606  1
  Te  Te91  1  0.75215384  0.05925525  0.41554612  1
  Te  Te92  1  0.74693904  0.10184410  0.73524464  1
  Te  Te93  1  0.68641540  0.39688190  0.09400495  1
  Te  Te94  1  0.73685652  0.40687052  0.38323054  1
  Te  Te95  1  0.76136425  0.40827122  0.74396724  1
  Te  Te96  1  0.77575798  0.75375177  0.05462687  1
  Te  Te97  1  0.75645212  0.76081230  0.40813856  1
  Te  Te98  1  0.74230137  0.73873190  0.75201669  1
  Te  Te99  1  0.05166046  0.22923279  0.30159479  1
  Te  Te100  1  0.07217168  0.25189982  0.56446911  1
  Te  Te101  1  0.09882314  0.27018225  0.90682715  1
  Te  Te102  1  0.07929064  0.60505238  0.22757369  1
  Te  Te103  1  0.09146007  0.59892197  0.55169731  1
  Te  Te104  1  0.08893285  0.58796869  0.93102054  1
  Te  Te105  1  0.07331731  0.90596990  0.24799602  1
  Te  Te106  1  0.09079907  0.92413005  0.58827672  1
  Te  Te107  1  0.08454014  0.91687488  0.91274210  1
  Te  Te108  1  0.40473186  0.25322339  0.23460180  1
  Te  Te109  1  0.43465685  0.23059598  0.60654699  1
  Te  Te110  1  0.41221059  0.25296257  0.92697380  1
  Te  Te111  1  0.39256006  0.56786409  0.24686490  1
  Te  Te112  1  0.43648853  0.57473408  0.57211071  1
  Te  Te113  1  0.42649719  0.56615818  0.90423462  1
  Te  Te114  1  0.40564582  0.94747118  0.25873131  1
  Te  Te115  1  0.40822911  0.91041107  0.59574421  1
  Te  Te116  1  0.41103365  0.91163350  0.92931456  1
  Te  Te117  1  0.77165423  0.25547229  0.23030855  1
  Te  Te118  1  0.78822400  0.25122389  0.57315730  1
  Te  Te119  1  0.75440591  0.26442172  0.92905853  1
  Te  Te120  1  0.71241513  0.57912734  0.22475075  1
  Te  Te121  1  0.74211793  0.59323137  0.56394832  1
  Te  Te122  1  0.75414915  0.56438852  0.93377787  1
  Te  Te123  1  0.74492988  0.90929087  0.25113138  1
  Te  Te124  1  0.74656516  0.89989695  0.60659255  1
  Te  Te125  1  0.76383634  0.87932413  0.96548318  1
  Te  Te126  1  0.23614230  0.25927396  0.08951707  1
  Te  Te127  1  0.24203369  0.23282273  0.39917606  1
  Te  Te128  1  0.24121506  0.24368562  0.74110995  1
  Te  Te129  1  0.25832564  0.58969617  0.08600957  1
  Te  Te130  1  0.24941487  0.58169362  0.41559342  1
  Te  Te131  1  0.26729626  0.57044104  0.74331785  1
  Te  Te132  1  0.23234464  0.94107501  0.06712404  1
  Te  Te133  1  0.23890732  0.95611660  0.40053791  1
  Te  Te134  1  0.25650739  0.92062040  0.76315843  1
  Te  Te135  1  0.58042733  0.28299363  0.09573496  1
  Te  Te136  1  0.57461364  0.25069412  0.41209649  1
  Te  Te137  1  0.58333756  0.26077308  0.77613979  1
  Te  Te138  1  0.60666334  0.59748877  0.10041169  1
  Te  Te139  1  0.56834489  0.57641697  0.39263355  1
  Te  Te140  1  0.60886564  0.57343340  0.73503578  1
  Te  Te141  1  0.59536169  0.91060039  0.07905681  1
  Te  Te142  1  0.59471099  0.88891477  0.44236324  1
  Te  Te143  1  0.57491238  0.89147807  0.76563709  1
  Te  Te144  1  0.90521511  0.28232273  0.11473613  1
  Te  Te145  1  0.92403386  0.25684299  0.39274514  1
  Te  Te146  1  0.93850594  0.24707675  0.74132816  1
  Te  Te147  1  0.90272576  0.54634936  0.10230545  1
  Te  Te148  1  0.87603684  0.57191131  0.38296987  1
  Te  Te149  1  0.91256183  0.57251218  0.75573350  1
  Te  Te150  1  0.89473448  0.93443901  0.05961394  1
  Te  Te151  1  0.91608454  0.90764242  0.41845007  1
  Te  Te152  1  0.89062640  0.93046917  0.76879311  1
  Te  Te153  1  0.24020971  0.07388898  0.26100946  1
  Te  Te154  1  0.24985682  0.08300721  0.58452508  1
  Te  Te155  1  0.25813076  0.07354320  0.92575286  1
  Te  Te156  1  0.23673001  0.40798676  0.23716197  1
  Te  Te157  1  0.27674324  0.42940906  0.55856610  1
  Te  Te158  1  0.24897557  0.42048838  0.91651939  1
  Te  Te159  1  0.25097108  0.77855319  0.25003299  1
  Te  Te160  1  0.24387642  0.74935645  0.57416418  1
  Te  Te161  1  0.25173272  0.74792893  0.93102028  1
  Te  Te162  1  0.60227306  0.09810895  0.23580057  1
  Te  Te163  1  0.59800123  0.08474616  0.56598411  1
  Te  Te164  1  0.59643560  0.07575241  0.93825325  1
  Te  Te165  1  0.56718353  0.40217780  0.20099105  1
  Te  Te166  1  0.60306741  0.39574324  0.57909616  1
  Te  Te167  1  0.58391778  0.40261790  0.94217763  1
  Te  Te168  1  0.56721304  0.77034507  0.25529434  1
  Te  Te169  1  0.58296058  0.76758031  0.53553845  1
  Te  Te170  1  0.59695505  0.72138159  0.92926573  1
  Te  Te171  1  0.91571474  0.07313918  0.23765590  1
  Te  Te172  1  0.93225242  0.08345368  0.57749196  1
  Te  Te173  1  0.89947592  0.09086889  0.91335871  1
  Te  Te174  1  0.96169571  0.45507991  0.32990416  1
  Te  Te175  1  0.93533255  0.42562101  0.57752838  1
  Te  Te176  1  0.93012226  0.42032545  0.92222416  1
  Te  Te177  1  0.90233045  0.75313471  0.24900598  1
  Te  Te178  1  0.91591595  0.75480535  0.60019074  1
  Te  Te179  1  0.91612987  0.72177480  0.91513862  1
