# generated using pymatgen
data_In2Te3
_symmetry_space_group_name_H-M   'P 1'
_cell_length_a   18.98475606
_cell_length_b   18.97179540
_cell_length_c   18.99358571
_cell_angle_alpha   90.01412995
_cell_angle_beta   89.78966002
_cell_angle_gamma   90.07835412
_symmetry_Int_Tables_number   1
_chemical_formula_structural   In2Te3
_chemical_formula_sum   'In72 Te108'
_cell_volume   6840.96028376
_cell_formula_units_Z   36
loop_
 _symmetry_equiv_pos_site_id
 _symmetry_equiv_pos_as_xyz
  1  'x, y, z'
loop_
 _atom_site_type_symbol
 _atom_site_label
 _atom_site_symmetry_multiplicity
 _atom_site_fract_x
 _atom_site_fract_y
 _atom_site_fract_z
 _atom_site_occupancy
  In  In0  1  0.50460060  0.34168870  0.83740752  1
  In  In1  1  0.84118123  0.85145362  0.01094554  1
  In  In2  1  0.15451275  0.82704412  0.67491998  1
  In  In3  1  0.34919912  0.49007054  0.85946398  1
  In  In4  1  0.31870670  0.33678600  0.00888204  1
  In  In5  1  0.82554352  0.35218986  0.51324312  1
  In  In6  1  0.01801760  0.67383895  0.00730879  1
  In  In7  1  0.83093416  0.16502535  0.33040900  1
  In  In8  1  0.34368029  0.34230693  0.33838424  1
  In  In9  1  0.02174968  0.34359815  -0.00926656  1
  In  In10  1  0.32745379  0.18126310  0.14825348  1
  In  In11  1  0.63307419  0.18226973  0.49558930  1
  In  In12  1  0.48941792  0.53045429  0.00196271  1
  In  In13  1  0.66330939  0.84110932  0.16770573  1
  In  In14  1  0.14578839  0.52248077  0.63862240  1
  In  In15  1  0.34208387  0.81610716  0.15808326  1
  In  In16  1  0.18447728  0.19894151  0.33838784  1
  In  In17  1  0.49980070  0.14693598  -0.00438299  1
  In  In18  1  0.84674394  0.53742639  0.00286818  1
  In  In19  1  0.83765293  0.32081809  0.18369724  1
  In  In20  1  0.34604837  -0.02304004  0.31515911  1
  In  In21  1  0.18017808  0.35021533  0.47640596  1
  In  In22  1  0.15947154  -0.01289585  0.51585421  1
  In  In23  1  0.15817288  0.15609840  0.67878838  1
  In  In24  1  0.49769211  0.48929387  0.66258822  1
  In  In25  1  0.33801186  0.48631545  0.48956799  1
  In  In26  1  0.85759665  0.31367330  0.83419511  1
  In  In27  1  0.85336891  -0.00843130  0.50107661  1
  In  In28  1  0.67512162  0.30255185  0.67128350  1
  In  In29  1  0.64984366  -0.03796837  0.69989254  1
  In  In30  1  0.34135266  -0.01366239  0.66829171  1
  In  In31  1  -0.00292569  0.83710813  0.17530592  1
  In  In32  1  0.01838469  0.52436310  0.82794022  1
  In  In33  1  0.82280714  0.82822319  0.34916892  1
  In  In34  1  0.13567105  0.87601107  -0.01731348  1
  In  In35  1  0.66261651  0.80764940  0.52318883  1
  In  In36  1  -0.01308661  0.15897447  0.50129259  1
  In  In37  1  0.14636402  0.01607228  0.15717921  1
  In  In38  1  -0.00870756  0.01063459  0.32310910  1
  In  In39  1  0.84555956  0.68873318  0.16553557  1
  In  In40  1  0.33152682  0.66740595  0.67754528  1
  In  In41  1  0.64223667  0.68850737  0.70538480  1
  In  In42  1  0.81637088  0.17660923  -0.00504608  1
  In  In43  1  0.02925032  0.34673178  0.33592047  1
  In  In44  1  0.17230715  0.33526344  0.16226322  1
  In  In45  1  0.87544320  0.83440172  0.65011193  1
  In  In46  1  0.64923042  0.51193060  0.14974441  1
  In  In47  1  0.16008994  0.54408534  0.31125516  1
  In  In48  1  0.18038981  0.67960082  0.83576361  1
  In  In49  1  0.35391003  0.84060340  0.85195888  1
  In  In50  1  0.32023906  0.14140804  0.82350195  1
  In  In51  1  0.66935628  0.51061493  0.49491341  1
  In  In52  1  0.68659932  0.33247072  0.00027302  1
  In  In53  1  -0.00778494  0.31984137  0.66210030  1
  In  In54  1  0.34622042  0.83464355  0.49500466  1
  In  In55  1  0.86336992  0.52631028  0.34791271  1
  In  In56  1  0.32804109  0.59049836  0.13199955  1
  In  In57  1  0.68615205  0.50843840  0.82333735  1
  In  In58  1  0.84979747  0.51519212  0.64743133  1
  In  In59  1  0.65643453  0.15407370  0.16513979  1
  In  In60  1  0.00360401  0.15234979  0.83145431  1
  In  In61  1  0.50813523  -0.00906079  0.48067465  1
  In  In62  1  0.14410237  0.78484093  0.36243828  1
  In  In63  1  0.81211554  0.68054773  0.85193078  1
  In  In64  1  0.65388283  0.66064322  0.32610697  1
  In  In65  1  0.34458452  0.66879402  0.33406755  1
  In  In66  1  0.34171893  0.00033436  -0.00640638  1
  In  In67  1  0.66560128  -0.00546420  -0.00068836  1
  In  In68  1  0.67248980  -0.01081008  0.31208250  1
  In  In69  1  0.49484119  0.35177790  0.18175180  1
  In  In70  1  0.46280699  0.16051859  0.64282608  1
  In  In71  1  0.82707841  -0.01656209  0.81618496  1
  Te  Te72  1  0.05092586  0.04798672  0.05319000  1
  Te  Te73  1  0.09404964  0.09351008  0.41346263  1
  Te  Te74  1  0.09668901  0.05375042  0.76704366  1
  Te  Te75  1  0.08510271  0.43199863  0.09155590  1
  Te  Te76  1  0.08861264  0.45554662  0.42052569  1
  Te  Te77  1  0.07859849  0.42032835  0.73676694  1
  Te  Te78  1  0.10127079  0.76946487  0.08813969  1
  Te  Te79  1  0.06839940  0.69770622  0.45612666  1
  Te  Te80  1  0.07142331  0.72564791  0.74823332  1
  Te  Te81  1  0.42245339  0.07330316  0.10211039  1
  Te  Te82  1  0.40629935  0.06814709  0.41108678  1
  Te  Te83  1  0.43253365  0.06368809  0.76080805  1
  Te  Te84  1  0.40552270  0.43088881  0.08906507  1
  Te  Te85  1  0.44690089  0.41576979  0.41666654  1
  Te  Te86  1  0.40343674  0.40313490  0.74392911  1
  Te  Te87  1  0.39854953  0.70935244  0.07172626  1
  Te  Te88  1  0.43509378  0.75228780  0.41415918  1
  Te  Te89  1  0.42646571  0.75631523  0.75108579  1
  Te  Te90  1  0.75886228  0.07385735  0.09038805  1
  Te  Te91  1  0.75301948  0.06853960  0.41716470  1
  Te  Te92  1  0.73287710  0.07198399  0.74552979  1
  Te  Te93  1  0.77235627  0.42394920  0.08408642  1
  Te  Te94  1  0.75938942  0.42703753  0.40296924  1
  Te  Te95  1  0.76960966  0.40680828  0.74109097  1
  Te  Te96  1  0.74511772  0.75099463  0.07436194  1
  Te  Te97  1  0.74876289  0.72517282  0.42790010  1
  Te  Te98  1  0.76980356  0.76935851  0.73897917  1
  Te  Te99  1  0.07848005  0.24101340  0.23936138  1
  Te  Te100  1  0.09273146  0.25491660  0.56615823  1
  Te  Te101  1  0.08348944  0.26247394  0.88672469  1
  Te  Te102  1  0.04970475  0.62650326  0.26541183  1
  Te  Te103  1  0.06320221  0.63961773  0.60119022  1
  Te  Te104  1  0.11205487  0.57534244  0.93784561  1
  Te  Te105  1  0.09474792  0.91368109  0.26535753  1
  Te  Te106  1  0.06410139  0.90123900  0.58453915  1
  Te  Te107  1  0.05963206  0.92692196  0.86943763  1
  Te  Te108  1  0.41924990  0.24127639  0.25228187  1
  Te  Te109  1  0.43765100  0.26060055  0.53928513  1
  Te  Te110  1  0.41474078  0.25124844  0.92270171  1
  Te  Te111  1  0.41044761  0.56941384  0.24913448  1
  Te  Te112  1  0.41355745  0.58320220  0.58067082  1
  Te  Te113  1  0.39530260  0.61406877  0.92350595  1
  Te  Te114  1  0.43695696  0.88277368  0.24933168  1
  Te  Te115  1  0.44096663  0.90593233  0.58866594  1
  Te  Te116  1  0.44640882  0.90579203  0.94776700  1
  Te  Te117  1  0.72715451  0.25041393  0.26071948  1
  Te  Te118  1  0.75855977  0.22741344  0.56820568  1
  Te  Te119  1  0.73249803  0.24407164  0.88697430  1
  Te  Te120  1  0.76282663  0.58474404  0.24036969  1
  Te  Te121  1  0.72650961  0.58881336  0.61036120  1
  Te  Te122  1  0.72206762  0.59675048  0.94203147  1
  Te  Te123  1  0.77978061  0.91406783  0.23415910  1
  Te  Te124  1  0.75075114  0.91723669  0.58728653  1
  Te  Te125  1  0.74092988  0.89788427  0.90878780  1
  Te  Te126  1  0.21792800  0.23165486  0.05971101  1
  Te  Te127  1  0.28308639  0.24247506  0.44337963  1
  Te  Te128  1  0.26241925  0.24120777  0.73490022  1
  Te  Te129  1  0.20049354  0.56168066  0.07172749  1
  Te  Te130  1  0.24993330  0.59013393  0.42565245  1
  Te  Te131  1  0.24474243  0.56791465  0.75227581  1
  Te  Te132  1  0.25059806  0.92313806  0.09370832  1
  Te  Te133  1  0.23916414  0.90740624  0.41263541  1
  Te  Te134  1  0.25213734  0.90733364  0.75961208  1
  Te  Te135  1  0.57935129  0.26020209  0.07913096  1
  Te  Te136  1  0.54490876  0.27687816  0.42974467  1
  Te  Te137  1  0.55677517  0.23909417  0.73928562  1
  Te  Te138  1  0.56170540  0.61608373  0.09822420  1
  Te  Te139  1  0.56975464  0.58682674  0.42125187  1
  Te  Te140  1  0.55773832  0.57007133  0.77524595  1
  Te  Te141  1  0.57108518  0.90492769  0.07048795  1
  Te  Te142  1  0.60489163  0.89766385  0.41219081  1
  Te  Te143  1  0.55615497  0.87254664  0.76997840  1
  Te  Te144  1  0.91784839  0.25984306  0.06980598  1
  Te  Te145  1  0.92021865  0.26523450  0.41386381  1
  Te  Te146  1  0.90446710  0.21796760  0.72896959  1
  Te  Te147  1  0.94397264  0.58598580  0.10658443  1
  Te  Te148  1  0.91973038  0.60806245  0.45599258  1
  Te  Te149  1  0.90524013  0.59770413  0.76121394  1
  Te  Te150  1  0.94375143  0.93952017  0.07842409  1
  Te  Te151  1  0.93831375  0.90091240  0.41571314  1
  Te  Te152  1  0.94296010  0.90182073  0.76602196  1
  Te  Te153  1  0.24891815  0.09170964  0.25109711  1
  Te  Te154  1  0.25540368  0.07939009  0.58618886  1
  Te  Te155  1  0.23775017  0.07305087  0.92205624  1
  Te  Te156  1  0.24370531  0.42340975  0.26120541  1
  Te  Te157  1  0.24848414  0.41895004  0.59190771  1
  Te  Te158  1  0.23948110  0.40969165  0.91128321  1
  Te  Te159  1  0.24119424  0.74745672  0.25444536  1
  Te  Te160  1  0.25213577  0.75322290  0.58271826  1
  Te  Te161  1  0.24106510  0.77579852  0.93313433  1
  Te  Te162  1  0.57092598  0.07430631  0.25218884  1
  Te  Te163  1  0.58237692  0.07433647  0.58746429  1
  Te  Te164  1  0.59438321  0.08306471  0.90629334  1
  Te  Te165  1  0.60006798  0.42228335  0.25287934  1
  Te  Te166  1  0.60299922  0.40822945  0.59093742  1
  Te  Te167  1  0.58719624  0.42613093  0.93264142  1
  Te  Te168  1  0.57328036  0.75851252  0.25119316  1
  Te  Te169  1  0.56037462  0.72935805  0.59033213  1
  Te  Te170  1  0.58435134  0.73979408  0.83492525  1
  Te  Te171  1  0.91984917  0.10100926  0.23420096  1
  Te  Te172  1  0.93554854  0.06330595  0.59850892  1
  Te  Te173  1  0.89763875  0.08024664  0.91214767  1
  Te  Te174  1  0.92733780  0.42127432  0.25347310  1
  Te  Te175  1  0.94406779  0.42857463  0.56679419  1
  Te  Te176  1  0.91293027  0.43787448  0.90929235  1
  Te  Te177  1  0.93858321  0.73631047  0.27753668  1
  Te  Te178  1  0.91257478  0.72018954  0.56478733  1
  Te  Te179  1  0.92309837  0.75601745  0.92494933  1
