# generated using pymatgen
data_In2Te3
_symmetry_space_group_name_H-M   'P 1'
_cell_length_a   19.01081058
_cell_length_b   19.00703781
_cell_length_c   19.00922428
_cell_angle_alpha   89.75142774
_cell_angle_beta   90.20149833
_cell_angle_gamma   89.85014414
_symmetry_Int_Tables_number   1
_chemical_formula_structural   In2Te3
_chemical_formula_sum   'In72 Te108'
_cell_volume   6868.64692496
_cell_formula_units_Z   36
loop_
 _symmetry_equiv_pos_site_id
 _symmetry_equiv_pos_as_xyz
  1  'x, y, z'
loop_
 _atom_site_type_symbol
 _atom_site_label
 _atom_site_symmetry_multiplicity
 _atom_site_fract_x
 _atom_site_fract_y
 _atom_site_fract_z
 _atom_site_occupancy
  In  In0  1  0.29033443  0.82142734  0.18873714  1
  In  In1  1  0.49487754  0.60019382  0.81279265  1
  In  In2  1  0.47797634  0.34482103  0.14765373  1
  In  In3  1  0.79251090  0.16638496  0.67076700  1
  In  In4  1  0.45977346  0.48098924  0.34272890  1
  In  In5  1  0.87785332  0.86837384  0.34633845  1
  In  In6  1  0.15117507  0.84879761  0.65542712  1
  In  In7  1  -0.01997860  0.00047535  0.00890087  1
  In  In8  1  0.80919789  0.81178239  -0.01337962  1
  In  In9  1  0.19382921  0.33323947  0.51165735  1
  In  In10  1  0.84956043  0.81970755  0.66613638  1
  In  In11  1  0.86010267  0.68059922  0.15174737  1
  In  In12  1  0.33905158  0.64898341  0.67191336  1
  In  In13  1  0.17754629  0.68712336  0.81077442  1
  In  In14  1  0.54476508  0.84436598  0.35214312  1
  In  In15  1  0.48886638  0.34727843  0.51344389  1
  In  In16  1  0.66511297  0.15255300  0.82141743  1
  In  In17  1  0.83820586  0.33903719  0.83672999  1
  In  In18  1  0.67948791  0.50548625  0.14583665  1
  In  In19  1  0.66051140  0.46951940  0.51003914  1
  In  In20  1  0.49676213  0.16117688  0.35248573  1
  In  In21  1  0.33000068  0.33982983  0.70408563  1
  In  In22  1  0.01206278  0.65913490  -0.00594208  1
  In  In23  1  0.00371913  0.83285527  0.14580350  1
  In  In24  1  0.32647264  0.68904974  0.35134100  1
  In  In25  1  0.49474765  -0.00127767  0.17126273  1
  In  In26  1  0.17993539  0.19780646  -0.02035839  1
  In  In27  1  0.53355965  0.14031861  0.65482631  1
  In  In28  1  0.81171558  0.31234894  0.17438071  1
  In  In29  1  0.16964479  0.00997099  0.86743170  1
  In  In30  1  0.34574134  0.86744217  0.52442254  1
  In  In31  1  0.34574836  0.80999265  0.81952183  1
  In  In32  1  0.01104970  0.50558131  0.80840110  1
  In  In33  1  0.33779964  0.00365675  0.33295648  1
  In  In34  1  0.02190600  0.51678811  0.52102789  1
  In  In35  1  0.16417509  0.36935173  0.17105353  1
  In  In36  1  0.32010860  0.17323849  0.51423317  1
  In  In37  1  0.33159825  0.49896068  0.15834366  1
  In  In38  1  0.63455057  0.17022621  0.15258853  1
  In  In39  1  0.49831650  0.19226729  -0.01890359  1
  In  In40  1  0.48217174  0.84889873  0.00443833  1
  In  In41  1  0.50722987  0.63950052  0.13683399  1
  In  In42  1  0.14173915  0.83444249  0.34329954  1
  In  In43  1  0.89078786  0.49843475  0.32072072  1
  In  In44  1  0.83960308  0.67793101  0.52088194  1
  In  In45  1  -0.02116861  0.34947264  0.66380382  1
  In  In46  1  0.51759782  0.00000911  0.82911966  1
  In  In47  1  0.67759955  0.82126048  0.17655460  1
  In  In48  1  0.68826294  0.64774707  0.35399678  1
  In  In49  1  0.80937387  0.50814951  0.67870175  1
  In  In50  1  0.84061393  0.66673852  0.83238160  1
  In  In51  1  -0.01991487  -0.00801664  0.65958666  1
  In  In52  1  0.80965864  0.15158416  -0.00485270  1
  In  In53  1  0.64573046  0.82426288  0.82720699  1
  In  In54  1  0.48897044  0.64912115  0.51546099  1
  In  In55  1  0.14682128  0.18250658  0.65859835  1
  In  In56  1  0.16700972  0.02038486  0.14631789  1
  In  In57  1  0.02788619  0.34075825  0.00855615  1
  In  In58  1  0.31769532  0.66649703  0.00802667  1
  In  In59  1  0.02327443  0.36751308  0.32537325  1
  In  In60  1  0.84985731  0.12075318  0.35359826  1
  In  In61  1  0.68137156  0.82967699  0.51755554  1
  In  In62  1  0.16656005  0.66874536  0.49501050  1
  In  In63  1  0.82821161  0.30882563  0.49099080  1
  In  In64  1  0.65242736  0.33310303  0.31958131  1
  In  In65  1  -0.00055600  0.15737670  0.85586808  1
  In  In66  1  0.00619058  0.13549422  0.48111696  1
  In  In67  1  0.33145902  0.02673210  0.68947439  1
  In  In68  1  0.34242545  0.18251546  0.15467574  1
  In  In69  1  0.66354982  0.63287907  -0.05233060  1
  In  In70  1  -0.01572082  0.18135995  0.17337952  1
  In  In71  1  0.68418674  -0.01370677  0.37328207  1
  Te  Te72  1  0.07623397  0.11219077  0.06316568  1
  Te  Te73  1  0.05512822  0.06161583  0.36605597  1
  Te  Te74  1  0.07831304  0.07664573  0.75447072  1
  Te  Te75  1  0.11395339  0.44932471  0.05637084  1
  Te  Te76  1  0.10975833  0.43326595  0.43224449  1
  Te  Te77  1  0.09591823  0.41703304  0.72389608  1
  Te  Te78  1  0.09441930  0.73376305  0.08991280  1
  Te  Te79  1  0.06175789  0.76274695  0.44530281  1
  Te  Te80  1  0.07184504  0.77437203  0.75392289  1
  Te  Te81  1  0.42555355  0.08883228  0.07139736  1
  Te  Te82  1  0.41312666  0.07430734  0.44311433  1
  Te  Te83  1  0.43092151  0.10883645  0.76879545  1
  Te  Te84  1  0.39611629  0.42047590  0.05060660  1
  Te  Te85  1  0.37840238  0.39996330  0.43129223  1
  Te  Te86  1  0.43119154  0.39950581  0.79837577  1
  Te  Te87  1  0.41085905  0.75607981  0.10245942  1
  Te  Te88  1  0.42931938  0.76843845  0.43112589  1
  Te  Te89  1  0.44479882  0.73076018  0.74215336  1
  Te  Te90  1  0.73225475  0.07946329  0.09570893  1
  Te  Te91  1  0.74185721  0.09676073  0.45558493  1
  Te  Te92  1  0.73768892  0.05279404  0.74204734  1
  Te  Te93  1  0.75353534  0.40208796  0.07430310  1
  Te  Te94  1  0.75076978  0.41463497  0.40026931  1
  Te  Te95  1  0.74610421  0.38447053  0.72768655  1
  Te  Te96  1  0.72456353  0.71749313  0.07667191  1
  Te  Te97  1  0.77091102  0.76417539  0.40432230  1
  Te  Te98  1  0.74432609  0.74247361  0.74384704  1
  Te  Te99  1  0.09258347  0.25455476  0.24415009  1
  Te  Te100  1  0.05610038  0.26064603  0.56204689  1
  Te  Te101  1  0.08744883  0.27518871  0.88553133  1
  Te  Te102  1  0.02854622  0.51114410  0.26194558  1
  Te  Te103  1  0.11055883  0.59346930  0.60737218  1
  Te  Te104  1  0.10230457  0.58532721  0.89728891  1
  Te  Te105  1  0.08607330  0.92470894  0.23357966  1
  Te  Te106  1  0.07890796  0.93999647  0.56331927  1
  Te  Te107  1  0.08499388  0.92165904  0.94588744  1
  Te  Te108  1  0.42237617  0.25753017  0.25947982  1
  Te  Te109  1  0.42011258  0.24473945  0.60120264  1
  Te  Te110  1  0.40592233  0.29567817  0.92587468  1
  Te  Te111  1  0.41593116  0.59952153  0.25661401  1
  Te  Te112  1  0.42814844  0.54881165  0.60636963  1
  Te  Te113  1  0.37776498  0.57773800  0.90659652  1
  Te  Te114  1  0.42465909  0.90017897  0.26298614  1
  Te  Te115  1  0.42751281  0.93190296  0.62801405  1
  Te  Te116  1  0.40457277  0.92446638  0.90127040  1
  Te  Te117  1  0.73602516  0.21831913  0.26497920  1
  Te  Te118  1  0.72970340  0.28007835  0.59795005  1
  Te  Te119  1  0.73754237  0.25471592  0.91101019  1
  Te  Te120  1  0.77238881  0.57847637  0.24844698  1
  Te  Te121  1  0.73047673  0.58799393  0.57609645  1
  Te  Te122  1  0.77725791  0.55413679  0.90345950  1
  Te  Te123  1  0.75881953  0.91680863  0.26121307  1
  Te  Te124  1  0.77743362  0.91688569  0.58165455  1
  Te  Te125  1  0.73105824  0.90827271  0.91110280  1
  Te  Te126  1  0.25302712  0.27925134  0.08220552  1
  Te  Te127  1  0.23021546  0.23117857  0.41498407  1
  Te  Te128  1  0.24674960  0.22640415  0.75948714  1
  Te  Te129  1  0.22963525  0.58532827  0.09339621  1
  Te  Te130  1  0.27648479  0.58755312  0.44249058  1
  Te  Te131  1  0.27248264  0.57479642  0.78233026  1
  Te  Te132  1  0.26246156  0.92429944  0.09036773  1
  Te  Te133  1  0.24773895  0.91616618  0.41757604  1
  Te  Te134  1  0.24627918  0.91566029  0.75662678  1
  Te  Te135  1  0.58984958  0.28388756  0.06559979  1
  Te  Te136  1  0.58219163  0.25803369  0.43013229  1
  Te  Te137  1  0.56892925  0.24159098  0.75356291  1
  Te  Te138  1  0.57539104  0.54536962  0.04197029  1
  Te  Te139  1  0.57424167  0.56357324  0.41232331  1
  Te  Te140  1  0.63372561  0.58372190  0.76603740  1
  Te  Te141  1  0.58983023  0.91249725  0.09093802  1
  Te  Te142  1  0.57312958  0.93783874  0.46527980  1
  Te  Te143  1  0.57765423  0.91229680  0.72821945  1
  Te  Te144  1  0.91116552  0.24806741  0.05444321  1
  Te  Te145  1  0.91959493  0.25749815  0.38402566  1
  Te  Te146  1  0.91615000  0.23840721  0.74949501  1
  Te  Te147  1  0.90701053  0.57984984  0.05959249  1
  Te  Te148  1  0.92981713  0.59563413  0.42819146  1
  Te  Te149  1  0.92275809  0.59589877  0.72461146  1
  Te  Te150  1  0.88731941  0.90445961  0.08065939  1
  Te  Te151  1  0.95885994  0.96485120  0.42859085  1
  Te  Te152  1  0.93451125  0.89551077  0.76072418  1
  Te  Te153  1  0.25609200  0.09560283  0.24490981  1
  Te  Te154  1  0.22925550  0.07655003  0.58724285  1
  Te  Te155  1  0.27018628  0.09782112  0.92433783  1
  Te  Te156  1  0.25502684  0.43455571  0.26478300  1
  Te  Te157  1  0.22962133  0.41992608  0.62461897  1
  Te  Te158  1  0.27982001  0.35326804  0.85162817  1
  Te  Te159  1  0.20629136  0.72055508  0.26437630  1
  Te  Te160  1  0.26507778  0.75859634  0.59185474  1
  Te  Te161  1  0.24410908  0.76812825  0.92362799  1
  Te  Te162  1  0.58508211  0.06525640  0.27459418  1
  Te  Te163  1  0.62063384  0.08367568  0.55292455  1
  Te  Te164  1  0.58994028  0.08131466  0.93442362  1
  Te  Te165  1  0.57311764  0.43495210  0.23907206  1
  Te  Te166  1  0.55618198  0.43828557  0.60930030  1
  Te  Te167  1  0.56999221  0.46911086  0.83786056  1
  Te  Te168  1  0.59119957  0.72777648  0.26013117  1
  Te  Te169  1  0.58263905  0.74104164  0.57969633  1
  Te  Te170  1  0.56005353  0.74650505  0.92735288  1
  Te  Te171  1  0.91663450  0.06746369  0.23536029  1
  Te  Te172  1  0.90601567  0.10294654  0.58571639  1
  Te  Te173  1  0.89125299  0.06399608  0.90207197  1
  Te  Te174  1  0.93057088  0.40264473  0.20308626  1
  Te  Te175  1  0.89742432  0.43041568  0.56451210  1
  Te  Te176  1  0.93728424  0.42280891  0.91167835  1
  Te  Te177  1  0.93434109  0.75366167  0.25874251  1
  Te  Te178  1  0.94667614  0.76877840  0.56420088  1
  Te  Te179  1  0.92881118  0.75846779  0.91284497  1
