# generated using pymatgen
data_In2Te3
_symmetry_space_group_name_H-M   'P 1'
_cell_length_a   18.77841651
_cell_length_b   18.76965765
_cell_length_c   18.78531922
_cell_angle_alpha   90.05521285
_cell_angle_beta   90.12369604
_cell_angle_gamma   90.02115823
_symmetry_Int_Tables_number   1
_chemical_formula_structural   In2Te3
_chemical_formula_sum   'In72 Te108'
_cell_volume   6621.13823061
_cell_formula_units_Z   36
loop_
 _symmetry_equiv_pos_site_id
 _symmetry_equiv_pos_as_xyz
  1  'x, y, z'
loop_
 _atom_site_type_symbol
 _atom_site_label
 _atom_site_symmetry_multiplicity
 _atom_site_fract_x
 _atom_site_fract_y
 _atom_site_fract_z
 _atom_site_occupancy
  In  In0  1  0.35376528  0.17427478  0.15044719  1
  In  In1  1  0.66869072  0.34699955  0.30371758  1
  In  In2  1  0.00875071  0.02537558  -0.00628072  1
  In  In3  1  0.49761616  0.50278516  0.32601157  1
  In  In4  1  0.65860361  0.46992093  0.86089290  1
  In  In5  1  -0.00072896  0.82731521  0.49939180  1
  In  In6  1  0.18696288  0.83457030  -0.00391891  1
  In  In7  1  0.32160125  0.34396065  -0.01250739  1
  In  In8  1  0.32554374  0.64411758  -0.00117913  1
  In  In9  1  0.47642832  -0.02900534  0.49989009  1
  In  In10  1  0.03329721  0.63754342  -0.02114943  1
  In  In11  1  0.82181870  0.82813771  -0.00534095  1
  In  In12  1  0.33003890  0.00209296  0.33025068  1
  In  In13  1  0.66656751  0.83238759  0.17014118  1
  In  In14  1  0.31744634  0.17379364  0.50742160  1
  In  In15  1  0.16426787  0.34363158  0.48955548  1
  In  In16  1  0.66773623  0.67022913  0.67329020  1
  In  In17  1  0.15675606  0.17128079  0.33643871  1
  In  In18  1  0.01973980  0.33110341  -0.01218389  1
  In  In19  1  0.46784997  0.48554973  0.69846612  1
  In  In20  1  0.02649087  0.17676344  0.49514171  1
  In  In21  1  0.82143814  0.47359909  0.00989945  1
  In  In22  1  0.85420355  0.66773570  0.48512264  1
  In  In23  1  0.49119196  0.01882228  0.84959660  1
  In  In24  1  0.64516989  0.61449417  0.04556485  1
  In  In25  1  0.65237548  0.33946406  0.67377475  1
  In  In26  1  -0.01111571  0.48737157  0.18602073  1
  In  In27  1  0.50553191  0.82742277  0.31957590  1
  In  In28  1  0.82587512  0.00059170  0.17040119  1
  In  In29  1  0.46597733  0.18092481  0.69084368  1
  In  In30  1  0.83571533  0.18946919  0.00713701  1
  In  In31  1  0.34563920  0.81331444  0.52409101  1
  In  In32  1  0.83222703  0.62581978  0.19446578  1
  In  In33  1  0.50107548  0.17208489  0.30452021  1
  In  In34  1  0.01954211  0.82711985  0.16336906  1
  In  In35  1  0.00395643  0.19778294  0.82919503  1
  In  In36  1  0.64842086  0.02437552  0.30227346  1
  In  In37  1  0.16038117  0.34378942  0.17030544  1
  In  In38  1  0.15886116  0.00365447  0.50654976  1
  In  In39  1  0.84648624  0.16923611  0.69590465  1
  In  In40  1  0.67346363  0.82591984  0.83982137  1
  In  In41  1  0.84968007  -0.01884498  0.48778068  1
  In  In42  1  0.00558364  0.17369703  0.15148173  1
  In  In43  1  0.68194375  0.02649785  0.66606988  1
  In  In44  1  0.33515469  0.84393779  0.82929594  1
  In  In45  1  0.85473782  0.51610186  0.65318483  1
  In  In46  1  0.31734360  0.50215176  0.50586044  1
  In  In47  1  0.19264735  0.02134358  0.85899252  1
  In  In48  1  0.50245402  0.83907105  0.65445074  1
  In  In49  1  0.83305859  0.32773988  0.84916544  1
  In  In50  1  0.00192375  -0.00283365  0.65594308  1
  In  In51  1  0.33779345  0.50593419  0.16109328  1
  In  In52  1  0.84831307  0.65345038  0.82627107  1
  In  In53  1  0.33035798  0.83482400  0.16541348  1
  In  In54  1  0.69594541  0.82115966  0.48613129  1
  In  In55  1  0.64959191  -0.00131702  -0.01631796  1
  In  In56  1  0.49057620  0.64675673  0.46291851  1
  In  In57  1  0.00289620  0.66340152  0.32814663  1
  In  In58  1  0.47498291  0.64332192  0.85558753  1
  In  In59  1  0.48861314  0.32991285  0.84863945  1
  In  In60  1  0.49438490  0.32140536  0.50328794  1
  In  In61  1  0.83020127  0.19303898  0.31800337  1
  In  In62  1  0.66841405  0.15716036  0.51566655  1
  In  In63  1  0.15850635  0.82396591  0.32558407  1
  In  In64  1  0.49246329  0.82172962  -0.00488552  1
  In  In65  1  0.18380302  0.20016640  0.70357045  1
  In  In66  1  0.67541362  0.47371018  0.46506449  1
  In  In67  1  0.17133731  0.50584963  0.33967534  1
  In  In68  1  0.00087335  0.82913514  0.79775838  1
  In  In69  1  0.30118292  0.64219799  0.67974039  1
  In  In70  1  0.84892169  0.36881519  0.50892817  1
  In  In71  1  0.04242734  0.64536281  0.65193987  1
  Te  Te72  1  0.10695066  0.09741313  0.07595715  1
  Te  Te73  1  0.06734574  0.06322941  0.40122565  1
  Te  Te74  1  0.08259097  0.08468638  0.75395115  1
  Te  Te75  1  0.08599655  0.43873320  0.07732193  1
  Te  Te76  1  0.06872766  0.42135892  0.40707876  1
  Te  Te77  1  0.12367245  0.42417984  0.79008531  1
  Te  Te78  1  0.10298965  0.73321750  0.07645429  1
  Te  Te79  1  0.09497517  0.73046637  0.43038937  1
  Te  Te80  1  0.10379008  0.73435212  0.75355404  1
  Te  Te81  1  0.39268302  0.07261276  0.04946828  1
  Te  Te82  1  0.42196367  0.10010490  0.42127704  1
  Te  Te83  1  0.38789306  0.07590612  0.75918484  1
  Te  Te84  1  0.41964573  0.40436408  0.08464076  1
  Te  Te85  1  0.41103329  0.41656864  0.41811942  1
  Te  Te86  1  0.37370881  0.39594869  0.77101407  1
  Te  Te87  1  0.41704874  0.73131145  0.08832522  1
  Te  Te88  1  0.39893308  0.74868390  0.39601743  1
  Te  Te89  1  0.42437543  0.74013718  0.74684700  1
  Te  Te90  1  0.74649886  0.08290328  0.07279071  1
  Te  Te91  1  0.75155033  0.08271360  0.41100234  1
  Te  Te92  1  0.73678787  0.11026363  0.77410874  1
  Te  Te93  1  0.72730989  0.40926999  0.10305240  1
  Te  Te94  1  0.79122424  0.43105826  0.36536425  1
  Te  Te95  1  0.75751707  0.42920049  0.74646064  1
  Te  Te96  1  0.74980519  0.73208848  0.08714068  1
  Te  Te97  1  0.76566701  0.73726567  0.38858962  1
  Te  Te98  1  0.77170486  0.75815578  0.74400743  1
  Te  Te99  1  0.06490210  0.26609018  0.26051161  1
  Te  Te100  1  0.08865827  0.26454695  0.60196279  1
  Te  Te101  1  0.11474077  0.24019052  0.91811389  1
  Te  Te102  1  0.09378240  0.58794623  0.23354023  1
  Te  Te103  1  0.09895343  0.53195880  0.57313811  1
  Te  Te104  1  0.12337674  0.56001944  0.88740968  1
  Te  Te105  1  0.10056402  0.92727847  0.23589277  1
  Te  Te106  1  0.09809112  0.89600340  0.59534441  1
  Te  Te107  1  0.08004388  0.91602111  0.91191121  1
  Te  Te108  1  0.42306727  0.27546959  0.23544165  1
  Te  Te109  1  0.38559203  0.27569261  0.59973393  1
  Te  Te110  1  0.40103393  0.23000974  0.92287389  1
  Te  Te111  1  0.40940170  0.59776412  0.25507184  1
  Te  Te112  1  0.42340625  0.59168578  0.59025462  1
  Te  Te113  1  0.39763694  0.53838692  0.92096873  1
  Te  Te114  1  0.43023428  0.93438897  0.24014346  1
  Te  Te115  1  0.38571491  0.93055652  0.61548612  1
  Te  Te116  1  0.39805398  0.92723072  0.94005145  1
  Te  Te117  1  0.72360826  0.23359392  0.22316202  1
  Te  Te118  1  0.75496184  0.26472616  0.58445082  1
  Te  Te119  1  0.72589096  0.26380014  0.93105875  1
  Te  Te120  1  0.72381268  0.56005614  0.26582879  1
  Te  Te121  1  0.74046109  0.57897052  0.57196929  1
  Te  Te122  1  0.74840495  0.58533236  0.91888732  1
  Te  Te123  1  0.75026122  0.91387462  0.26938406  1
  Te  Te124  1  0.75774578  0.91575252  0.59135799  1
  Te  Te125  1  0.76331272  0.93314967  0.90147504  1
  Te  Te126  1  0.23918930  0.25132728  0.08047819  1
  Te  Te127  1  0.26063133  0.26426239  0.39977535  1
  Te  Te128  1  0.26993773  0.27879942  0.79266699  1
  Te  Te129  1  0.22844263  0.56902911  0.08169207  1
  Te  Te130  1  0.25070768  0.60213064  0.42119480  1
  Te  Te131  1  0.22697579  0.54473985  0.76378136  1
  Te  Te132  1  0.23632418  0.92946219  0.09833688  1
  Te  Te133  1  0.25729324  0.91324128  0.42988237  1
  Te  Te134  1  0.22881777  0.91823609  0.75977288  1
  Te  Te135  1  0.63727242  0.29880442  0.06119661  1
  Te  Te136  1  0.60062497  0.25546177  0.41523500  1
  Te  Te137  1  0.58519462  0.24087417  0.76725363  1
  Te  Te138  1  0.53456929  0.53770084  0.10652177  1
  Te  Te139  1  0.61389842  0.59511814  0.38911009  1
  Te  Te140  1  0.58725232  0.57398592  0.76161185  1
  Te  Te141  1  0.57098395  0.91659105  0.08566813  1
  Te  Te142  1  0.59301230  0.92152741  0.41562138  1
  Te  Te143  1  0.58366705  0.91959968  0.75709861  1
  Te  Te144  1  0.91541653  0.28453674  0.09474074  1
  Te  Te145  1  0.91914678  0.26064742  0.42441934  1
  Te  Te146  1  0.93010853  0.29061598  0.73367716  1
  Te  Te147  1  0.91736205  0.58409520  0.07386624  1
  Te  Te148  1  0.93544259  0.56528885  0.41669977  1
  Te  Te149  1  0.95316514  0.57010328  0.75742210  1
  Te  Te150  1  0.91851982  0.91944300  0.07585618  1
  Te  Te151  1  0.92941529  0.90252023  0.39346536  1
  Te  Te152  1  0.90806329  0.93248757  0.74935248  1
  Te  Te153  1  0.25053359  0.09583433  0.24322354  1
  Te  Te154  1  0.23756633  0.09052266  0.60387797  1
  Te  Te155  1  0.29528394  0.10315676  0.93122179  1
  Te  Te156  1  0.26215179  0.41246443  0.25888755  1
  Te  Te157  1  0.22096823  0.43498739  0.60103548  1
  Te  Te158  1  0.20085057  0.41059948  0.91807435  1
  Te  Te159  1  0.24771248  0.74070093  0.24368106  1
  Te  Te160  1  0.23632705  0.73479676  0.58499367  1
  Te  Te161  1  0.25244286  0.73642928  0.89930149  1
  Te  Te162  1  0.57443659  0.09956158  0.19890926  1
  Te  Te163  1  0.55775090  0.08712121  0.59362758  1
  Te  Te164  1  0.55813288  0.10967599  0.94662050  1
  Te  Te165  1  0.57683119  0.43087491  0.21684140  1
  Te  Te166  1  0.57209971  0.43294001  0.58111720  1
  Te  Te167  1  0.56260397  0.40720293  0.95639779  1
  Te  Te168  1  0.57653751  0.73286962  0.23213019  1
  Te  Te169  1  0.58092644  0.74399115  0.56276041  1
  Te  Te170  1  0.59130526  0.72936581  0.92485478  1
  Te  Te171  1  0.92099750  0.08947533  0.24945410  1
  Te  Te172  1  0.90894825  0.09920061  0.57380165  1
  Te  Te173  1  0.91079959  0.10161687  0.90574915  1
  Te  Te174  1  0.88448574  0.40089396  0.24222204  1
  Te  Te175  1  0.96124770  0.43805498  0.58129690  1
  Te  Te176  1  0.92910108  0.42919782  0.91102620  1
  Te  Te177  1  0.91244693  0.75061591  0.24041311  1
  Te  Te178  1  0.92575328  0.73801114  0.59887365  1
  Te  Te179  1  0.93170149  0.74785402  0.92298587  1
