# generated using pymatgen
data_In2Te3
_symmetry_space_group_name_H-M   'P 1'
_cell_length_a   19.02524555
_cell_length_b   19.02827934
_cell_length_c   18.99986107
_cell_angle_alpha   90.03002779
_cell_angle_beta   90.10006636
_cell_angle_gamma   90.08313302
_symmetry_Int_Tables_number   1
_chemical_formula_structural   In2Te3
_chemical_formula_sum   'In72 Te108'
_cell_volume   6878.26706827
_cell_formula_units_Z   36
loop_
 _symmetry_equiv_pos_site_id
 _symmetry_equiv_pos_as_xyz
  1  'x, y, z'
loop_
 _atom_site_type_symbol
 _atom_site_label
 _atom_site_symmetry_multiplicity
 _atom_site_fract_x
 _atom_site_fract_y
 _atom_site_fract_z
 _atom_site_occupancy
  In  In0  1  -0.01399904  0.31815718  0.00995501  1
  In  In1  1  0.18104536  0.33931863  0.51227880  1
  In  In2  1  0.83783047  0.42599199  0.34452021  1
  In  In3  1  0.33620616  0.49502673  0.17569037  1
  In  In4  1  0.58050561  0.22324383  0.32337535  1
  In  In5  1  0.50788361  -0.00533803  0.86197200  1
  In  In6  1  -0.00423368  0.48914572  0.81665075  1
  In  In7  1  0.47797567  0.37593145  0.53803484  1
  In  In8  1  0.81829282  0.51580637  0.66815081  1
  In  In9  1  0.33165766  -0.03854426  -0.01787662  1
  In  In10  1  0.67083041  0.82781912  0.16924569  1
  In  In11  1  0.39084376  0.16473634  0.16870883  1
  In  In12  1  0.17117991  0.18863551  0.01957791  1
  In  In13  1  0.36583622  0.18531759  0.48981119  1
  In  In14  1  0.34963343  0.62939101  -0.02530813  1
  In  In15  1  0.14696744  -0.00493781  0.83223391  1
  In  In16  1  0.82291001  0.68980605  0.17080927  1
  In  In17  1  0.68161265  0.17562576  0.48926220  1
  In  In18  1  -0.02625849  0.01770961  0.66105196  1
  In  In19  1  0.19040406  0.65830264  0.18747858  1
  In  In20  1  0.15723698  0.13512822  0.34793932  1
  In  In21  1  0.15759390  0.46727293  -0.01310112  1
  In  In22  1  0.82587405  0.32652297  0.49769828  1
  In  In23  1  0.18140350  0.63092760  0.80717375  1
  In  In24  1  0.85328600  0.65581520  0.48838659  1
  In  In25  1  0.83665829  0.84355858  0.33624428  1
  In  In26  1  0.17473465  -0.00056011  0.16248737  1
  In  In27  1  0.50205962  0.83894787  0.35640508  1
  In  In28  1  0.49620363  0.34944103  0.80861306  1
  In  In29  1  -0.03142819  0.30678510  0.68839436  1
  In  In30  1  0.71741954  0.69669109  0.78521186  1
  In  In31  1  0.67668237  -0.00341415  0.01105806  1
  In  In32  1  0.17299963  0.50459924  0.33253685  1
  In  In33  1  0.65882775  0.50138526  0.82491708  1
  In  In34  1  0.83113636  0.84117047  0.01281123  1
  In  In35  1  0.13855576  0.80691678  0.33556796  1
  In  In36  1  0.31897692  0.16705055  0.82752680  1
  In  In37  1  0.31238375  0.00180854  0.67492354  1
  In  In38  1  0.63707607  0.66555231  0.35283792  1
  In  In39  1  0.84598082  0.00696585  0.85097459  1
  In  In40  1  0.52577966  -0.00019643  0.18511021  1
  In  In41  1  0.47501857  0.50514479  0.33499521  1
  In  In42  1  0.32307700  -0.01428646  0.34775461  1
  In  In43  1  0.49905951  0.18464599  0.66306462  1
  In  In44  1  0.13147369  0.00949556  0.51334287  1
  In  In45  1  -0.02145439  0.17741871  0.16333309  1
  In  In46  1  0.51035146  0.75946943  -0.01197638  1
  In  In47  1  0.66993230  0.84904601  0.52989313  1
  In  In48  1  0.19014302  0.65154977  0.52572372  1
  In  In49  1  0.81047341  0.50864803  0.00692083  1
  In  In50  1  0.49599253  0.65316664  0.78442442  1
  In  In51  1  0.82664047  0.16492217  -0.02046732  1
  In  In52  1  0.70137537  0.01891394  0.67284684  1
  In  In53  1  -0.01889972  0.65569953  0.01119125  1
  In  In54  1  0.00380510  0.83467007  0.51106827  1
  In  In55  1  0.82509765  0.18195790  0.33039121  1
  In  In56  1  0.00812631  0.49286129  0.49373912  1
  In  In57  1  0.15909245  0.32944229  0.15595764  1
  In  In58  1  0.17835113  0.80063401  -0.01180971  1
  In  In59  1  0.51535371  0.34826485  0.15876626  1
  In  In60  1  -0.00152847  0.84120167  0.17710934  1
  In  In61  1  0.00175512  0.84090524  0.83660433  1
  In  In62  1  0.35583559  0.35594837  -0.01173231  1
  In  In63  1  0.52424933  0.16711447  0.01072085  1
  In  In64  1  0.45206097  0.63956875  0.52719692  1
  In  In65  1  0.51659264  -0.00523400  0.48251519  1
  In  In66  1  0.64013489  0.54006941  0.14652879  1
  In  In67  1  0.68467107  0.33403594  0.67919669  1
  In  In68  1  0.32368953  0.81884558  0.51371457  1
  In  In69  1  0.15882703  0.16786414  0.65177312  1
  In  In70  1  0.50585795  0.84018768  0.67293973  1
  In  In71  1  0.00974958  0.66527457  0.65448233  1
  Te  Te72  1  0.08105426  0.08815164  0.08630773  1
  Te  Te73  1  0.04365102  0.10278460  0.43919772  1
  Te  Te74  1  0.06959298  0.09552763  0.75043961  1
  Te  Te75  1  0.06272230  0.42582710  0.09539349  1
  Te  Te76  1  0.08997908  0.40129920  0.40661388  1
  Te  Te77  1  0.07446524  0.39136891  0.74420136  1
  Te  Te78  1  0.08033246  0.74158477  0.09075214  1
  Te  Te79  1  0.07945026  0.72147367  0.44293516  1
  Te  Te80  1  0.08716222  0.74370239  0.75880529  1
  Te  Te81  1  0.42282848  0.05938697  0.06383465  1
  Te  Te82  1  0.42980690  0.08363543  0.39629225  1
  Te  Te83  1  0.42413768  0.07828088  0.75330260  1
  Te  Te84  1  0.43830497  0.44759079  0.07341873  1
  Te  Te85  1  0.39359838  0.41161048  0.41972494  1
  Te  Te86  1  0.40242419  0.44913623  0.75003867  1
  Te  Te87  1  0.40199351  0.72118822  0.07717976  1
  Te  Te88  1  0.40581034  0.73894950  0.41747927  1
  Te  Te89  1  0.40118415  0.74655662  0.71827080  1
  Te  Te90  1  0.75197274  0.09718152  0.08398934  1
  Te  Te91  1  0.79505503  0.08877484  0.44673453  1
  Te  Te92  1  0.78716676  0.10751226  0.75576277  1
  Te  Te93  1  0.71918362  0.42951175  0.08894967  1
  Te  Te94  1  0.73130678  0.42381137  0.44376161  1
  Te  Te95  1  0.77577605  0.41209138  0.77070491  1
  Te  Te96  1  0.73024994  0.73819820  0.06057164  1
  Te  Te97  1  0.74593737  0.75001434  0.41849824  1
  Te  Te98  1  0.69726816  0.77665148  0.66535086  1
  Te  Te99  1  0.09218250  0.23245078  0.25017015  1
  Te  Te100  1  0.06733985  0.26106678  0.57671516  1
  Te  Te101  1  0.09216533  0.26404028  0.92379861  1
  Te  Te102  1  0.08300871  0.58118105  0.24661432  1
  Te  Te103  1  0.09714500  0.55568968  0.59929383  1
  Te  Te104  1  0.07942816  0.58607442  0.91734279  1
  Te  Te105  1  0.08624031  0.93116073  0.26427162  1
  Te  Te106  1  0.08207805  0.91383083  0.61554112  1
  Te  Te107  1  0.08415283  0.91079999  0.94234057  1
  Te  Te108  1  0.44330956  0.26531596  0.26473329  1
  Te  Te109  1  0.39003141  0.27453214  0.61085761  1
  Te  Te110  1  0.42524580  0.23862861  0.91125002  1
  Te  Te111  1  0.41695471  0.59863098  0.23851304  1
  Te  Te112  1  0.37586772  0.54352605  0.61655916  1
  Te  Te113  1  0.43266437  0.55422291  0.87769119  1
  Te  Te114  1  0.41962648  0.91632113  0.25330138  1
  Te  Te115  1  0.41569568  0.93018594  0.57519738  1
  Te  Te116  1  0.42942997  0.87623758  0.90845511  1
  Te  Te117  1  0.71270002  0.25068198  0.26287452  1
  Te  Te118  1  0.76659061  0.23449136  0.60154870  1
  Te  Te119  1  0.78989139  0.27494531  0.89112982  1
  Te  Te120  1  0.73199161  0.60167017  0.25341801  1
  Te  Te121  1  0.74762447  0.59296892  0.56694078  1
  Te  Te122  1  0.75377982  0.59722047  0.89494943  1
  Te  Te123  1  0.77140772  0.91788105  0.22568836  1
  Te  Te124  1  0.77361037  0.94594278  0.56924764  1
  Te  Te125  1  0.74490021  0.90894477  0.90853100  1
  Te  Te126  1  0.28799589  0.25590285  0.09158954  1
  Te  Te127  1  0.24657008  0.23963803  0.41399789  1
  Te  Te128  1  0.24341840  0.25301062  0.73761255  1
  Te  Te129  1  0.24111593  0.56374551  0.07085903  1
  Te  Te130  1  0.26607435  0.58270603  0.41858976  1
  Te  Te131  1  0.27198434  0.53913496  0.73699023  1
  Te  Te132  1  0.25221546  0.89203724  0.08966306  1
  Te  Te133  1  0.22589592  0.90882360  0.43629762  1
  Te  Te134  1  0.25032962  0.91322880  0.77084110  1
  Te  Te135  1  0.60488510  0.27209349  0.07084071  1
  Te  Te136  1  0.57333521  0.27777385  0.46421960  1
  Te  Te137  1  0.59618296  0.24156615  0.76146580  1
  Te  Te138  1  0.57806413  0.63751539  0.05425836  1
  Te  Te139  1  0.55967417  0.57170021  0.44345293  1
  Te  Te140  1  0.59462636  0.56997325  0.70740074  1
  Te  Te141  1  0.57313932  0.90581654  0.07661475  1
  Te  Te142  1  0.61690273  0.92694282  0.39760627  1
  Te  Te143  1  0.59098630  0.94099842  0.74762378  1
  Te  Te144  1  0.88144936  0.28476057  0.11560384  1
  Te  Te145  1  0.91839882  0.29124104  0.38283577  1
  Te  Te146  1  0.89475450  0.22825532  0.79295567  1
  Te  Te147  1  0.90208003  0.57567816  0.11026928  1
  Te  Te148  1  0.91334206  0.55443751  0.39457893  1
  Te  Te149  1  0.91496622  0.59887433  0.75186268  1
  Te  Te150  1  0.90765771  0.92767782  0.10235132  1
  Te  Te151  1  0.93921843  0.91764512  0.41050481  1
  Te  Te152  1  0.90421619  0.91174584  0.74654738  1
  Te  Te153  1  0.27123489  0.08942667  0.24036499  1
  Te  Te154  1  0.26253605  0.08894388  0.56103755  1
  Te  Te155  1  0.24679374  0.07679991  0.92784948  1
  Te  Te156  1  0.25199528  0.39873820  0.25396448  1
  Te  Te157  1  0.28099462  0.45137904  0.52543610  1
  Te  Te158  1  0.24680918  0.39365633  0.89903084  1
  Te  Te159  1  0.25621996  0.76324843  0.26371489  1
  Te  Te160  1  0.25829167  0.74255215  0.62117937  1
  Te  Te161  1  0.26585515  0.72581601  0.89177496  1
  Te  Te162  1  0.61539034  0.10195106  0.23751683  1
  Te  Te163  1  0.58480378  0.08744907  0.58192297  1
  Te  Te164  1  0.61064421  0.09330247  0.91105927  1
  Te  Te165  1  0.58529107  0.44136880  0.25466332  1
  Te  Te166  1  0.58706271  0.43236914  0.62292614  1
  Te  Te167  1  0.58091082  0.41147554  0.90944149  1
  Te  Te168  1  0.56789103  0.75212629  0.25020919  1
  Te  Te169  1  0.55469968  0.75001774  0.56127714  1
  Te  Te170  1  0.59643623  0.74129838  0.85971119  1
  Te  Te171  1  0.91583091  0.09012326  0.26075534  1
  Te  Te172  1  0.92161691  0.09546329  0.54866868  1
  Te  Te173  1  0.93936908  0.08716882  0.92980767  1
  Te  Te174  1  0.91925010  0.37456998  0.23572703  1
  Te  Te175  1  0.91441094  0.42084535  0.59011249  1
  Te  Te176  1  0.91771030  0.42970859  0.93105661  1
  Te  Te177  1  0.92728540  0.74251172  0.26671454  1
  Te  Te178  1  0.90493781  0.75434413  0.59249513  1
  Te  Te179  1  0.91063453  0.75235009  0.91911342  1
