# generated using pymatgen
data_In2Te3
_symmetry_space_group_name_H-M   'P 1'
_cell_length_a   19.01927823
_cell_length_b   18.99647042
_cell_length_c   18.96525805
_cell_angle_alpha   89.94211472
_cell_angle_beta   89.88396006
_cell_angle_gamma   89.93019146
_symmetry_Int_Tables_number   1
_chemical_formula_structural   In2Te3
_chemical_formula_sum   'In72 Te108'
_cell_volume   6852.10911405
_cell_formula_units_Z   36
loop_
 _symmetry_equiv_pos_site_id
 _symmetry_equiv_pos_as_xyz
  1  'x, y, z'
loop_
 _atom_site_type_symbol
 _atom_site_label
 _atom_site_symmetry_multiplicity
 _atom_site_fract_x
 _atom_site_fract_y
 _atom_site_fract_z
 _atom_site_occupancy
  In  In0  1  0.83709225  0.82528629  -0.01422170  1
  In  In1  1  0.51266287  0.51818272  0.70716804  1
  In  In2  1  0.16002680  0.68341665  0.82822102  1
  In  In3  1  0.64810476  0.66097135  0.33064160  1
  In  In4  1  0.01677697  0.79219131  0.10481483  1
  In  In5  1  0.83830458  0.34966295  0.82608406  1
  In  In6  1  0.32474648  0.86537560  0.48564578  1
  In  In7  1  0.15794298  0.16324369  -0.00591726  1
  In  In8  1  0.68916171  0.02010607  0.32418458  1
  In  In9  1  0.19026620  0.33453560  0.85973696  1
  In  In10  1  0.35147679  0.33872807  0.68603294  1
  In  In11  1  0.31612020  0.14872866  0.51861750  1
  In  In12  1  0.32814902  0.82808513  0.81042486  1
  In  In13  1  0.51201085  0.66039529  0.51642806  1
  In  In14  1  0.17950950  0.80142270  0.28134583  1
  In  In15  1  0.44780552  0.67060176  0.16004142  1
  In  In16  1  0.00308363  0.50090567  0.84904969  1
  In  In17  1  0.32693006  0.64686034  -0.00120058  1
  In  In18  1  0.66352536  0.66104925  -0.01127083  1
  In  In19  1  0.31574548  -0.00838790  0.00518135  1
  In  In20  1  0.15939004  0.66060139  0.46602439  1
  In  In21  1  0.82136591  0.79442494  0.66803213  1
  In  In22  1  0.61777383  0.81341592  0.49880373  1
  In  In23  1  -0.00849433  0.66208403  0.68161520  1
  In  In24  1  0.16090571  0.32749798  0.51693497  1
  In  In25  1  0.47063772  0.80322109  -0.00737867  1
  In  In26  1  0.00859804  0.17487849  0.16612022  1
  In  In27  1  0.00744048  -0.01362254  0.33792936  1
  In  In28  1  0.45692672  0.85455003  0.33755365  1
  In  In29  1  -0.00515800  0.50613153  0.52957649  1
  In  In30  1  0.82882671  0.00707882  0.84172553  1
  In  In31  1  0.48207991  -0.00982001  0.50552143  1
  In  In32  1  0.68464363  -0.00836630  0.68571914  1
  In  In33  1  0.51074292  0.82845428  0.65929141  1
  In  In34  1  0.83207153  0.18531964  0.34279464  1
  In  In35  1  0.84134106  0.03007946  0.12825841  1
  In  In36  1  0.84272531  0.64119628  0.85819131  1
  In  In37  1  0.84585441  0.64643514  0.15129586  1
  In  In38  1  0.65708928  0.34572559  0.34362373  1
  In  In39  1  -0.00034082  0.36956311  0.32343579  1
  In  In40  1  -0.00290509  0.16935693  0.48507072  1
  In  In41  1  0.50379429  0.49947954  0.01441660  1
  In  In42  1  0.66856071  0.34707607  -0.00054936  1
  In  In43  1  0.69352910  0.50391416  0.15643749  1
  In  In44  1  0.35769378  0.47867410  0.15502935  1
  In  In45  1  0.67717698  0.50046311  0.52350882  1
  In  In46  1  0.51025217  0.02969914  0.84276468  1
  In  In47  1  0.12301190  -0.03919887  0.87054700  1
  In  In48  1  0.19478319  0.49715383  0.68398442  1
  In  In49  1  0.51308532  0.33663425  0.48917294  1
  In  In50  1  0.51555495  0.17258237  0.68315119  1
  In  In51  1  -0.00329608  0.32101466  0.66394472  1
  In  In52  1  0.84361858  -0.01333533  0.52889611  1
  In  In53  1  0.68133706  0.17291834  0.14579013  1
  In  In54  1  0.29827989  0.02751233  0.33208266  1
  In  In55  1  0.51318561  0.33442015  0.15664920  1
  In  In56  1  0.16585380  0.01140771  0.16722979  1
  In  In57  1  0.66574956  0.32715445  0.70070910  1
  In  In58  1  0.65952490  0.19553143  0.52697601  1
  In  In59  1  0.14314700  0.86634257  0.65399752  1
  In  In60  1  0.17287813  0.50187941  0.30410190  1
  In  In61  1  0.49471273  0.00490297  0.13345279  1
  In  In62  1  0.64754108  0.84189224  0.16633709  1
  In  In63  1  -0.00833436  0.00557413  0.68270283  1
  In  In64  1  0.80503833  0.80066817  0.32226965  1
  In  In65  1  0.35965923  0.31141092  0.33783789  1
  In  In66  1  0.85092168  0.18080620  -0.00547845  1
  In  In67  1  0.33035520  0.67601547  0.63630692  1
  In  In68  1  0.00126989  0.64152315  0.31988631  1
  In  In69  1  0.34815045  0.19457573  0.84404098  1
  In  In70  1  0.15360280  0.33646542  0.13643432  1
  In  In71  1  0.00753801  0.85689831  0.51513454  1
  Te  Te72  1  0.06370033  0.07216620  0.07206412  1
  Te  Te73  1  0.08356259  0.09838687  0.38917690  1
  Te  Te74  1  0.05809334  0.07181440  0.79656431  1
  Te  Te75  1  0.05995930  0.45073518  0.11456591  1
  Te  Te76  1  0.09531158  0.43254375  0.42612122  1
  Te  Te77  1  0.09329623  0.41154773  0.75208429  1
  Te  Te78  1  0.09991466  0.67471299  0.08625845  1
  Te  Te79  1  0.06960619  0.76374871  0.40668342  1
  Te  Te80  1  0.06727129  0.77400960  0.74780964  1
  Te  Te81  1  0.41387152  0.09048214  0.04849358  1
  Te  Te82  1  0.41263585  0.08655206  0.41447353  1
  Te  Te83  1  0.40879109  0.08725452  0.74602973  1
  Te  Te84  1  0.39133204  0.38806348  0.01873037  1
  Te  Te85  1  0.42517928  0.42045679  0.40895305  1
  Te  Te86  1  0.41807280  0.42806814  0.78373995  1
  Te  Te87  1  0.37809119  0.79390634  0.11159093  1
  Te  Te88  1  0.41209060  0.75051927  0.43717694  1
  Te  Te89  1  0.42402910  0.73389485  0.74107708  1
  Te  Te90  1  0.72109944  0.06380440  0.04489085  1
  Te  Te91  1  0.76066497  0.08954994  0.43977233  1
  Te  Te92  1  0.75121481  0.09846515  0.75534763  1
  Te  Te93  1  0.77163855  0.40109973  0.08961503  1
  Te  Te94  1  0.75192839  0.41611412  0.42813242  1
  Te  Te95  1  0.73360108  0.43794761  0.76969762  1
  Te  Te96  1  0.74551903  0.74811089  0.09434451  1
  Te  Te97  1  0.73685603  0.72491346  0.44366365  1
  Te  Te98  1  0.74777581  0.72079476  0.77449087  1
  Te  Te99  1  0.08723013  0.26605384  0.25672245  1
  Te  Te100  1  0.09084633  0.21943668  0.59393743  1
  Te  Te101  1  0.08046311  0.27704900  0.93850938  1
  Te  Te102  1  0.12445357  0.62872795  0.23102758  1
  Te  Te103  1  0.10503132  0.59542966  0.60027453  1
  Te  Te104  1  0.09697121  0.58800230  0.92184998  1
  Te  Te105  1  0.07170135  0.90200045  0.22982282  1
  Te  Te106  1  0.09440254  0.97698440  0.55826091  1
  Te  Te107  1  0.03864706  0.86172426  0.93718317  1
  Te  Te108  1  0.43629724  0.24008957  0.23544609  1
  Te  Te109  1  0.42515110  0.24419166  0.58173629  1
  Te  Te110  1  0.43761325  0.27309223  0.92618216  1
  Te  Te111  1  0.40763212  0.57097055  0.25803012  1
  Te  Te112  1  0.42012586  0.56471204  0.59038262  1
  Te  Te113  1  0.44519002  0.60391341  0.92369668  1
  Te  Te114  1  0.39582383  0.95101898  0.24179303  1
  Te  Te115  1  0.39908357  0.91818935  0.60836587  1
  Te  Te116  1  0.41227179  0.91549740  0.90114159  1
  Te  Te117  1  0.74683852  0.26567993  0.24806121  1
  Te  Te118  1  0.75650246  0.27716743  0.59460804  1
  Te  Te119  1  0.75039679  0.25191851  0.91206732  1
  Te  Te120  1  0.76132860  0.58515516  0.26607699  1
  Te  Te121  1  0.75606004  0.61878261  0.55482021  1
  Te  Te122  1  0.76936763  0.56444579  0.95969487  1
  Te  Te123  1  0.75862778  0.92808601  0.22515308  1
  Te  Te124  1  0.73186822  0.89110855  0.57511405  1
  Te  Te125  1  0.74510809  0.90455632  0.90627599  1
  Te  Te126  1  0.24810711  0.23133620  0.09017220  1
  Te  Te127  1  0.24838110  0.24583215  0.42448342  1
  Te  Te128  1  0.24491079  0.24908093  0.74461883  1
  Te  Te129  1  0.25348882  0.55006541  0.07966549  1
  Te  Te130  1  0.25617939  0.57157556  0.40473595  1
  Te  Te131  1  0.26927491  0.60303943  0.75786257  1
  Te  Te132  1  0.21770421  0.90855944  0.07532953  1
  Te  Te133  1  0.22188541  0.90776500  0.38422772  1
  Te  Te134  1  0.22667708  0.93041168  0.76289495  1
  Te  Te135  1  0.57604771  0.23887762  0.05831661  1
  Te  Te136  1  0.58010230  0.22867310  0.40452020  1
  Te  Te137  1  0.56993210  0.25572380  0.78843279  1
  Te  Te138  1  0.58004112  0.60253897  0.10814969  1
  Te  Te139  1  0.57693549  0.56417479  0.42010917  1
  Te  Te140  1  0.63174202  0.60032881  0.73350975  1
  Te  Te141  1  0.57222685  0.90153157  0.05299652  1
  Te  Te142  1  0.58602469  0.92851984  0.39839443  1
  Te  Te143  1  0.58178709  0.91348084  0.76140651  1
  Te  Te144  1  0.90287242  0.25822639  0.10759092  1
  Te  Te145  1  0.91803750  0.28233325  0.42001607  1
  Te  Te146  1  0.91602255  0.24477559  0.75804620  1
  Te  Te147  1  0.94733572  0.55966841  0.08727300  1
  Te  Te148  1  0.92272953  0.58072422  0.42601507  1
  Te  Te149  1  0.90615909  0.55813863  0.74615895  1
  Te  Te150  1  0.92057514  0.91170837  0.07922043  1
  Te  Te151  1  0.89139852  0.90415960  0.41102113  1
  Te  Te152  1  0.89536755  0.90617496  0.73961108  1
  Te  Te153  1  0.25157026  0.11646924  0.22396402  1
  Te  Te154  1  0.23912648  0.03657016  0.56680631  1
  Te  Te155  1  0.25287228  0.08846407  0.90310983  1
  Te  Te156  1  0.25832204  0.39195641  0.24278439  1
  Te  Te157  1  0.26754853  0.41404645  0.58070385  1
  Te  Te158  1  0.29953498  0.42410229  0.89908659  1
  Te  Te159  1  0.30387807  0.73635013  0.23651523  1
  Te  Te160  1  0.22759081  0.76983755  0.57129956  1
  Te  Te161  1  0.25422136  0.75712545  0.92286659  1
  Te  Te162  1  0.59143222  0.08165137  0.22905646  1
  Te  Te163  1  0.58530309  0.06838290  0.58363697  1
  Te  Te164  1  0.61321826  0.07228475  0.93261034  1
  Te  Te165  1  0.58667423  0.43276211  0.24072784  1
  Te  Te166  1  0.57181316  0.41398748  0.60496301  1
  Te  Te167  1  0.60408054  0.45220713  0.91821464  1
  Te  Te168  1  0.55817783  0.76393751  0.26171312  1
  Te  Te169  1  0.60759027  0.70923379  0.62648913  1
  Te  Te170  1  0.56560744  0.73228705  0.90527929  1
  Te  Te171  1  0.90861008  0.08411194  0.25892570  1
  Te  Te172  1  0.91116792  0.10125635  0.59554527  1
  Te  Te173  1  0.93136189  0.08426706  0.91681159  1
  Te  Te174  1  0.95770595  0.47407460  0.22590932  1
  Te  Te175  1  0.90469382  0.41263240  0.59522911  1
  Te  Te176  1  0.94033430  0.39263463  0.92544171  1
  Te  Te177  1  0.92225880  0.74987207  0.23599937  1
  Te  Te178  1  0.92479576  0.74182779  0.57041461  1
  Te  Te179  1  0.93928988  0.74163913  0.91442151  1
