# generated using pymatgen
data_In2Te3
_symmetry_space_group_name_H-M   'P 1'
_cell_length_a   18.99691311
_cell_length_b   18.99218855
_cell_length_c   18.99062712
_cell_angle_alpha   89.95460152
_cell_angle_beta   90.01595176
_cell_angle_gamma   89.89748711
_symmetry_Int_Tables_number   1
_chemical_formula_structural   In2Te3
_chemical_formula_sum   'In72 Te108'
_cell_volume   6851.67110229
_cell_formula_units_Z   36
loop_
 _symmetry_equiv_pos_site_id
 _symmetry_equiv_pos_as_xyz
  1  'x, y, z'
loop_
 _atom_site_type_symbol
 _atom_site_label
 _atom_site_symmetry_multiplicity
 _atom_site_fract_x
 _atom_site_fract_y
 _atom_site_fract_z
 _atom_site_occupancy
  In  In0  1  0.86340614  0.52427379  0.67321242  1
  In  In1  1  0.33273344  -0.00196702  0.31966516  1
  In  In2  1  0.00162007  0.34981308  0.00592269  1
  In  In3  1  -0.00201058  0.83634597  0.48273869  1
  In  In4  1  0.50100459  0.82064416  0.66946071  1
  In  In5  1  0.85583354  0.00980156  0.19604620  1
  In  In6  1  0.18406306  0.49096341  -0.00953278  1
  In  In7  1  0.84090015  -0.00549854  0.82329764  1
  In  In8  1  0.47873414  0.34106655  0.50294767  1
  In  In9  1  0.86030372  0.80842721  -0.00800248  1
  In  In10  1  0.00948806  -0.00359309  0.64587838  1
  In  In11  1  0.48300725  0.64664473  0.85056883  1
  In  In12  1  0.03525677  0.15789938  0.24252830  1
  In  In13  1  0.01072730  0.17529865  0.85309223  1
  In  In14  1  0.69266566  0.83330022  0.50761721  1
  In  In15  1  0.82320159  0.65849632  0.17568355  1
  In  In16  1  0.04489814  0.18358219  0.45768036  1
  In  In17  1  0.17138042  0.17709404  0.02803805  1
  In  In18  1  0.81754341  0.31367924  0.17663396  1
  In  In19  1  0.28708124  0.19478108  0.46560696  1
  In  In20  1  0.66889767  -0.01719765  -0.00816682  1
  In  In21  1  0.16795866  0.65626917  0.50387906  1
  In  In22  1  0.66811516  0.18009575  0.80349752  1
  In  In23  1  0.67470168  0.65573643  0.00069840  1
  In  In24  1  0.64174380  0.15693094  0.51894925  1
  In  In25  1  0.16881785  0.82519289  0.65087543  1
  In  In26  1  0.16573544  0.50655643  0.65390126  1
  In  In27  1  0.34750118  0.83439177  0.16131434  1
  In  In28  1  0.49068175  0.18598177  0.68486327  1
  In  In29  1  0.50401502  -0.00573460  0.49313856  1
  In  In30  1  0.17020911  0.82259975  0.03883108  1
  In  In31  1  0.85001618  0.80417634  0.67437112  1
  In  In32  1  0.68635400  -0.07395300  0.67754833  1
  In  In33  1  0.83495517  0.82783030  0.32795938  1
  In  In34  1  -0.01195024  0.81518234  0.17752815  1
  In  In35  1  0.84257959  0.51223797  0.34323171  1
  In  In36  1  0.46170622  0.18262440  -0.01393930  1
  In  In37  1  0.84911956  0.35604600  0.82751144  1
  In  In38  1  0.62991802  0.33243639  0.00545445  1
  In  In39  1  0.33028179  0.34594399  0.67251237  1
  In  In40  1  0.49613948  0.02512743  0.84713293  1
  In  In41  1  0.15586433  0.00243494  0.86628629  1
  In  In42  1  0.67552928  0.01707707  0.33529641  1
  In  In43  1  0.15481894  0.66103754  0.18659872  1
  In  In44  1  0.64232646  0.48812634  0.83930800  1
  In  In45  1  0.00575357  0.51396523  0.16195610  1
  In  In46  1  0.49378931  0.17969519  0.32282995  1
  In  In47  1  0.69244075  0.50830399  0.50032992  1
  In  In48  1  0.49578722  0.52622169  0.18856469  1
  In  In49  1  0.34607651  0.84402505  0.81384817  1
  In  In50  1  0.85486607  0.65831109  0.50651003  1
  In  In51  1  0.64596008  0.63867894  0.32675281  1
  In  In52  1  0.50096384  0.50960457  0.65046199  1
  In  In53  1  0.00900801  0.36555035  0.67206847  1
  In  In54  1  0.66747389  0.29918129  0.67786013  1
  In  In55  1  0.19868051  0.63530575  0.83136717  1
  In  In56  1  0.02509416  0.35404169  0.33922436  1
  In  In57  1  0.49364668  0.83367471  -0.00307896  1
  In  In58  1  0.15965882  0.00300128  0.17288813  1
  In  In59  1  0.31550669  0.48780665  0.46208075  1
  In  In60  1  0.49706099  0.79318415  0.31890410  1
  In  In61  1  0.66398540  0.17315487  0.15685628  1
  In  In62  1  0.85713023  0.14919964  0.63930558  1
  In  In63  1  0.82159452  0.48433664  -0.00580618  1
  In  In64  1  0.82668746  0.16711230  -0.02176112  1
  In  In65  1  0.03060233  0.80555447  0.84434786  1
  In  In66  1  0.32219412  0.67392771  -0.00119615  1
  In  In67  1  0.18212863  0.17949159  0.66631978  1
  In  In68  1  0.17350282  0.84499810  0.32835757  1
  In  In69  1  0.50272200  0.65589099  0.48145289  1
  In  In70  1  0.33408974  0.01977270  0.65660503  1
  In  In71  1  0.34317344  0.18357681  0.16100059  1
  Te  Te72  1  0.06644106  0.09506027  0.09989464  1
  Te  Te73  1  0.09870023  0.08978711  0.35821169  1
  Te  Te74  1  0.08038010  0.08459560  0.74884957  1
  Te  Te75  1  0.10192184  0.41709280  0.09620320  1
  Te  Te76  1  0.11432157  0.39849738  0.44974999  1
  Te  Te77  1  0.09939754  0.43126601  0.76257643  1
  Te  Te78  1  0.06365987  0.72557648  0.08190053  1
  Te  Te79  1  0.08771072  0.74616637  0.40357367  1
  Te  Te80  1  0.10664956  0.72344075  0.74336059  1
  Te  Te81  1  0.41766983  0.08355416  0.08247353  1
  Te  Te82  1  0.41135553  0.09083246  0.42177293  1
  Te  Te83  1  0.39342561  0.10395753  0.76834923  1
  Te  Te84  1  0.42149319  0.40682474  0.12486288  1
  Te  Te85  1  0.40204688  0.39197757  0.38636321  1
  Te  Te86  1  0.41309686  0.44165205  0.74848024  1
  Te  Te87  1  0.42955857  0.73040074  0.08849903  1
  Te  Te88  1  0.40256520  0.74397979  0.41767474  1
  Te  Te89  1  0.40676984  0.72667527  0.74249869  1
  Te  Te90  1  0.76180229  0.07752249  0.08339667  1
  Te  Te91  1  0.74188151  0.07515373  0.45062893  1
  Te  Te92  1  0.74985335  0.07173582  0.72842765  1
  Te  Te93  1  0.73366971  0.40659771  0.08831474  1
  Te  Te94  1  0.75662953  0.41481967  0.41001407  1
  Te  Te95  1  0.74211193  0.41789566  0.74057616  1
  Te  Te96  1  0.75252308  0.75653897  0.08486469  1
  Te  Te97  1  0.74896957  0.72469191  0.41043274  1
  Te  Te98  1  0.71821736  0.79467974  0.73600980  1
  Te  Te99  1  0.11546400  0.28358300  0.24332322  1
  Te  Te100  1  0.07294616  0.25369931  0.59403414  1
  Te  Te101  1  0.10049877  0.27107798  0.92214613  1
  Te  Te102  1  0.09279947  0.55854136  0.27368090  1
  Te  Te103  1  0.06438711  0.56814106  0.56458945  1
  Te  Te104  1  0.09988643  0.59393113  0.92922304  1
  Te  Te105  1  0.06331913  0.91986240  0.25593442  1
  Te  Te106  1  0.10289142  0.92153355  0.55407925  1
  Te  Te107  1  0.07567410  0.90627836  0.94923848  1
  Te  Te108  1  0.38334153  0.26886609  0.27809630  1
  Te  Te109  1  0.39840895  0.23383172  0.57417343  1
  Te  Te110  1  0.37644138  0.29135079  0.93834185  1
  Te  Te111  1  0.42499890  0.61381102  0.29224056  1
  Te  Te112  1  0.40073113  0.57297289  0.55758296  1
  Te  Te113  1  0.39125066  0.56036899  0.93039876  1
  Te  Te114  1  0.43820845  0.91709508  0.24881723  1
  Te  Te115  1  0.41340213  0.91196859  0.58418344  1
  Te  Te116  1  0.40356992  0.93158910  0.92255659  1
  Te  Te117  1  0.72826151  0.24236973  0.26806248  1
  Te  Te118  1  0.76102927  0.24415157  0.57221852  1
  Te  Te119  1  0.74444139  0.27616678  0.91197066  1
  Te  Te120  1  0.73543405  0.55434372  0.23890929  1
  Te  Te121  1  0.75037396  0.60221414  0.60116234  1
  Te  Te122  1  0.75177049  0.57648473  0.89608039  1
  Te  Te123  1  0.74600789  0.91711230  0.24376477  1
  Te  Te124  1  0.79847525  0.91424696  0.57588776  1
  Te  Te125  1  0.76337342  0.89839158  0.90988924  1
  Te  Te126  1  0.27215331  0.27956160  0.07036826  1
  Te  Te127  1  0.19677091  0.29063713  0.38713468  1
  Te  Te128  1  0.25400281  0.26027524  0.76313235  1
  Te  Te129  1  0.25021210  0.58408241  0.09768038  1
  Te  Te130  1  0.21889497  0.57371971  0.38976818  1
  Te  Te131  1  0.27856193  0.55323883  0.73973263  1
  Te  Te132  1  0.26098991  0.93360423  0.08494839  1
  Te  Te133  1  0.26353851  0.91645707  0.41808069  1
  Te  Te134  1  0.23953024  0.93171410  0.74679947  1
  Te  Te135  1  0.54514620  0.25159011  0.10203277  1
  Te  Te136  1  0.57818707  0.25541919  0.42351645  1
  Te  Te137  1  0.55396059  0.28012654  0.78247679  1
  Te  Te138  1  0.58071537  0.56186588  0.06382154  1
  Te  Te139  1  0.57192203  0.53923341  0.41302607  1
  Te  Te140  1  0.58233892  0.59299408  0.74713626  1
  Te  Te141  1  0.57867005  0.91595978  0.08286140  1
  Te  Te142  1  0.59360409  0.90171307  0.41357177  1
  Te  Te143  1  0.56464763  0.91402512  0.77259715  1
  Te  Te144  1  0.91091808  0.24969994  0.07368963  1
  Te  Te145  1  0.93072925  0.25681518  0.39777455  1
  Te  Te146  1  0.90550156  0.23288199  0.75935257  1
  Te  Te147  1  0.90536070  0.58432873  0.07208201  1
  Te  Te148  1  0.94313892  0.55850030  0.44219741  1
  Te  Te149  1  0.92274918  0.62407334  0.75798255  1
  Te  Te150  1  0.91261375  0.91246526  0.09007430  1
  Te  Te151  1  0.91296648  0.92532619  0.40233575  1
  Te  Te152  1  0.94712316  0.90592545  0.75382857  1
  Te  Te153  1  0.24715871  0.10005564  0.24935195  1
  Te  Te154  1  0.23573522  0.08524529  0.56096870  1
  Te  Te155  1  0.24545455  0.09580034  0.92942841  1
  Te  Te156  1  0.34702151  0.50534252  0.23036539  1
  Te  Te157  1  0.23915138  0.39995473  0.56367780  1
  Te  Te158  1  0.29742176  0.42570739  0.92248398  1
  Te  Te159  1  0.26069901  0.74913671  0.24998751  1
  Te  Te160  1  0.26203005  0.73803084  0.58178127  1
  Te  Te161  1  0.24963524  0.77597928  0.91221509  1
  Te  Te162  1  0.57531224  0.08078228  0.24238616  1
  Te  Te163  1  0.56088994  0.07150471  0.61373736  1
  Te  Te164  1  0.60242713  0.10242309  0.92334543  1
  Te  Te165  1  0.54401267  0.38397117  0.20555402  1
  Te  Te166  1  0.58975759  0.40156711  0.58860729  1
  Te  Te167  1  0.55153255  0.44652045  0.94986586  1
  Te  Te168  1  0.59489444  0.73458446  0.22960905  1
  Te  Te169  1  0.58730221  0.74239984  0.57283871  1
  Te  Te170  1  0.58103848  0.74201446  0.91442023  1
  Te  Te171  1  0.89427139  0.12429403  0.27853473  1
  Te  Te172  1  0.95069402  0.08644593  0.54114471  1
  Te  Te173  1  0.92763581  0.06831379  0.92321426  1
  Te  Te174  1  0.91436371  0.41643216  0.23625689  1
  Te  Te175  1  0.89933490  0.41132875  0.58871544  1
  Te  Te176  1  0.94145639  0.44497050  0.90409750  1
  Te  Te177  1  0.92360953  0.71699057  0.27243060  1
  Te  Te178  1  0.95299412  0.73894825  0.58875531  1
  Te  Te179  1  0.91155647  0.72096068  0.88062960  1
