# generated using pymatgen
data_In2Te3
_symmetry_space_group_name_H-M   'P 1'
_cell_length_a   18.89975343
_cell_length_b   18.90062709
_cell_length_c   18.88558218
_cell_angle_alpha   90.13403636
_cell_angle_beta   89.91731620
_cell_angle_gamma   89.99228308
_symmetry_Int_Tables_number   1
_chemical_formula_structural   In2Te3
_chemical_formula_sum   'In72 Te108'
_cell_volume   6746.22907856
_cell_formula_units_Z   36
loop_
 _symmetry_equiv_pos_site_id
 _symmetry_equiv_pos_as_xyz
  1  'x, y, z'
loop_
 _atom_site_type_symbol
 _atom_site_label
 _atom_site_symmetry_multiplicity
 _atom_site_fract_x
 _atom_site_fract_y
 _atom_site_fract_z
 _atom_site_occupancy
  In  In0  1  0.14462954  0.66719532  0.52003615  1
  In  In1  1  0.49412569  0.33629877  0.50118899  1
  In  In2  1  0.66252054  -0.02623585  0.35518938  1
  In  In3  1  0.01159124  0.64336216  -0.01260748  1
  In  In4  1  0.84033294  0.32948502  0.15493346  1
  In  In5  1  0.48700515  0.50451092  -0.01416965  1
  In  In6  1  0.66019737  0.81595792  0.14318068  1
  In  In7  1  0.68937212  0.17609252  0.53018563  1
  In  In8  1  0.16912089  0.19066472  0.69716816  1
  In  In9  1  0.48144752  0.35524588  0.13987933  1
  In  In10  1  0.50489843  0.52800990  0.33634259  1
  In  In11  1  -0.03110274  0.81179463  0.43696556  1
  In  In12  1  0.01614532  0.02755576  0.03873216  1
  In  In13  1  0.17436475  0.83164391  0.02175760  1
  In  In14  1  0.18044600  0.00460561  0.85441861  1
  In  In15  1  0.32211372  0.31965712  0.32276198  1
  In  In16  1  0.01397769  0.01137431  0.30263739  1
  In  In17  1  0.85551087  0.16902367  -0.00496434  1
  In  In18  1  -0.00982090  0.15533168  0.49190811  1
  In  In19  1  0.82525481  0.84150306  0.00383946  1
  In  In20  1  0.82406223  0.50290621  0.65989516  1
  In  In21  1  0.49239090  0.81541521  -0.02902173  1
  In  In22  1  -0.01567751  -0.00968043  0.65287393  1
  In  In23  1  0.19272658  0.31538491  0.50086102  1
  In  In24  1  0.83135872  0.01253584  0.18054204  1
  In  In25  1  0.64923740  0.00952262  -0.01551097  1
  In  In26  1  0.68404797  0.50901404  0.16308303  1
  In  In27  1  0.66964374  0.17556997  0.82237099  1
  In  In28  1  0.00333997  0.84538209  0.81797486  1
  In  In29  1  0.50648095  0.01101420  0.81007186  1
  In  In30  1  0.01370256  0.35342038  -0.03517346  1
  In  In31  1  0.51925486  0.50751428  0.67449653  1
  In  In32  1  0.16222255  -0.01172722  0.52052548  1
  In  In33  1  -0.01822725  0.48877654  0.13770619  1
  In  In34  1  0.35332026  0.33570090  0.68708160  1
  In  In35  1  0.16633280  0.65750829  0.15499831  1
  In  In36  1  0.32850917  0.65813378  0.32611707  1
  In  In37  1  0.46990743  -0.00028082  0.17455852  1
  In  In38  1  0.16502029  0.33224990  0.17297377  1
  In  In39  1  0.81573598  0.00131492  0.51347410  1
  In  In40  1  0.48806377  0.16085005  0.66000879  1
  In  In41  1  0.34649115  0.84292765  0.49877620  1
  In  In42  1  0.32670316  0.64912738  -0.01867474  1
  In  In43  1  0.02338323  0.34592816  0.70785897  1
  In  In44  1  0.50929487  0.14001184  0.34315803  1
  In  In45  1  0.50476390  -0.03949036  0.48370007  1
  In  In46  1  0.51243242  0.85550658  0.34353998  1
  In  In47  1  0.33864630  0.00926198  0.64077489  1
  In  In48  1  0.67917011  0.80971100  0.85934528  1
  In  In49  1  0.66778296  0.51379509  0.82208650  1
  In  In50  1  0.33541820  0.81298286  0.82760636  1
  In  In51  1  0.15268733  0.50354274  0.31954853  1
  In  In52  1  0.68410109  0.34293079  0.33106194  1
  In  In53  1  0.16378939  0.81531361  0.67018712  1
  In  In54  1  0.02306749  0.16876459  0.85118913  1
  In  In55  1  0.64548509  0.19389557  0.15655338  1
  In  In56  1  0.32905512  0.01449096  0.01396097  1
  In  In57  1  0.01441675  0.30450947  0.33152628  1
  In  In58  1  0.16334731  0.84922909  0.33123237  1
  In  In59  1  0.48473608  0.32842270  0.85461646  1
  In  In60  1  0.32632856  0.17619316  0.16835986  1
  In  In61  1  0.66734438  -0.01259162  0.67129607  1
  In  In62  1  0.48250225  0.68388360  0.14774346  1
  In  In63  1  -0.01021035  0.65195153  0.67122152  1
  In  In64  1  0.00148139  0.50163397  0.52232417  1
  In  In65  1  0.65518607  0.49635349  0.48407901  1
  In  In66  1  0.82510931  0.67145263  0.48043081  1
  In  In67  1  0.82817477  0.65669108  0.82789809  1
  In  In68  1  0.34983012  0.63446959  0.68658639  1
  In  In69  1  0.32607973  0.49013869  0.53044918  1
  In  In70  1  0.81518974  0.50954823  0.33033386  1
  In  In71  1  0.84753655  0.34526234  0.84066211  1
  Te  Te72  1  0.11619735  0.10713067  0.11207472  1
  Te  Te73  1  0.09519068  0.07749569  0.41604039  1
  Te  Te74  1  0.08624360  0.06430768  0.74240730  1
  Te  Te75  1  0.10136547  0.42631993  0.07165544  1
  Te  Te76  1  0.09246019  0.41198353  0.42601206  1
  Te  Te77  1  0.09428984  0.41768488  0.81716973  1
  Te  Te78  1  0.06525287  0.74935295  0.08622093  1
  Te  Te79  1  0.09155939  0.72715303  0.39351522  1
  Te  Te80  1  0.08459521  0.72801359  0.76490173  1
  Te  Te81  1  0.43155713  0.10824756  0.07807896  1
  Te  Te82  1  0.41614798  0.06624865  0.42763854  1
  Te  Te83  1  0.39061268  0.09413078  0.75609220  1
  Te  Te84  1  0.38414390  0.41235497  0.04350081  1
  Te  Te85  1  0.40731021  0.42248280  0.41031447  1
  Te  Te86  1  0.42208616  0.44209811  0.76967249  1
  Te  Te87  1  0.38741735  0.76878850  0.06845343  1
  Te  Te88  1  0.42200074  0.74314583  0.41002351  1
  Te  Te89  1  0.43612901  0.73258578  0.75683516  1
  Te  Te90  1  0.74302169  0.09207990  0.07384842  1
  Te  Te91  1  0.74161186  0.09243116  0.41365465  1
  Te  Te92  1  0.75215627  0.08355651  0.74422905  1
  Te  Te93  1  0.74846303  0.41066559  0.07495929  1
  Te  Te94  1  0.77075630  0.40819588  0.43631348  1
  Te  Te95  1  0.74355697  0.40002121  0.74087292  1
  Te  Te96  1  0.76530126  0.73217843  0.08246279  1
  Te  Te97  1  0.76482147  0.76823772  0.38501366  1
  Te  Te98  1  0.73579013  0.73472752  0.74294506  1
  Te  Te99  1  0.09004402  0.21904249  0.23556681  1
  Te  Te100  1  0.07790102  0.25047236  0.58871669  1
  Te  Te101  1  0.11444966  0.24804743  0.93254233  1
  Te  Te102  1  0.05809573  0.58325501  0.23571794  1
  Te  Te103  1  0.10283038  0.56013926  0.61952772  1
  Te  Te104  1  0.10216867  0.55520216  0.90761524  1
  Te  Te105  1  0.06484999  0.89353422  0.23181160  1
  Te  Te106  1  0.06844699  0.88215560  0.57294969  1
  Te  Te107  1  0.08168089  0.91738275  0.93170952  1
  Te  Te108  1  0.44096548  0.24844634  0.25605841  1
  Te  Te109  1  0.39630587  0.24429419  0.57034242  1
  Te  Te110  1  0.37003450  0.25059538  0.89871074  1
  Te  Te111  1  0.41013001  0.57535614  0.22737993  1
  Te  Te112  1  0.43923176  0.58223821  0.56776119  1
  Te  Te113  1  0.44093681  0.61194679  0.89378857  1
  Te  Te114  1  0.40154996  0.90571353  0.26169424  1
  Te  Te115  1  0.43861491  0.89759128  0.61607459  1
  Te  Te116  1  0.40668708  0.93089466  0.90578244  1
  Te  Te117  1  0.75790514  0.23954304  0.24774365  1
  Te  Te118  1  0.72693140  0.28299777  0.61831697  1
  Te  Te119  1  0.75451269  0.25512683  0.92256800  1
  Te  Te120  1  0.75007254  0.61052442  0.24727167  1
  Te  Te121  1  0.73500364  0.59303184  0.57593710  1
  Te  Te122  1  0.76623474  0.56071258  0.92257565  1
  Te  Te123  1  0.74007626  0.90727581  0.23979770  1
  Te  Te124  1  0.75960364  0.89494652  0.59871382  1
  Te  Te125  1  0.75529491  0.93479812  0.90658362  1
  Te  Te126  1  0.27257193  0.28355114  0.08042424  1
  Te  Te127  1  0.24180140  0.22318703  0.39739150  1
  Te  Te128  1  0.26203052  0.26681134  0.78788876  1
  Te  Te129  1  0.25482883  0.56720563  0.08001335  1
  Te  Te130  1  0.24582556  0.57508659  0.42869766  1
  Te  Te131  1  0.24139025  0.58575115  0.77049006  1
  Te  Te132  1  0.24559169  0.93200072  0.10715236  1
  Te  Te133  1  0.25930883  0.93453742  0.41500982  1
  Te  Te134  1  0.25076212  0.91895707  0.74032833  1
  Te  Te135  1  0.57314705  0.27363823  0.05846080  1
  Te  Te136  1  0.58926916  0.25134265  0.41621127  1
  Te  Te137  1  0.56698397  0.25688121  0.74475815  1
  Te  Te138  1  0.57639277  0.58333779  0.08248142  1
  Te  Te139  1  0.60414531  0.60962140  0.40560402  1
  Te  Te140  1  0.60964973  0.61305284  0.72774451  1
  Te  Te141  1  0.56415062  0.91755000  0.07155830  1
  Te  Te142  1  0.64414891  0.85930771  0.46128836  1
  Te  Te143  1  0.58876343  0.89489968  0.76448460  1
  Te  Te144  1  0.94617931  0.25857301  0.07316346  1
  Te  Te145  1  0.90930446  0.25362828  0.41952160  1
  Te  Te146  1  0.92552115  0.24168649  0.76058197  1
  Te  Te147  1  0.90508283  0.60136195  0.08251844  1
  Te  Te148  1  0.92646490  0.57652202  0.41607864  1
  Te  Te149  1  0.92267106  0.55366545  0.76421359  1
  Te  Te150  1  0.91790964  0.92258030  0.09317719  1
  Te  Te151  1  0.92158944  0.95280462  0.41698504  1
  Te  Te152  1  0.89795619  0.90659686  0.73768751  1
  Te  Te153  1  0.23427698  0.06417367  0.20449313  1
  Te  Te154  1  0.23593154  0.10406785  0.58581038  1
  Te  Te155  1  0.23886625  0.10766756  0.94095491  1
  Te  Te156  1  0.26129721  0.43204989  0.24229923  1
  Te  Te157  1  0.23560129  0.40563630  0.61711949  1
  Te  Te158  1  0.23279911  0.47535944  0.87622759  1
  Te  Te159  1  0.24838886  0.75335473  0.24265475  1
  Te  Te160  1  0.26436072  0.73867270  0.58331304  1
  Te  Te161  1  0.22883278  0.74463986  0.90977736  1
  Te  Te162  1  0.59734438  0.06774423  0.24175763  1
  Te  Te163  1  0.57502994  0.07112730  0.57007083  1
  Te  Te164  1  0.56255015  0.10918707  0.91157686  1
  Te  Te165  1  0.58104329  0.41961436  0.25058131  1
  Te  Te166  1  0.59535920  0.40230683  0.59172152  1
  Te  Te167  1  0.59114101  0.41840654  0.91496778  1
  Te  Te168  1  0.57392768  0.74979573  0.24942296  1
  Te  Te169  1  0.53835514  0.79670073  0.54585175  1
  Te  Te170  1  0.59639738  0.71717453  0.93934528  1
  Te  Te171  1  0.92111978  0.10959974  0.24273399  1
  Te  Te172  1  0.89700859  0.10218128  0.59970409  1
  Te  Te173  1  0.93167265  0.06500215  0.91492358  1
  Te  Te174  1  0.91998221  0.41066591  0.26013245  1
  Te  Te175  1  0.92417293  0.40054513  0.60268292  1
  Te  Te176  1  0.89360039  0.44088507  0.94463738  1
  Te  Te177  1  0.89718716  0.76218301  0.31675458  1
  Te  Te178  1  0.92055747  0.74395156  0.57515894  1
  Te  Te179  1  0.91958192  0.75350024  0.91119025  1
