# generated using pymatgen
data_In2Te3
_symmetry_space_group_name_H-M   'P 1'
_cell_length_a   18.75386898
_cell_length_b   18.74211317
_cell_length_c   18.75308480
_cell_angle_alpha   90.04120898
_cell_angle_beta   90.03538643
_cell_angle_gamma   90.00098418
_symmetry_Int_Tables_number   1
_chemical_formula_structural   In2Te3
_chemical_formula_sum   'In72 Te108'
_cell_volume   6591.46508409
_cell_formula_units_Z   36
loop_
 _symmetry_equiv_pos_site_id
 _symmetry_equiv_pos_as_xyz
  1  'x, y, z'
loop_
 _atom_site_type_symbol
 _atom_site_label
 _atom_site_symmetry_multiplicity
 _atom_site_fract_x
 _atom_site_fract_y
 _atom_site_fract_z
 _atom_site_occupancy
  In  In0  1  0.17352642  0.18520941  0.32285363  1
  In  In1  1  0.16023581  0.51590833  0.35060657  1
  In  In2  1  0.67625801  0.35776852  0.32156014  1
  In  In3  1  0.01315295  0.49889730  0.82677979  1
  In  In4  1  0.34650898  0.33028992  0.34507566  1
  In  In5  1  0.32098366  0.84078838  0.83873937  1
  In  In6  1  0.35253457  0.33066502  0.00296066  1
  In  In7  1  0.64446745  0.35066719  0.65955080  1
  In  In8  1  0.65303413  0.16730995  0.49448140  1
  In  In9  1  0.52106146  0.84101410  0.65777815  1
  In  In10  1  -0.00721624  0.18505006  0.52188072  1
  In  In11  1  0.84761347  0.33863712  0.82060127  1
  In  In12  1  0.84250976  0.81872638  0.00735707  1
  In  In13  1  0.17332467  0.00221653  0.85084940  1
  In  In14  1  0.66488580  0.51258760  0.84625344  1
  In  In15  1  -0.00973752  0.65097513  0.00367868  1
  In  In16  1  0.49079508  0.35527291  0.51064275  1
  In  In17  1  0.02505218  0.52653089  0.51535984  1
  In  In18  1  -0.00917981  0.66262448  0.33491169  1
  In  In19  1  0.47320795  0.33975710  0.82394779  1
  In  In20  1  0.62322428  -0.01552385  0.29112986  1
  In  In21  1  0.68268060  0.83315720  0.14992056  1
  In  In22  1  0.65272477  0.78952633  0.48674633  1
  In  In23  1  0.49653551  0.83633719  0.32415238  1
  In  In24  1  0.16153589  0.34817333  0.15278496  1
  In  In25  1  0.67865737  0.64366906  0.33806006  1
  In  In26  1  0.00172791  -0.01020226  0.67443305  1
  In  In27  1  0.31367020  0.83577450  0.51502372  1
  In  In28  1  0.64481501  0.82106071  0.82584909  1
  In  In29  1  0.86000448  0.37236254  0.18548576  1
  In  In30  1  0.50058048  0.65170287  0.51078885  1
  In  In31  1  0.81470215  0.52327565  -0.00124071  1
  In  In32  1  0.15829201  0.65885211  0.17414356  1
  In  In33  1  0.36348742  -0.00943324  0.34850382  1
  In  In34  1  0.82754450  -0.00895635  0.48849941  1
  In  In35  1  0.17570143  0.50169267  0.01027507  1
  In  In36  1  0.33170363  0.16843657  0.17809816  1
  In  In37  1  0.48511348  0.16122707  0.31779370  1
  In  In38  1  0.03859512  0.30751773  -0.02793394  1
  In  In39  1  0.00003255  -0.01622105  0.00136875  1
  In  In40  1  0.32815011  0.66451635  0.66302853  1
  In  In41  1  0.84278275  0.17710727  0.32442528  1
  In  In42  1  0.49147559  0.67437943  0.14021533  1
  In  In43  1  0.16812099  0.80620035  -0.01473221  1
  In  In44  1  0.15228801  -0.01903487  0.15681680  1
  In  In45  1  0.15415327  0.80362074  0.70291575  1
  In  In46  1  0.82946301  0.35611174  0.48345712  1
  In  In47  1  0.33019399  0.50776058  0.81979070  1
  In  In48  1  0.02096029  0.34176559  0.66867944  1
  In  In49  1  0.34827885  0.50700442  0.16431385  1
  In  In50  1  0.32131289  0.01307489  -0.02048788  1
  In  In51  1  0.18144938  0.18747917  0.67242372  1
  In  In52  1  0.64591164  -0.02563041  0.67514307  1
  In  In53  1  0.47757558  0.01096071  0.49418069  1
  In  In54  1  0.50441645  -0.00124961  0.17683900  1
  In  In55  1  0.64428967  0.00753450  0.00575845  1
  In  In56  1  0.83059359  0.54609520  0.65332837  1
  In  In57  1  0.82973402  0.15857574  0.00459663  1
  In  In58  1  0.81926392  0.80480267  0.32903955  1
  In  In59  1  0.65437600  0.51705566  0.16614137  1
  In  In60  1  0.63172313  0.32325980  0.01932953  1
  In  In61  1  0.50014148  0.65230413  0.84280916  1
  In  In62  1  0.84336540  0.20657079  0.69741158  1
  In  In63  1  0.83085451  0.79604312  0.66247976  1
  In  In64  1  0.84253323  -0.00611085  0.83867131  1
  In  In65  1  0.18415488  0.01501071  0.50970041  1
  In  In66  1  0.66562122  0.14581975  0.84680525  1
  In  In67  1  0.01393871  0.16785576  0.15725024  1
  In  In68  1  0.01215183  0.79869047  0.49583933  1
  In  In69  1  0.01403527  -0.00157768  0.31712920  1
  In  In70  1  0.31874822  0.65001825  0.33568504  1
  In  In71  1  0.45158866  0.17222392  0.69596906  1
  Te  Te72  1  0.09935739  0.08718939  0.06053014  1
  Te  Te73  1  0.07420655  0.09293078  0.42192170  1
  Te  Te74  1  0.08954531  0.08571591  0.74956140  1
  Te  Te75  1  0.05813001  0.42480669  0.07110161  1
  Te  Te76  1  0.08979072  0.41799558  0.43714511  1
  Te  Te77  1  0.11611335  0.42112399  0.75165692  1
  Te  Te78  1  0.07107303  0.75228724  0.08972665  1
  Te  Te79  1  0.10429836  0.72988670  0.40267169  1
  Te  Te80  1  0.04764308  0.71276342  0.74715440  1
  Te  Te81  1  0.41413996  0.08245309  0.08379551  1
  Te  Te82  1  0.38965855  0.11861995  0.42918074  1
  Te  Te83  1  0.42705278  0.04072582  0.75401452  1
  Te  Te84  1  0.43858441  0.42257798  0.08230419  1
  Te  Te85  1  0.40280208  0.44215627  0.42570901  1
  Te  Te86  1  0.42254552  0.43617980  0.71796712  1
  Te  Te87  1  0.40530680  0.78479067  0.10123286  1
  Te  Te88  1  0.41778425  0.75840239  0.42989691  1
  Te  Te89  1  0.42061353  0.75716498  0.74198055  1
  Te  Te90  1  0.75135983  0.06759915  0.08959461  1
  Te  Te91  1  0.74325388  0.08622739  0.40041180  1
  Te  Te92  1  0.75449008  0.07486318  0.73885382  1
  Te  Te93  1  0.74684570  0.40828868  0.07848480  1
  Te  Te94  1  0.74538835  0.45429397  0.41170440  1
  Te  Te95  1  0.75544076  0.43013241  0.73989098  1
  Te  Te96  1  0.75077198  0.72445107  0.07697086  1
  Te  Te97  1  0.78232641  0.71199891  0.44721948  1
  Te  Te98  1  0.74702393  0.72750923  0.76663035  1
  Te  Te99  1  0.07049847  0.27362481  0.25260442  1
  Te  Te100  1  0.10986694  0.27288123  0.56367282  1
  Te  Te101  1  0.14852864  0.23991602  0.89990763  1
  Te  Te102  1  0.06831002  0.55224796  0.23390423  1
  Te  Te103  1  0.11740187  0.58219320  0.61707995  1
  Te  Te104  1  0.10107754  0.59211438  0.91307903  1
  Te  Te105  1  0.08470187  0.88850149  0.24955772  1
  Te  Te106  1  0.08740448  0.91199662  0.57516412  1
  Te  Te107  1  0.07562868  0.89624691  0.90146218  1
  Te  Te108  1  0.42867331  0.27463930  0.22936939  1
  Te  Te109  1  0.39773868  0.26419718  0.58954865  1
  Te  Te110  1  0.41829766  0.23236448  0.91032291  1
  Te  Te111  1  0.43577746  0.59094037  0.25856762  1
  Te  Te112  1  0.39742631  0.56393191  0.57615403  1
  Te  Te113  1  0.40049193  0.58191617  0.92773872  1
  Te  Te114  1  0.39425487  0.89510172  0.22672068  1
  Te  Te115  1  0.40552558  0.92523861  0.59835258  1
  Te  Te116  1  0.41300721  0.90364092  0.93659348  1
  Te  Te117  1  0.75994492  0.26546670  0.23144414  1
  Te  Te118  1  0.75172337  0.25249195  0.57556176  1
  Te  Te119  1  0.74810138  0.26009615  0.91087023  1
  Te  Te120  1  0.76863475  0.58301915  0.23609766  1
  Te  Te121  1  0.73573201  0.61531781  0.56531057  1
  Te  Te122  1  0.76496053  0.61498059  0.89128636  1
  Te  Te123  1  0.75771246  0.92157554  0.25054480  1
  Te  Te124  1  0.74450560  0.89723173  0.57713102  1
  Te  Te125  1  0.73689159  0.91590325  0.91439691  1
  Te  Te126  1  0.24272013  0.24399737  0.07972990  1
  Te  Te127  1  0.24566968  0.25955600  0.42778689  1
  Te  Te128  1  0.24933959  0.28631257  0.76345227  1
  Te  Te129  1  0.26626013  0.60388872  0.07911265  1
  Te  Te130  1  0.26606533  0.56487660  0.44617171  1
  Te  Te131  1  0.22318915  0.57901348  0.73467269  1
  Te  Te132  1  0.25026577  0.90620814  0.06787844  1
  Te  Te133  1  0.24128463  0.91590377  0.40689580  1
  Te  Te134  1  0.24168219  0.92369286  0.73711403  1
  Te  Te135  1  0.57508976  0.21272356  0.09284704  1
  Te  Te136  1  0.57282330  0.26148142  0.40574731  1
  Te  Te137  1  0.58604663  0.24349198  0.74965969  1
  Te  Te138  1  0.59073409  0.60040385  0.05898717  1
  Te  Te139  1  0.57703359  0.56654970  0.41396939  1
  Te  Te140  1  0.57060025  0.56514735  0.74512519  1
  Te  Te141  1  0.56476742  0.89618557  0.07699239  1
  Te  Te142  1  0.58849258  0.92348744  0.42977193  1
  Te  Te143  1  0.54413191  0.93854306  0.78617952  1
  Te  Te144  1  0.91986704  0.26116217  0.07803602  1
  Te  Te145  1  0.93080138  0.26897586  0.40858083  1
  Te  Te146  1  0.96547716  0.24933118  0.77914575  1
  Te  Te147  1  0.89635466  0.58999501  0.10438797  1
  Te  Te148  1  0.91787010  0.55144141  0.40729596  1
  Te  Te149  1  0.93281397  0.60358259  0.74981791  1
  Te  Te150  1  0.91110483  0.91585571  0.09633212  1
  Te  Te151  1  0.92324428  0.90242035  0.41011490  1
  Te  Te152  1  0.91620649  0.89150964  0.75259213  1
  Te  Te153  1  0.24583003  0.06684038  0.25618258  1
  Te  Te154  1  0.27118204  0.09299327  0.59939315  1
  Te  Te155  1  0.25584539  0.12232344  0.89562327  1
  Te  Te156  1  0.25160419  0.42286560  0.25137749  1
  Te  Te157  1  0.29353258  0.37671764  0.65135540  1
  Te  Te158  1  0.25396461  0.41104589  0.91646908  1
  Te  Te159  1  0.24647008  0.74874975  0.25373006  1
  Te  Te160  1  0.21856354  0.73634397  0.57884721  1
  Te  Te161  1  0.25491946  0.72247677  0.89872324  1
  Te  Te162  1  0.60116851  0.12366469  0.22097704  1
  Te  Te163  1  0.56940296  0.08980036  0.59450551  1
  Te  Te164  1  0.55251686  0.09675087  0.92788491  1
  Te  Te165  1  0.56975439  0.41927907  0.23906016  1
  Te  Te166  1  0.59746554  0.44832190  0.55989816  1
  Te  Te167  1  0.56702727  0.41815823  0.91829976  1
  Te  Te168  1  0.59844382  0.74961849  0.25474542  1
  Te  Te169  1  0.59991261  0.71488729  0.61248337  1
  Te  Te170  1  0.57949422  0.74119370  0.93293708  1
  Te  Te171  1  0.91477914  0.07827432  0.23176628  1
  Te  Te172  1  0.90443374  0.07901453  0.59131749  1
  Te  Te173  1  0.93252323  0.09245414  0.91210545  1
  Te  Te174  1  0.93495246  0.45363563  0.28246167  1
  Te  Te175  1  0.91433422  0.42414063  0.59543378  1
  Te  Te176  1  0.91773219  0.42686197  0.92397367  1
  Te  Te177  1  0.91184421  0.73915004  0.23523435  1
  Te  Te178  1  0.93392399  0.71405513  0.58975476  1
  Te  Te179  1  0.92875052  0.74883747  0.90926831  1
