# generated using pymatgen
data_In2Te3
_symmetry_space_group_name_H-M   'P 1'
_cell_length_a   18.78403390
_cell_length_b   18.77645439
_cell_length_c   18.77581566
_cell_angle_alpha   90.05047720
_cell_angle_beta   90.08967602
_cell_angle_gamma   89.93972233
_symmetry_Int_Tables_number   1
_chemical_formula_structural   In2Te3
_chemical_formula_sum   'In72 Te108'
_cell_volume   6622.16995102
_cell_formula_units_Z   36
loop_
 _symmetry_equiv_pos_site_id
 _symmetry_equiv_pos_as_xyz
  1  'x, y, z'
loop_
 _atom_site_type_symbol
 _atom_site_label
 _atom_site_symmetry_multiplicity
 _atom_site_fract_x
 _atom_site_fract_y
 _atom_site_fract_z
 _atom_site_occupancy
  In  In0  1  0.21164242  0.46839028  0.65051508  1
  In  In1  1  0.15063343  -0.01095653  0.49503492  1
  In  In2  1  0.49918314  0.65793479  0.49359421  1
  In  In3  1  0.00564504  0.84176707  0.82463182  1
  In  In4  1  0.83927225  0.67202281  0.82296656  1
  In  In5  1  0.67640723  0.65112840  0.65774874  1
  In  In6  1  0.65659570  0.82152899  0.18596673  1
  In  In7  1  0.83077114  0.00460279  0.17647097  1
  In  In8  1  0.81098077  0.35077187  0.16202957  1
  In  In9  1  0.82653541  0.48765532  -0.00375669  1
  In  In10  1  0.32769884  0.33132699  0.33765021  1
  In  In11  1  -0.00042282  -0.00814013  0.66141031  1
  In  In12  1  0.65472104  0.00086322  0.65978675  1
  In  In13  1  0.16763953  0.84795227  0.67480803  1
  In  In14  1  0.67162963  0.32546433  0.31856104  1
  In  In15  1  0.32257961  -0.00153236  0.00080262  1
  In  In16  1  0.63548708  0.47286687  0.87239976  1
  In  In17  1  0.00169735  0.34540011  0.67111679  1
  In  In18  1  0.65453364  0.50854254  0.47885189  1
  In  In19  1  0.46354943  0.30849242  0.52349101  1
  In  In20  1  0.18211032  0.14992829  0.66256215  1
  In  In21  1  0.69021851  0.87470675  0.85886066  1
  In  In22  1  -0.00831062  0.33576431  -0.00740270  1
  In  In23  1  0.17123493  0.16339387  0.00884544  1
  In  In24  1  0.13115511  0.69134478  0.47505421  1
  In  In25  1  0.31840753  0.70132537  -0.01466609  1
  In  In26  1  -0.00026080  0.17194982  0.51427526  1
  In  In27  1  0.82859208  0.69065744  0.17965725  1
  In  In28  1  0.82435725  0.52484015  0.32126022  1
  In  In29  1  0.82536106  0.50718927  0.64712590  1
  In  In30  1  0.00227130  0.69548330  0.65098876  1
  In  In31  1  0.50201776  0.50761689  0.34634433  1
  In  In32  1  0.67153303  0.15316603  0.48935352  1
  In  In33  1  0.48617084  0.83992963  -0.00969029  1
  In  In34  1  0.67848578  0.82274204  0.46261302  1
  In  In35  1  0.49032019  0.17937366  -0.02286824  1
  In  In36  1  0.49941568  0.33049507  0.16408197  1
  In  In37  1  0.34627129  0.84059566  0.16987645  1
  In  In38  1  0.17113479  0.31267947  0.82652512  1
  In  In39  1  0.00081245  0.50633811  0.49956775  1
  In  In40  1  0.34634788  0.49249738  0.84832893  1
  In  In41  1  0.65982518  0.31450518  0.67975538  1
  In  In42  1  0.48643554  0.13657116  0.37480975  1
  In  In43  1  0.31845414  0.85410500  0.49871057  1
  In  In44  1  0.15987918  0.51056587  -0.00246775  1
  In  In45  1  0.47879862  0.48362368  0.66635808  1
  In  In46  1  0.48613103  0.83542716  0.68049340  1
  In  In47  1  0.83904469  0.33201939  0.83084842  1
  In  In48  1  0.50154052  -0.01457426  0.17273326  1
  In  In49  1  0.01665150  0.50494806  0.15967026  1
  In  In50  1  0.17122550  0.01934946  0.85235592  1
  In  In51  1  0.64681311  0.65822722  0.02621675  1
  In  In52  1  0.33622609  0.66234907  0.34557106  1
  In  In53  1  -0.00153923  0.00900147  0.00106493  1
  In  In54  1  0.83198094  0.16025919  -0.01434503  1
  In  In55  1  0.35522374  0.48729008  0.17228518  1
  In  In56  1  0.01185108  0.31500710  0.33966113  1
  In  In57  1  0.84166687  0.83636859  0.64146301  1
  In  In58  1  0.31064234  0.16528812  0.17294374  1
  In  In59  1  0.49185864  0.66827911  0.83509287  1
  In  In60  1  0.66871324  -0.00220982  0.33573268  1
  In  In61  1  0.34357390  0.66707186  0.67773346  1
  In  In62  1  0.65952965  0.16073672  0.85353783  1
  In  In63  1  0.34666012  0.01598345  0.67165606  1
  In  In64  1  0.69183793  0.16533999  0.16027644  1
  In  In65  1  0.16691885  0.50900344  0.32527269  1
  In  In66  1  0.15921921  0.66427318  0.17845766  1
  In  In67  1  0.82236869  0.16183282  0.65438668  1
  In  In68  1  0.18730127  0.16431885  0.34700029  1
  In  In69  1  0.00278804  0.68312751  -0.00536690  1
  In  In70  1  0.00981200  0.85078752  0.18911418  1
  In  In71  1  -0.00140917  0.14477782  0.18226877  1
  Te  Te72  1  0.10058734  0.06413310  0.10179513  1
  Te  Te73  1  0.06940299  0.08612648  0.40857064  1
  Te  Te74  1  0.07691363  0.08746237  0.75235168  1
  Te  Te75  1  0.09572797  0.39930341  0.08476921  1
  Te  Te76  1  0.09546076  0.41366232  0.42172704  1
  Te  Te77  1  0.10117485  0.42744960  0.75071262  1
  Te  Te78  1  0.09209996  0.76485000  0.08616837  1
  Te  Te79  1  0.06780688  0.79601879  0.37900935  1
  Te  Te80  1  0.10617439  0.74021720  0.76630170  1
  Te  Te81  1  0.42073638  0.08791177  0.09065268  1
  Te  Te82  1  0.37966448  0.06660504  0.44361736  1
  Te  Te83  1  0.44179482  0.11144331  0.73370747  1
  Te  Te84  1  0.42210850  0.41017716  0.06351087  1
  Te  Te85  1  0.40994775  0.42286012  0.42995653  1
  Te  Te86  1  0.40846311  0.38980165  0.75748375  1
  Te  Te87  1  0.42864997  0.73971115  0.08718613  1
  Te  Te88  1  0.41925217  0.76593543  0.42052609  1
  Te  Te89  1  0.39047131  0.76985614  0.78147622  1
  Te  Te90  1  0.73744257  0.05956077  0.05592922  1
  Te  Te91  1  0.76987770  0.07638546  0.41143993  1
  Te  Te92  1  0.74677097  0.07857978  0.75539516  1
  Te  Te93  1  0.71265235  0.42264252  0.07231794  1
  Te  Te94  1  0.75600303  0.41859673  0.40781212  1
  Te  Te95  1  0.74528373  0.42634428  0.75079512  1
  Te  Te96  1  0.74874642  0.76016744  0.06997174  1
  Te  Te97  1  0.77100124  0.71706600  0.42302377  1
  Te  Te98  1  0.74206795  0.76291985  0.74246621  1
  Te  Te99  1  0.10194220  0.24131895  0.24197695  1
  Te  Te100  1  0.09785001  0.25923154  0.59038200  1
  Te  Te101  1  0.07185878  0.23361974  0.91317916  1
  Te  Te102  1  0.05600574  0.60201869  0.27190165  1
  Te  Te103  1  0.09471885  0.58611367  0.59128663  1
  Te  Te104  1  0.07146475  0.58651077  0.90760705  1
  Te  Te105  1  0.09993632  0.91800658  0.28731646  1
  Te  Te106  1  0.05948808  0.88381939  0.56741635  1
  Te  Te107  1  0.09404619  0.91234472  0.92743981  1
  Te  Te108  1  0.42385540  0.23920301  0.26285774  1
  Te  Te109  1  0.40534925  0.21924183  0.62720495  1
  Te  Te110  1  0.41735367  0.27938036  0.89530352  1
  Te  Te111  1  0.43070395  0.59833493  0.24344325  1
  Te  Te112  1  0.39919761  0.57234905  0.57137454  1
  Te  Te113  1  0.42215565  0.58789577  0.94111640  1
  Te  Te114  1  0.42345846  0.91422887  0.27391938  1
  Te  Te115  1  0.42875427  0.92996970  0.57525667  1
  Te  Te116  1  0.41776177  0.93758481  0.90438735  1
  Te  Te117  1  0.78073469  0.23579052  0.26182998  1
  Te  Te118  1  0.74950935  0.26260361  0.56720613  1
  Te  Te119  1  0.74146147  0.27006948  0.92825209  1
  Te  Te120  1  0.73426925  0.58170250  0.21778505  1
  Te  Te121  1  0.76702623  0.60476919  0.54195271  1
  Te  Te122  1  0.74442898  0.58707450  0.90849091  1
  Te  Te123  1  0.76237893  0.89885667  0.26545144  1
  Te  Te124  1  0.74411916  0.92238808  0.56217436  1
  Te  Te125  1  0.77810139  0.95603873  0.94239324  1
  Te  Te126  1  0.26076799  0.26140309  0.07410410  1
  Te  Te127  1  0.25203476  0.26021476  0.44617152  1
  Te  Te128  1  0.26968740  0.25107328  0.73062705  1
  Te  Te129  1  0.25745271  0.58634896  0.09076648  1
  Te  Te130  1  0.23996076  0.58523480  0.43488314  1
  Te  Te131  1  0.25347692  0.57299043  0.75606639  1
  Te  Te132  1  0.24449847  0.91057748  0.08864026  1
  Te  Te133  1  0.23267995  0.91471405  0.39100788  1
  Te  Te134  1  0.25842888  0.93071132  0.76216577  1
  Te  Te135  1  0.59157445  0.24429706  0.07804069  1
  Te  Te136  1  0.57292170  0.26458553  0.41646201  1
  Te  Te137  1  0.56620174  0.22713271  0.75385573  1
  Te  Te138  1  0.60528796  0.53626362  0.09458266  1
  Te  Te139  1  0.60438014  0.62389864  0.38158950  1
  Te  Te140  1  0.57594918  0.57370096  0.74789685  1
  Te  Te141  1  0.59158056  0.90972499  0.07696896  1
  Te  Te142  1  0.57484324  0.91602947  0.41532445  1
  Te  Te143  1  0.57555686  0.92471568  0.76639646  1
  Te  Te144  1  0.91302474  0.24740904  0.09127458  1
  Te  Te145  1  0.91122937  0.25313940  0.42634052  1
  Te  Te146  1  0.92150977  0.23779271  0.74485122  1
  Te  Te147  1  0.91085328  0.58511990  0.08243017  1
  Te  Te148  1  0.93033837  0.59378048  0.40110604  1
  Te  Te149  1  0.92575053  0.58574221  0.73155078  1
  Te  Te150  1  0.91407716  0.91394946  0.08582517  1
  Te  Te151  1  0.95174219  0.87145045  0.44832429  1
  Te  Te152  1  0.89803210  0.92408783  0.75367163  1
  Te  Te153  1  0.26497486  0.06406185  0.26922640  1
  Te  Te154  1  0.26400913  0.08140802  0.54917128  1
  Te  Te155  1  0.27640843  0.11344959  0.90723136  1
  Te  Te156  1  0.24201166  0.40907111  0.23763689  1
  Te  Te157  1  0.27631731  0.37527418  0.55680411  1
  Te  Te158  1  0.24502748  0.40572279  0.92499784  1
  Te  Te159  1  0.25073213  0.75358274  0.25905281  1
  Te  Te160  1  0.24806902  0.74785181  0.58500723  1
  Te  Te161  1  0.23523989  0.75808312  0.88175706  1
  Te  Te162  1  0.58693826  0.09756348  0.24849088  1
  Te  Te163  1  0.57183070  0.09552035  0.58121980  1
  Te  Te164  1  0.56940708  0.06588135  0.92353385  1
  Te  Te165  1  0.58726325  0.42909457  0.24594138  1
  Te  Te166  1  0.58572646  0.41471555  0.57984696  1
  Te  Te167  1  0.52767327  0.38441649  0.92356629  1
  Te  Te168  1  0.57943897  0.73134702  0.26831834  1
  Te  Te169  1  0.57809665  0.75038672  0.59026563  1
  Te  Te170  1  0.59623259  0.75290872  0.90787008  1
  Te  Te171  1  0.92370925  0.06018906  0.27744058  1
  Te  Te172  1  0.90318516  0.06459745  0.56819858  1
  Te  Te173  1  0.92048521  0.08150613  0.89759901  1
  Te  Te174  1  0.92453708  0.41518902  0.24538034  1
  Te  Te175  1  0.90699524  0.40557536  0.56755454  1
  Te  Te176  1  0.93111758  0.43672631  0.89516388  1
  Te  Te177  1  0.91389420  0.76985796  0.27139275  1
  Te  Te178  1  0.91047549  0.74696507  0.53908725  1
  Te  Te179  1  0.90436597  0.77162575  0.91834279  1
