# generated using pymatgen
data_In2Te3
_symmetry_space_group_name_H-M   'P 1'
_cell_length_a   18.76463285
_cell_length_b   18.75951808
_cell_length_c   18.76484198
_cell_angle_alpha   90.02218752
_cell_angle_beta   89.95392592
_cell_angle_gamma   89.98121091
_symmetry_Int_Tables_number   1
_chemical_formula_structural   In2Te3
_chemical_formula_sum   'In72 Te108'
_cell_volume   6605.51166564
_cell_formula_units_Z   36
loop_
 _symmetry_equiv_pos_site_id
 _symmetry_equiv_pos_as_xyz
  1  'x, y, z'
loop_
 _atom_site_type_symbol
 _atom_site_label
 _atom_site_symmetry_multiplicity
 _atom_site_fract_x
 _atom_site_fract_y
 _atom_site_fract_z
 _atom_site_occupancy
  In  In0  1  0.48362023  -0.02672864  0.85112235  1
  In  In1  1  0.19256337  -0.02157355  0.83595830  1
  In  In2  1  0.33890858  0.14251061  0.15973555  1
  In  In3  1  0.50740490  0.16853938  0.02175445  1
  In  In4  1  0.81935996  0.37177029  0.48818261  1
  In  In5  1  -0.01633212  0.84324632  0.16080578  1
  In  In6  1  0.49893207  0.14339711  0.66253845  1
  In  In7  1  0.83053299  0.16329503  0.30244424  1
  In  In8  1  0.68491246  0.00863745  0.02560673  1
  In  In9  1  0.19141104  0.51506869  0.67990055  1
  In  In10  1  0.68576151  0.16131544  0.84080876  1
  In  In11  1  0.81665124  0.34271331  0.84477302  1
  In  In12  1  0.80442981  0.51309762  0.32112078  1
  In  In13  1  0.51383341  0.54478388  0.68886596  1
  In  In14  1  0.80480273  0.67414087  0.48804533  1
  In  In15  1  0.14686967  0.32310632  0.17538368  1
  In  In16  1  0.83607080  0.81152765  0.70070202  1
  In  In17  1  0.50614881  0.66824408  0.50065586  1
  In  In18  1  -0.01711289  0.68735642  0.31003211  1
  In  In19  1  0.66538253  0.69776222  0.00755079  1
  In  In20  1  -0.03481494  0.32458232  0.00290198  1
  In  In21  1  0.16265561  -0.02874090  0.48795078  1
  In  In22  1  0.18270740  0.16908483  0.29607853  1
  In  In23  1  0.66546374  0.49816323  0.48647381  1
  In  In24  1  0.16702274  0.53429815  0.32495929  1
  In  In25  1  0.50689559  -0.02173610  0.15904218  1
  In  In26  1  -0.00138942  0.16750445  0.49735745  1
  In  In27  1  0.33638741  0.82365243  0.50904300  1
  In  In28  1  0.65701871  0.82814134  0.50228504  1
  In  In29  1  0.19016857  0.67581975  0.84780914  1
  In  In30  1  0.01303382  0.49927685  0.49827663  1
  In  In31  1  0.81064357  0.32838748  0.14889823  1
  In  In32  1  0.18002221  0.84311892  0.34793265  1
  In  In33  1  0.81291120  0.50742735  0.66908069  1
  In  In34  1  0.34856922  0.53342066  0.17394906  1
  In  In35  1  0.16451127  0.49620817  -0.00698990  1
  In  In36  1  0.32163331  0.34208627  0.68725725  1
  In  In37  1  0.34210020  0.68501056  0.32231012  1
  In  In38  1  0.68385553  0.33885898  0.66861247  1
  In  In39  1  0.50662006  0.52028999  -0.00909447  1
  In  In40  1  0.50352332  0.00003162  0.48881048  1
  In  In41  1  -0.01002277  0.66033603  0.01167125  1
  In  In42  1  0.00774945  -0.01522609  0.68169537  1
  In  In43  1  0.00491653  0.82980144  0.85683877  1
  In  In44  1  0.51469396  0.34380250  0.85126443  1
  In  In45  1  0.36765040  0.15304043  0.48246268  1
  In  In46  1  0.67540211  -0.00016193  0.30136636  1
  In  In47  1  0.20322768  0.68961768  0.50510289  1
  In  In48  1  0.63475582  0.16815185  0.49757158  1
  In  In49  1  0.64769801  0.84736062  0.86276252  1
  In  In50  1  0.36651089  0.69448814  0.01461332  1
  In  In51  1  0.66111653  0.49273058  0.15859709  1
  In  In52  1  0.82201318  0.83332933  0.30652973  1
  In  In53  1  0.33103124  0.33715843  -0.01258856  1
  In  In54  1  0.34634835  0.34434193  0.33305561  1
  In  In55  1  0.15084728  0.68043133  0.17691608  1
  In  In56  1  0.16730712  0.14261001  0.68453326  1
  In  In57  1  0.17135629  0.34265723  0.84256848  1
  In  In58  1  -0.01427355  0.33686758  0.30316808  1
  In  In59  1  -0.01200369  0.31946344  0.70980026  1
  In  In60  1  0.16286812  0.13915941  -0.00648145  1
  In  In61  1  0.80849411  0.15857543  0.69284978  1
  In  In62  1  -0.01183917  0.67041241  0.68089718  1
  In  In63  1  0.33481173  -0.01932740  0.66552580  1
  In  In64  1  0.50308733  0.33431757  0.47786588  1
  In  In65  1  -0.01545281  0.01832998  -0.00084924  1
  In  In66  1  -0.00635740  0.01271110  0.29425272  1
  In  In67  1  0.17676949  0.34375814  0.51295442  1
  In  In68  1  0.83026098  -0.02018887  0.49797683  1
  In  In69  1  0.81745726  0.66038502  0.85819203  1
  In  In70  1  0.52278361  0.32655169  0.15560773  1
  In  In71  1  0.01851804  0.85956424  0.51719224  1
  Te  Te72  1  0.08497793  0.06969892  0.09730646  1
  Te  Te73  1  0.08682269  0.07745220  0.40670487  1
  Te  Te74  1  0.07419792  0.07753697  0.78351274  1
  Te  Te75  1  0.07001638  0.41271547  0.07930342  1
  Te  Te76  1  0.09025155  0.40346319  0.39792765  1
  Te  Te77  1  0.08503307  0.43230342  0.75367208  1
  Te  Te78  1  0.08462479  0.76637268  0.07202009  1
  Te  Te79  1  0.08443968  0.74045282  0.41530252  1
  Te  Te80  1  0.09135383  0.75362507  0.75612841  1
  Te  Te81  1  0.41069152  0.05721604  0.05815962  1
  Te  Te82  1  0.43791856  0.07659607  0.37928799  1
  Te  Te83  1  0.40628759  0.07740347  0.76149598  1
  Te  Te84  1  0.41421927  0.42429883  0.08204863  1
  Te  Te85  1  0.42512346  0.44056999  0.41161772  1
  Te  Te86  1  0.43235230  0.42572625  0.75273549  1
  Te  Te87  1  0.44408665  0.77850138  0.12120782  1
  Te  Te88  1  0.43619401  0.77101181  0.40558344  1
  Te  Te89  1  0.38011221  0.72017174  0.72718952  1
  Te  Te90  1  0.78345055  0.10055668  0.08929107  1
  Te  Te91  1  0.75216314  0.08199262  0.41731578  1
  Te  Te92  1  0.73556716  0.04875831  0.75798266  1
  Te  Te93  1  0.75698481  0.43653650  0.05701700  1
  Te  Te94  1  0.71850013  0.39833173  0.38024247  1
  Te  Te95  1  0.72172449  0.44204404  0.77389433  1
  Te  Te96  1  0.74556025  0.76276634  0.11565984  1
  Te  Te97  1  0.72188635  0.74757488  0.38452826  1
  Te  Te98  1  0.72310776  0.72548468  0.75620677  1
  Te  Te99  1  0.05035408  0.21792576  0.23168122  1
  Te  Te100  1  0.08939149  0.25555589  0.60243359  1
  Te  Te101  1  0.08458131  0.25484228  0.93072161  1
  Te  Te102  1  0.05504694  0.57046959  0.22788939  1
  Te  Te103  1  0.09431464  0.59759804  0.58804081  1
  Te  Te104  1  0.07819608  0.58909864  0.90699329  1
  Te  Te105  1  0.09559477  0.91567095  0.23850113  1
  Te  Te106  1  0.12259949  0.90439393  0.61927580  1
  Te  Te107  1  0.09527990  0.91984684  0.93788331  1
  Te  Te108  1  0.41787322  0.24807357  0.23863419  1
  Te  Te109  1  0.41367949  0.25434806  0.58917619  1
  Te  Te110  1  0.42224779  0.24021472  0.91380250  1
  Te  Te111  1  0.45283392  0.60154371  0.25806578  1
  Te  Te112  1  0.40994513  0.60463415  0.59889872  1
  Te  Te113  1  0.43414076  0.61725201  0.90273718  1
  Te  Te114  1  0.40541258  0.88939005  0.22289276  1
  Te  Te115  1  0.44201244  0.90264270  0.59013510  1
  Te  Te116  1  0.39184467  0.87931831  0.93554194  1
  Te  Te117  1  0.72738345  0.25201046  0.24649397  1
  Te  Te118  1  0.75671922  0.24636341  0.56869433  1
  Te  Te119  1  0.74244601  0.25414586  0.94107090  1
  Te  Te120  1  0.72593499  0.60396284  0.23621652  1
  Te  Te121  1  0.72152566  0.59907743  0.59053455  1
  Te  Te122  1  0.74852102  0.57935625  0.96338135  1
  Te  Te123  1  0.72249992  0.89047045  0.20687178  1
  Te  Te124  1  0.75468828  0.89835853  0.60038517  1
  Te  Te125  1  0.75862784  0.91593731  0.93254267  1
  Te  Te126  1  0.25039070  0.25156362  0.08514740  1
  Te  Te127  1  0.24894618  0.24589676  0.41819739  1
  Te  Te128  1  0.25475900  0.23420687  0.77200106  1
  Te  Te129  1  0.24616078  0.59628086  0.07937836  1
  Te  Te130  1  0.27380334  0.58182039  0.41940556  1
  Te  Te131  1  0.28858630  0.59645370  0.76319438  1
  Te  Te132  1  0.30438349  0.88078297  0.05427221  1
  Te  Te133  1  0.28656057  0.93350809  0.40968604  1
  Te  Te134  1  0.28783152  0.88221904  0.76878164  1
  Te  Te135  1  0.62031674  0.25352595  0.06839825  1
  Te  Te136  1  0.57206922  0.24084226  0.38685245  1
  Te  Te137  1  0.58460976  0.24561609  0.74256593  1
  Te  Te138  1  0.56669591  0.61144550  0.09810960  1
  Te  Te139  1  0.59049877  0.59309655  0.40283127  1
  Te  Te140  1  0.61245333  0.61304931  0.77182616  1
  Te  Te141  1  0.58969943  0.89944760  0.06202021  1
  Te  Te142  1  0.58870467  0.91345914  0.39404332  1
  Te  Te143  1  0.56496947  0.89987277  0.75136622  1
  Te  Te144  1  0.89208408  0.21801700  0.08008936  1
  Te  Te145  1  0.90704927  0.26095921  0.41274343  1
  Te  Te146  1  0.91063182  0.21706944  0.79430974  1
  Te  Te147  1  0.92059523  0.58217682  0.11388303  1
  Te  Te148  1  0.91012990  0.58326348  0.41597066  1
  Te  Te149  1  0.91026280  0.57434069  0.76749168  1
  Te  Te150  1  0.89657833  0.91576557  0.06474366  1
  Te  Te151  1  0.92691990  0.90750795  0.39582886  1
  Te  Te152  1  0.90771105  0.92045691  0.77829298  1
  Te  Te153  1  0.25209694  0.05230743  0.23918897  1
  Te  Te154  1  0.25610100  0.08575579  0.57309961  1
  Te  Te155  1  0.27112480  0.07334089  0.91898684  1
  Te  Te156  1  0.24729256  0.42498991  0.23853233  1
  Te  Te157  1  0.27621037  0.43847573  0.57580449  1
  Te  Te158  1  0.27320129  0.44490999  0.89692546  1
  Te  Te159  1  0.25759187  0.77481367  0.23262980  1
  Te  Te160  1  0.26815606  0.75481324  0.62873897  1
  Te  Te161  1  0.25243996  0.77249070  0.94834917  1
  Te  Te162  1  0.58501837  0.08752897  0.22592019  1
  Te  Te163  1  0.60298916  0.05555799  0.59478426  1
  Te  Te164  1  0.58075192  0.07517539  0.91854103  1
  Te  Te165  1  0.56218578  0.43125346  0.25128957  1
  Te  Te166  1  0.58029509  0.41871832  0.58877095  1
  Te  Te167  1  0.60328029  0.41911446  0.94121738  1
  Te  Te168  1  0.55331110  0.72341834  0.20952130  1
  Te  Te169  1  0.57133260  0.75909167  0.60045654  1
  Te  Te170  1  0.55699850  0.73447298  0.90786700  1
  Te  Te171  1  0.87114833  0.04694795  0.21305385  1
  Te  Te172  1  0.91800062  0.07276297  0.59235851  1
  Te  Te173  1  0.91717286  0.09402687  0.89222679  1
  Te  Te174  1  0.89713829  0.43132184  0.22733615  1
  Te  Te175  1  0.91999103  0.41359778  0.59920951  1
  Te  Te176  1  0.91708644  0.42912371  0.91067384  1
  Te  Te177  1  0.88433860  0.72165632  0.19492186  1
  Te  Te178  1  0.91177671  0.75041159  0.57134204  1
  Te  Te179  1  0.89680841  0.76080092  0.94113952  1
