# generated using pymatgen
data_In2Te3
_symmetry_space_group_name_H-M   'P 1'
_cell_length_a   18.77306137
_cell_length_b   18.77862297
_cell_length_c   18.78064890
_cell_angle_alpha   89.93495043
_cell_angle_beta   89.99363126
_cell_angle_gamma   89.97130684
_symmetry_Int_Tables_number   1
_chemical_formula_structural   In2Te3
_chemical_formula_sum   'In72 Te108'
_cell_volume   6620.77911178
_cell_formula_units_Z   36
loop_
 _symmetry_equiv_pos_site_id
 _symmetry_equiv_pos_as_xyz
  1  'x, y, z'
loop_
 _atom_site_type_symbol
 _atom_site_label
 _atom_site_symmetry_multiplicity
 _atom_site_fract_x
 _atom_site_fract_y
 _atom_site_fract_z
 _atom_site_occupancy
  In  In0  1  0.63065761  0.68446238  0.63670778  1
  In  In1  1  0.18431780  0.33883876  0.82476449  1
  In  In2  1  0.48897338  0.00190985  0.46283710  1
  In  In3  1  0.82767616  0.35175460  0.46645888  1
  In  In4  1  0.18021548  0.01244520  0.18425907  1
  In  In5  1  0.18244530  0.64344533  0.47218612  1
  In  In6  1  0.82619385  0.33314760  0.84026412  1
  In  In7  1  0.02447719  0.83119813  0.17384945  1
  In  In8  1  0.66038166  0.17503054  0.48979616  1
  In  In9  1  0.83793503  0.85874809  0.65964982  1
  In  In10  1  0.65991540  0.31386125  0.67990468  1
  In  In11  1  0.65922591  0.83490114  0.16783436  1
  In  In12  1  0.65707820  0.67454049  0.34011607  1
  In  In13  1  0.33222522  0.33602347  0.61761287  1
  In  In14  1  0.83191121  -0.00677531  0.82064758  1
  In  In15  1  0.81030353  0.32426693  0.18569331  1
  In  In16  1  0.35104485  0.82479671  0.47401751  1
  In  In17  1  0.34024427  0.66379446  0.65672200  1
  In  In18  1  0.66271548  0.50405717  0.48598546  1
  In  In19  1  0.47510880  0.33988525  0.46777195  1
  In  In20  1  0.00471838  0.67020598  0.65979775  1
  In  In21  1  0.64936656  0.17107096  0.20020941  1
  In  In22  1  0.84011284  0.66525661  0.83697414  1
  In  In23  1  -0.02677548  0.00377153  0.67053167  1
  In  In24  1  0.33058275  0.51868739  0.83639073  1
  In  In25  1  0.02646595  0.34618305  0.35819848  1
  In  In26  1  0.17764636  0.66771233  0.18100309  1
  In  In27  1  0.18014670  0.17206618  0.00272761  1
  In  In28  1  0.49247148  0.00518337  0.18559378  1
  In  In29  1  0.82530411  0.12707170  0.64465451  1
  In  In30  1  0.50932305  0.33863564  0.83441349  1
  In  In31  1  0.01634258  0.34095317  0.01710333  1
  In  In32  1  0.19429439  0.49567333  0.64952674  1
  In  In33  1  0.81765986  0.16605877  -0.00748965  1
  In  In34  1  0.18247682  -0.00758252  0.48472836  1
  In  In35  1  0.02398993  -0.04425669  -0.02398188  1
  In  In36  1  0.82633055  0.00104060  0.18486732  1
  In  In37  1  0.36100656  0.19419028  0.19613539  1
  In  In38  1  0.49716704  0.83761000  0.01395057  1
  In  In39  1  0.67809403  0.84616866  0.82655606  1
  In  In40  1  0.03955988  0.54262316  0.86193424  1
  In  In41  1  0.34658633  0.36725777  0.01822038  1
  In  In42  1  0.47814420  0.66637662  0.83108285  1
  In  In43  1  0.00067978  0.65520712  0.33530674  1
  In  In44  1  0.01601751  0.32895129  0.64226044  1
  In  In45  1  0.50855676  0.16426678  -0.00527540  1
  In  In46  1  0.66392603  0.65880267  0.01610919  1
  In  In47  1  -0.00060599  0.15673379  0.80152080  1
  In  In48  1  0.83241906  0.82364914  -0.00502485  1
  In  In49  1  -0.00835305  0.14592392  0.18266456  1
  In  In50  1  0.82235872  0.82892813  0.33421685  1
  In  In51  1  0.65979779  -0.00620922  0.65272009  1
  In  In52  1  0.32532380  -0.02246563  0.00900181  1
  In  In53  1  0.66849447  0.35030729  0.00967855  1
  In  In54  1  0.00505822  0.81644569  0.49834896  1
  In  In55  1  0.82278096  0.48200983  0.65921786  1
  In  In56  1  0.16759613  0.14743124  0.63444971  1
  In  In57  1  0.19461406  0.18720075  0.35062176  1
  In  In58  1  0.49009091  -0.00844431  0.83225107  1
  In  In59  1  0.16708333  0.37254713  0.18201572  1
  In  In60  1  0.33173558  0.14667330  0.83459744  1
  In  In61  1  0.83563835  0.49550308  0.01573751  1
  In  In62  1  0.32966930  0.84363052  0.18784728  1
  In  In63  1  -0.00955965  0.52466168  0.17047598  1
  In  In64  1  0.16904508  0.83161357  0.68434454  1
  In  In65  1  0.31292149  -0.00184616  0.64994996  1
  In  In66  1  0.83025848  0.51447109  0.32921079  1
  In  In67  1  0.49443205  0.51179898  0.65474471  1
  In  In68  1  0.31724593  0.67341941  -0.01627490  1
  In  In69  1  0.33924692  0.48873012  0.19922341  1
  In  In70  1  0.83228554  0.00601081  0.50556253  1
  In  In71  1  0.51108092  0.66053949  0.18952814  1
  Te  Te72  1  0.07986803  0.07935340  0.07424944  1
  Te  Te73  1  0.10222115  0.08059101  0.39615476  1
  Te  Te74  1  0.10071446  0.06177839  0.74340808  1
  Te  Te75  1  0.09357859  0.45548124  0.07594661  1
  Te  Te76  1  0.10631667  0.44519000  0.42936263  1
  Te  Te77  1  0.08608451  0.42344072  0.74342150  1
  Te  Te78  1  0.08122933  0.72792856  0.08160848  1
  Te  Te79  1  0.09992627  0.75236014  0.39919555  1
  Te  Te80  1  0.07421601  0.74802832  0.76329843  1
  Te  Te81  1  0.40103332  0.08994542  0.08090207  1
  Te  Te82  1  0.38366222  0.09002233  0.40631915  1
  Te  Te83  1  0.41987484  0.08262617  0.73143535  1
  Te  Te84  1  0.44776646  0.41646208  0.11832815  1
  Te  Te85  1  0.39325878  0.45055633  0.41304719  1
  Te  Te86  1  0.40111646  0.41839988  0.74244694  1
  Te  Te87  1  0.40999808  0.74223207  0.09319937  1
  Te  Te88  1  0.44033655  0.70814166  0.44765901  1
  Te  Te89  1  0.41859029  0.76066478  0.73584696  1
  Te  Te90  1  0.73782762  0.09183777  0.09685273  1
  Te  Te91  1  0.74416367  0.08027099  0.41222091  1
  Te  Te92  1  0.72997734  0.08631339  0.75501471  1
  Te  Te93  1  0.73562388  0.43756026  0.11763817  1
  Te  Te94  1  0.72181960  0.41440181  0.37685700  1
  Te  Te95  1  0.72839047  0.42306265  0.76393268  1
  Te  Te96  1  0.75989754  0.74172852  0.10179482  1
  Te  Te97  1  0.75806817  0.73587190  0.42921240  1
  Te  Te98  1  0.75145917  0.74649296  0.73664492  1
  Te  Te99  1  0.09372207  0.24697141  0.23855544  1
  Te  Te100  1  0.08173435  0.23419017  0.55012784  1
  Te  Te101  1  0.08020677  0.24715641  0.90513345  1
  Te  Te102  1  0.10284693  0.56314368  0.26737251  1
  Te  Te103  1  0.08691635  0.57600797  0.57188450  1
  Te  Te104  1  0.12326837  0.63326860  0.94338767  1
  Te  Te105  1  0.08449012  0.93253577  0.26344853  1
  Te  Te106  1  0.07817515  0.92029833  0.58497838  1
  Te  Te107  1  0.12701468  0.88035209  0.90659689  1
  Te  Te108  1  0.44660474  0.28358082  0.28989250  1
  Te  Te109  1  0.44126250  0.24607174  0.57775557  1
  Te  Te110  1  0.39645853  0.25588751  0.92227546  1
  Te  Te111  1  0.40209528  0.60253738  0.27563512  1
  Te  Te112  1  0.39218852  0.56274545  0.55703874  1
  Te  Te113  1  0.42870310  0.57324597  0.94033715  1
  Te  Te114  1  0.43379746  0.90231370  0.27784539  1
  Te  Te115  1  0.41735198  0.91782613  0.57410605  1
  Te  Te116  1  0.40072685  0.89094351  0.90843612  1
  Te  Te117  1  0.76260028  0.22470402  0.28302610  1
  Te  Te118  1  0.76344195  0.25880468  0.57820825  1
  Te  Te119  1  0.72013009  0.24603271  0.90733898  1
  Te  Te120  1  0.73841343  0.59326877  0.24505111  1
  Te  Te121  1  0.74136984  0.58864082  0.58543576  1
  Te  Te122  1  0.74669597  0.57490134  0.91763374  1
  Te  Te123  1  0.72261243  0.92825802  0.27117180  1
  Te  Te124  1  0.72921917  0.89730974  0.55562639  1
  Te  Te125  1  0.74582391  0.93281994  0.93280682  1
  Te  Te126  1  0.25554190  0.26592373  0.09620306  1
  Te  Te127  1  0.27068402  0.27516577  0.44270694  1
  Te  Te128  1  0.25115514  0.23953622  0.73180206  1
  Te  Te129  1  0.26757482  0.57907756  0.09365128  1
  Te  Te130  1  0.29162457  0.56935685  0.40194710  1
  Te  Te131  1  0.23512064  0.60103621  0.75245264  1
  Te  Te132  1  0.22508439  0.89741098  0.09011021  1
  Te  Te133  1  0.25119981  0.89825641  0.39263160  1
  Te  Te134  1  0.26766551  0.91124285  0.76087366  1
  Te  Te135  1  0.57823336  0.25691578  0.09406739  1
  Te  Te136  1  0.57537829  0.25389365  0.39258812  1
  Te  Te137  1  0.56249637  0.22965582  0.75187724  1
  Te  Te138  1  0.57891721  0.56900807  0.09611413  1
  Te  Te139  1  0.56219623  0.57820016  0.40584211  1
  Te  Te140  1  0.58463446  0.59127276  0.74977551  1
  Te  Te141  1  0.58572769  0.93896539  0.08221524  1
  Te  Te142  1  0.59412619  0.89724401  0.45621785  1
  Te  Te143  1  0.57042535  0.89993448  0.73361116  1
  Te  Te144  1  0.91089251  0.24951040  0.08419889  1
  Te  Te145  1  0.92110735  0.25418934  0.40579004  1
  Te  Te146  1  0.90403850  0.25449394  0.73349028  1
  Te  Te147  1  0.91589643  0.60565563  0.07196230  1
  Te  Te148  1  0.91251843  0.58327194  0.42944793  1
  Te  Te149  1  0.91958692  0.56565456  0.74660500  1
  Te  Te150  1  0.91802258  0.92238457  0.08840758  1
  Te  Te151  1  0.92015147  0.91397696  0.41774737  1
  Te  Te152  1  0.93580901  0.89322750  0.77123397  1
  Te  Te153  1  0.29194113  0.07903964  0.27669382  1
  Te  Te154  1  0.28555679  0.10152024  0.53849875  1
  Te  Te155  1  0.23471407  0.06083630  0.91384341  1
  Te  Te156  1  0.27124891  0.38673855  0.28772440  1
  Te  Te157  1  0.21449214  0.39267159  0.53236288  1
  Te  Te158  1  0.23981215  0.43420725  0.92873390  1
  Te  Te159  1  0.25800650  0.74913739  0.27769607  1
  Te  Te160  1  0.23914464  0.75174123  0.57233917  1
  Te  Te161  1  0.22018862  0.75231226  0.90442855  1
  Te  Te162  1  0.56129323  0.08723713  0.28738393  1
  Te  Te163  1  0.56981103  0.08402645  0.57147859  1
  Te  Te164  1  0.58569145  0.06591776  0.91733654  1
  Te  Te165  1  0.54056064  0.38652995  0.24255554  1
  Te  Te166  1  0.58338363  0.40873091  0.58252373  1
  Te  Te167  1  0.57715086  0.43133837  0.92505824  1
  Te  Te168  1  0.55868395  0.78261180  0.26914467  1
  Te  Te169  1  0.55354081  0.76228907  0.53265885  1
  Te  Te170  1  0.58856868  0.75692707  0.91769405  1
  Te  Te171  1  0.90925582  0.07655304  0.28242709  1
  Te  Te172  1  0.94600363  0.10188852  0.55737620  1
  Te  Te173  1  0.92246090  0.08315628  0.91425355  1
  Te  Te174  1  0.92709901  0.40723184  0.24661926  1
  Te  Te175  1  0.92514367  0.42361718  0.56224120  1
  Te  Te176  1  0.92998480  0.41896247  0.91234132  1
  Te  Te177  1  0.91787881  0.74702776  0.24545536  1
  Te  Te178  1  0.89865435  0.74237996  0.57751777  1
  Te  Te179  1  0.93179736  0.75090091  0.91436657  1
