# generated using pymatgen
data_In2Te3
_symmetry_space_group_name_H-M   'P 1'
_cell_length_a   18.94470817
_cell_length_b   19.01281327
_cell_length_c   18.93728385
_cell_angle_alpha   89.96582507
_cell_angle_beta   90.29507484
_cell_angle_gamma   89.62019288
_symmetry_Int_Tables_number   1
_chemical_formula_structural   In2Te3
_chemical_formula_sum   'In72 Te108'
_cell_volume   6820.82023349
_cell_formula_units_Z   36
loop_
 _symmetry_equiv_pos_site_id
 _symmetry_equiv_pos_as_xyz
  1  'x, y, z'
loop_
 _atom_site_type_symbol
 _atom_site_label
 _atom_site_symmetry_multiplicity
 _atom_site_fract_x
 _atom_site_fract_y
 _atom_site_fract_z
 _atom_site_occupancy
  In  In0  1  0.13214909  0.65680627  0.17365821  1
  In  In1  1  0.67677275  0.15677204  0.51211367  1
  In  In2  1  0.34512622  -0.01600888  0.67308550  1
  In  In3  1  0.56716689  0.83081531  -0.03810716  1
  In  In4  1  0.67895829  0.16898033  0.84030998  1
  In  In5  1  0.09438347  0.43087672  0.87219116  1
  In  In6  1  0.34448894  0.15306374  0.52219701  1
  In  In7  1  0.72884221  0.82402624  0.56181446  1
  In  In8  1  0.70652512  0.00287928  -0.01528607  1
  In  In9  1  0.51343537  0.66229107  0.17525546  1
  In  In10  1  0.18375136  0.80935137  0.35183020  1
  In  In11  1  0.35224039  -0.01523577  -0.02137275  1
  In  In12  1  0.27361146  0.36023331  0.00471512  1
  In  In13  1  0.14804781  0.01138868  0.82887763  1
  In  In14  1  0.30388000  0.51050893  0.17400864  1
  In  In15  1  0.48494374  0.29363833  0.16226760  1
  In  In16  1  0.53371403  0.82424646  0.37912511  1
  In  In17  1  0.82205314  0.34665360  0.53554030  1
  In  In18  1  0.89982019  0.44572911  0.70982555  1
  In  In19  1  0.84444533  0.33428373  0.13117398  1
  In  In20  1  0.36226844  0.83223603  0.51758793  1
  In  In21  1  0.67348876  0.66835472  0.34210615  1
  In  In22  1  0.84319336  0.15666894  0.66999187  1
  In  In23  1  0.32603010  0.20848094  0.15886802  1
  In  In24  1  0.64225950  0.47307960  0.52600777  1
  In  In25  1  0.32477805  0.65379941  0.64903122  1
  In  In26  1  0.51984642  0.15824227  0.37018564  1
  In  In27  1  0.88039383  0.66866581  0.12685498  1
  In  In28  1  0.16141974  0.19145196  0.31469163  1
  In  In29  1  0.82951061  0.51088164  0.34536517  1
  In  In30  1  -0.01578627  0.83854415  0.17772820  1
  In  In31  1  0.73175578  0.62530668  0.71976002  1
  In  In32  1  0.33750163  0.80737247  0.82880143  1
  In  In33  1  0.33260258  0.66720805  0.03688380  1
  In  In34  1  0.33366155  0.02525970  0.33639825  1
  In  In35  1  -0.02522102  0.82386649  0.52381259  1
  In  In36  1  0.14282328  -0.02619603  0.51985131  1
  In  In37  1  -0.01779119  0.35763807  0.35120538  1
  In  In38  1  0.84664278  0.16051690  0.31277924  1
  In  In39  1  0.32142091  0.34583423  0.36803104  1
  In  In40  1  0.45132407  0.34176766  0.82373760  1
  In  In41  1  0.65597083  0.28769687  0.35586900  1
  In  In42  1  -0.01532428  0.18353238  0.83638329  1
  In  In43  1  0.47522308  0.49886706  0.00061754  1
  In  In44  1  0.84921672  0.65080486  0.50566030  1
  In  In45  1  0.66385811  -0.01677565  0.32033695  1
  In  In46  1  0.49312040  0.67130045  0.52179517  1
  In  In47  1  0.13155767  0.01578636  0.13413898  1
  In  In48  1  0.68910051  0.34978064  -0.03792193  1
  In  In49  1  -0.02288123  0.19734155  0.11455386  1
  In  In50  1  0.49110787  0.47563248  0.34777368  1
  In  In51  1  0.83115148  0.82152520  -0.01360697  1
  In  In52  1  0.15845677  0.86753494  -0.01593530  1
  In  In53  1  0.64587773  0.47543949  0.14962585  1
  In  In54  1  0.33225853  0.14837047  0.83061079  1
  In  In55  1  0.50427936  -0.01510112  0.13964184  1
  In  In56  1  0.14346409  0.17883294  0.67636425  1
  In  In57  1  0.49536474  0.18388455  0.65955723  1
  In  In58  1  0.00186583  0.16270538  0.50285157  1
  In  In59  1  0.50199014  0.18096059  -0.01776569  1
  In  In60  1  0.15303377  0.52180149  0.37013662  1
  In  In61  1  0.56058131  0.83718276  0.70900465  1
  In  In62  1  0.00102048  0.68006826  -0.03112782  1
  In  In63  1  0.27048005  0.37882004  0.69879336  1
  In  In64  1  0.34262033  0.83356792  0.18796251  1
  In  In65  1  -0.02070721  0.80758806  0.80461608  1
  In  In66  1  0.15234156  0.66788386  0.52835352  1
  In  In67  1  0.12373284  0.36480863  0.15018883  1
  In  In68  1  0.52863023  0.65400496  0.83178785  1
  In  In69  1  0.01034116  -0.02754384  0.34579745  1
  In  In70  1  0.82820431  0.01601909  0.15004461  1
  In  In71  1  0.68394298  0.13854261  0.14158193  1
  Te  Te72  1  0.04246645  0.08797709  0.03586564  1
  Te  Te73  1  0.10129972  0.07965785  0.40969650  1
  Te  Te74  1  0.04896945  0.07878922  0.73724847  1
  Te  Te75  1  0.05408430  0.43849503  0.04184488  1
  Te  Te76  1  0.10304010  0.39491217  0.42606702  1
  Te  Te77  1  0.12279787  0.41879243  0.71976450  1
  Te  Te78  1  0.08264094  0.76774245  0.07395956  1
  Te  Te79  1  0.07035905  0.74794096  0.42371130  1
  Te  Te80  1  0.10533814  0.73148631  0.78160830  1
  Te  Te81  1  0.41478896  0.09143219  0.07820275  1
  Te  Te82  1  0.43581704  0.05783957  0.44612427  1
  Te  Te83  1  0.43539128  0.07201363  0.75690717  1
  Te  Te84  1  0.40239326  0.41186374  0.10054796  1
  Te  Te85  1  0.39192707  0.44306197  0.45150752  1
  Te  Te86  1  0.38037030  0.45416936  0.76295597  1
  Te  Te87  1  0.43685630  0.76545213  0.08895968  1
  Te  Te88  1  0.41410525  0.74023518  0.40799929  1
  Te  Te89  1  0.43389765  0.73688761  0.73615405  1
  Te  Te90  1  0.79541179  0.12435995  0.03354970  1
  Te  Te91  1  0.74880298  0.08470296  0.39938753  1
  Te  Te92  1  0.75183301  0.07226638  0.75427496  1
  Te  Te93  1  0.76187392  0.44283908  0.05745302  1
  Te  Te94  1  0.73687009  0.40633053  0.41390707  1
  Te  Te95  1  0.75860259  0.41384179  0.75703429  1
  Te  Te96  1  0.75847104  0.73137701  0.07584189  1
  Te  Te97  1  0.76500165  0.74993816  0.42766302  1
  Te  Te98  1  0.78954402  0.76301406  0.69063423  1
  Te  Te99  1  0.04432292  0.25814360  0.24253524  1
  Te  Te100  1  0.06472268  0.26404697  0.58614962  1
  Te  Te101  1  0.06846256  0.28528868  0.90656860  1
  Te  Te102  1  0.06696294  0.55629478  0.25568777  1
  Te  Te103  1  0.12122580  0.55585269  0.62679197  1
  Te  Te104  1  0.07191575  0.59435001  0.86398210  1
  Te  Te105  1  0.11104492  0.90588024  0.24985953  1
  Te  Te106  1  0.06034946  0.90436949  0.61571830  1
  Te  Te107  1  0.04878897  0.91617687  0.89307616  1
  Te  Te108  1  0.40971140  0.23899675  0.28937786  1
  Te  Te109  1  0.37401656  0.26146474  0.61801684  1
  Te  Te110  1  0.38120408  0.26290136  0.93897179  1
  Te  Te111  1  0.41885998  0.57356156  0.25267701  1
  Te  Te112  1  0.42432027  0.56194738  0.58987952  1
  Te  Te113  1  0.40868056  0.60736100  0.91962091  1
  Te  Te114  1  0.43201153  0.92927813  0.26519701  1
  Te  Te115  1  0.45677364  0.90381790  0.60978845  1
  Te  Te116  1  0.44510735  0.89560995  0.89838232  1
  Te  Te117  1  0.75508186  0.25035409  0.23012936  1
  Te  Te118  1  0.73326049  0.25356501  0.61239026  1
  Te  Te119  1  0.77444020  0.28188046  0.86224217  1
  Te  Te120  1  0.72782394  0.56694283  0.24472017  1
  Te  Te121  1  0.74863652  0.56272019  0.58042816  1
  Te  Te122  1  0.73074877  0.53593210  0.84504782  1
  Te  Te123  1  0.76547833  0.91780068  0.23870162  1
  Te  Te124  1  0.80374915  0.94787040  0.59695989  1
  Te  Te125  1  0.76536915  0.91106104  0.88217580  1
  Te  Te126  1  0.20122675  0.25266488  0.07983080  1
  Te  Te127  1  0.24489987  0.23345340  0.43432722  1
  Te  Te128  1  0.23335165  0.24724691  0.77620249  1
  Te  Te129  1  0.21510557  0.57749163  0.07135447  1
  Te  Te130  1  0.24989044  0.60914709  0.43364161  1
  Te  Te131  1  0.21616202  0.62663885  0.74494003  1
  Te  Te132  1  0.26457062  0.92171730  0.08979119  1
  Te  Te133  1  0.26132386  0.92288276  0.42626789  1
  Te  Te134  1  0.24868527  0.91272776  0.76464806  1
  Te  Te135  1  0.60544320  0.25571422  0.06487114  1
  Te  Te136  1  0.54559315  0.27880149  0.46209642  1
  Te  Te137  1  0.56458496  0.25300812  0.77485226  1
  Te  Te138  1  0.58324388  0.58562655  0.06432768  1
  Te  Te139  1  0.58046719  0.58041943  0.42240266  1
  Te  Te140  1  0.59589245  0.56255425  0.73572577  1
  Te  Te141  1  0.62082653  0.91316888  0.07758666  1
  Te  Te142  1  0.62671349  0.91347088  0.44747027  1
  Te  Te143  1  0.65754925  0.92966478  0.76811856  1
  Te  Te144  1  0.94268911  0.31018247  0.02048846  1
  Te  Te145  1  0.89170088  0.25234322  0.42601967  1
  Te  Te146  1  0.92908749  0.26510079  0.72409866  1
  Te  Te147  1  0.95278556  0.56347189  0.05160908  1
  Te  Te148  1  0.93943617  0.55866139  0.43196261  1
  Te  Te149  1  0.94928772  0.57620617  0.76749824  1
  Te  Te150  1  0.91470553  0.91748330  0.06973510  1
  Te  Te151  1  0.90625652  0.90365070  0.41814749  1
  Te  Te152  1  0.89061417  0.88936672  0.71142758  1
  Te  Te153  1  0.24123431  0.09015918  0.23202099  1
  Te  Te154  1  0.23740334  0.07033694  0.60309293  1
  Te  Te155  1  0.24136537  0.07847541  0.92978744  1
  Te  Te156  1  0.23809879  0.39792014  0.24841760  1
  Te  Te157  1  0.21416318  0.44694517  0.57701600  1
  Te  Te158  1  0.23856300  0.45759046  0.90310700  1
  Te  Te159  1  0.25207393  0.72702410  0.24406773  1
  Te  Te160  1  0.24700571  0.77488222  0.59170718  1
  Te  Te161  1  0.24913339  0.75404042  0.93886551  1
  Te  Te162  1  0.57632805  0.09277458  0.24007278  1
  Te  Te163  1  0.58170101  0.08438573  0.59416703  1
  Te  Te164  1  0.58527875  0.07385064  0.92042300  1
  Te  Te165  1  0.57672384  0.38814682  0.25419713  1
  Te  Te166  1  0.56649878  0.36635691  0.58628400  1
  Te  Te167  1  0.55992369  0.41354549  0.90989598  1
  Te  Te168  1  0.59540893  0.76500254  0.25402433  1
  Te  Te169  1  0.60199346  0.74308152  0.59674299  1
  Te  Te170  1  0.64111935  0.73583874  0.88032165  1
  Te  Te171  1  0.94331022  0.06869823  0.24261671  1
  Te  Te172  1  0.90392836  0.06955461  0.56198075  1
  Te  Te173  1  0.91070682  0.09929293  0.93116139  1
  Te  Te174  1  0.90259980  0.42530576  0.23976620  1
  Te  Te175  1  0.93042390  0.44176237  0.56386818  1
  Te  Te176  1  0.87958877  0.47645522  0.86052871  1
  Te  Te177  1  0.91943763  0.73201440  0.25234568  1
  Te  Te178  1  0.93309462  0.71113349  0.61269693  1
  Te  Te179  1  0.88175015  0.72052967  0.88350916  1
