# generated using pymatgen
data_In2Te3
_symmetry_space_group_name_H-M   'P 1'
_cell_length_a   19.07533267
_cell_length_b   19.03659949
_cell_length_c   19.08535856
_cell_angle_alpha   90.12566192
_cell_angle_beta   89.61525252
_cell_angle_gamma   89.78386618
_symmetry_Int_Tables_number   1
_chemical_formula_structural   In2Te3
_chemical_formula_sum   'In72 Te108'
_cell_volume   6930.23348371
_cell_formula_units_Z   36
loop_
 _symmetry_equiv_pos_site_id
 _symmetry_equiv_pos_as_xyz
  1  'x, y, z'
loop_
 _atom_site_type_symbol
 _atom_site_label
 _atom_site_symmetry_multiplicity
 _atom_site_fract_x
 _atom_site_fract_y
 _atom_site_fract_z
 _atom_site_occupancy
  In  In0  1  0.33075553  0.01515883  -0.03100207  1
  In  In1  1  -0.01039505  0.83619442  0.15870960  1
  In  In2  1  0.82548737  0.83161373  0.34793954  1
  In  In3  1  0.17483997  0.18664303  0.00214843  1
  In  In4  1  0.00644181  0.16655854  0.17123848  1
  In  In5  1  0.33753308  0.81588253  0.48738882  1
  In  In6  1  0.82817773  -0.00164072  0.49639807  1
  In  In7  1  0.32993051  0.51061306  0.81546839  1
  In  In8  1  0.01680342  0.18990447  0.50058273  1
  In  In9  1  -0.00136343  0.55819617  0.85035511  1
  In  In10  1  0.83835371  0.48835476  0.34660092  1
  In  In11  1  0.29900916  0.65814203  -0.00922484  1
  In  In12  1  0.50163769  0.83746747  0.03304236  1
  In  In13  1  0.69531077  0.32721324  0.32255208  1
  In  In14  1  0.49322238  0.33473185  0.83893852  1
  In  In15  1  0.15778396  -0.01440248  0.81068641  1
  In  In16  1  -0.02788200  0.50644640  0.16491600  1
  In  In17  1  0.03003689  0.47049366  0.50442620  1
  In  In18  1  0.65462913  0.49087989  0.15841566  1
  In  In19  1  0.83185686  0.50540875  0.01101636  1
  In  In20  1  0.66488881  0.67942800  0.68280128  1
  In  In21  1  0.66475560  0.80342118  0.53069144  1
  In  In22  1  0.30411040  0.81744953  0.16302019  1
  In  In23  1  0.81163044  0.15081791  0.28651812  1
  In  In24  1  0.48482943  0.52979725  0.30950558  1
  In  In25  1  0.50150757  0.02260257  0.81618782  1
  In  In26  1  0.47067711  0.48774481  0.03070127  1
  In  In27  1  -0.04360083  -0.01349280  0.01028549  1
  In  In28  1  0.34149308  0.01591900  0.31782233  1
  In  In29  1  0.48962796  0.69490013  0.83024158  1
  In  In30  1  0.03308887  0.66739542  0.32733018  1
  In  In31  1  0.66479258  0.87205206  0.86593315  1
  In  In32  1  0.33558306  0.55874419  0.48427830  1
  In  In33  1  0.33795976  0.86246359  0.80803255  1
  In  In34  1  0.49620019  0.01359400  0.16227801  1
  In  In35  1  0.83396575  0.14713887  0.68625478  1
  In  In36  1  0.83398975  0.47222825  0.68424792  1
  In  In37  1  0.16344341  -0.02155969  0.15426391  1
  In  In38  1  0.51483139  0.35940942  0.48615052  1
  In  In39  1  0.67107103  0.00083108  0.67317432  1
  In  In40  1  0.12332950  0.79797794  -0.03365937  1
  In  In41  1  -0.01751159  0.35391521  0.01408950  1
  In  In42  1  0.17348534  0.64155933  0.18976959  1
  In  In43  1  0.48412156  -0.05598282  0.44173815  1
  In  In44  1  0.15137473  0.18237444  0.33519183  1
  In  In45  1  0.63682007  0.34536561  0.66355447  1
  In  In46  1  0.01562988  0.67354049  0.66509319  1
  In  In47  1  0.66260832  0.17956313  0.87427925  1
  In  In48  1  0.20247621  0.81338604  0.33019763  1
  In  In49  1  0.18365778  0.49716037  0.66877634  1
  In  In50  1  0.46834321  0.17085354  0.66796951  1
  In  In51  1  0.15995842  0.39116856  0.85240936  1
  In  In52  1  0.85398319  0.80421288  0.69277257  1
  In  In53  1  -0.00055495  0.01764528  0.33575710  1
  In  In54  1  0.32442574  0.34366825  0.31095912  1
  In  In55  1  0.83769048  0.63454588  0.52552815  1
  In  In56  1  0.66749630  -0.01678693  0.30169823  1
  In  In57  1  0.65762425  0.50591707  0.84832139  1
  In  In58  1  0.00273885  0.34332071  0.32217419  1
  In  In59  1  0.51154565  0.20327991  0.02571317  1
  In  In60  1  0.84114264  0.30351779  0.48221293  1
  In  In61  1  0.31555414  0.20302065  0.16339459  1
  In  In62  1  0.64307047  0.67302153  0.31989738  1
  In  In63  1  0.65454808  0.63434639  0.01792949  1
  In  In64  1  0.81494423  0.14782434  0.01592388  1
  In  In65  1  0.82183841  0.66392152  0.15152573  1
  In  In66  1  0.02125334  -0.08245380  0.68353166  1
  In  In67  1  0.02426152  0.15918102  0.82247128  1
  In  In68  1  0.02339147  0.30206477  0.67170021  1
  In  In69  1  0.65318501  0.16571879  0.51707675  1
  In  In70  1  0.32333434  0.32158639  0.65968497  1
  In  In71  1  0.49169898  0.81399221  0.64034066  1
  Te  Te72  1  0.08413378  0.08022576  0.07315294  1
  Te  Te73  1  0.09562331  0.07745000  0.43409399  1
  Te  Te74  1  0.06906761  0.06424468  0.71635600  1
  Te  Te75  1  0.07501131  0.43880500  0.08532080  1
  Te  Te76  1  0.10634330  0.38228414  0.41695077  1
  Te  Te77  1  0.06563840  0.42940850  0.73814258  1
  Te  Te78  1  0.10059445  0.74741558  0.10664218  1
  Te  Te79  1  0.10485853  0.75057963  0.42388071  1
  Te  Te80  1  0.07293949  0.78545885  0.74497482  1
  Te  Te81  1  0.39117928  0.09168809  0.08367489  1
  Te  Te82  1  0.44097507  0.07820655  0.40382259  1
  Te  Te83  1  0.38602224  0.08205842  0.75174501  1
  Te  Te84  1  0.43438004  0.38433622  0.13104570  1
  Te  Te85  1  0.41012405  0.43390101  0.40678059  1
  Te  Te86  1  0.41985227  0.41744827  0.73859200  1
  Te  Te87  1  0.40005096  0.73652189  0.07840910  1
  Te  Te88  1  0.45579985  0.78154729  0.39855463  1
  Te  Te89  1  0.38974677  0.74202310  0.72793423  1
  Te  Te90  1  0.72308618  0.04490478  0.06558993  1
  Te  Te91  1  0.74836591  0.09744790  0.41620022  1
  Te  Te92  1  0.73821661  0.07908928  0.78078412  1
  Te  Te93  1  0.73587915  0.40799899  0.06687499  1
  Te  Te94  1  0.74764204  0.41335442  0.44034232  1
  Te  Te95  1  0.73200141  0.39985244  0.76879229  1
  Te  Te96  1  0.71072799  0.74102429  0.10016686  1
  Te  Te97  1  0.75466736  0.72198394  0.42842440  1
  Te  Te98  1  0.73961191  0.76405291  0.78146133  1
  Te  Te99  1  0.09781459  0.27218003  0.22549923  1
  Te  Te100  1  0.12592152  0.25304927  0.57746729  1
  Te  Te101  1  0.07408829  0.26895049  0.91677195  1
  Te  Te102  1  0.08479695  0.54200858  0.26279392  1
  Te  Te103  1  0.09913631  0.58313795  0.57531869  1
  Te  Te104  1  0.13619701  0.57249072  0.90050619  1
  Te  Te105  1  0.08364354  0.90789404  0.26140337  1
  Te  Te106  1  0.13173859  0.85510179  0.60394290  1
  Te  Te107  1  0.07063564  0.93161855  0.92285334  1
  Te  Te108  1  0.42722970  0.25823078  0.24110483  1
  Te  Te109  1  0.42381747  0.25960828  0.55738765  1
  Te  Te110  1  0.41939306  0.24121623  0.92147961  1
  Te  Te111  1  0.42918903  0.66936718  0.29232677  1
  Te  Te112  1  0.41731963  0.63128210  0.57761704  1
  Te  Te113  1  0.42201746  0.59001194  0.91823957  1
  Te  Te114  1  0.40199961  0.90945789  0.22725014  1
  Te  Te115  1  0.41297377  0.92125113  0.57400667  1
  Te  Te116  1  0.43631934  0.91206135  0.91766922  1
  Te  Te117  1  0.71851617  0.23401357  0.20577170  1
  Te  Te118  1  0.75014186  0.24872527  0.59871805  1
  Te  Te119  1  0.76519162  0.26063124  0.93523853  1
  Te  Te120  1  0.75390847  0.57221250  0.25275707  1
  Te  Te121  1  0.73716994  0.56398358  0.61036930  1
  Te  Te122  1  0.75848406  0.59572656  0.91387704  1
  Te  Te123  1  0.77438635  0.90887259  0.23670753  1
  Te  Te124  1  0.76442449  0.90588536  0.59923647  1
  Te  Te125  1  0.75394762  0.94076290  0.95775577  1
  Te  Te126  1  0.25313597  0.29130470  0.06551777  1
  Te  Te127  1  0.26255766  0.24625258  0.40253289  1
  Te  Te128  1  0.24024077  0.27902762  0.78222165  1
  Te  Te129  1  0.26766793  0.56453627  0.10164282  1
  Te  Te130  1  0.22360692  0.56000029  0.39387354  1
  Te  Te131  1  0.22181238  0.60198198  0.76747817  1
  Te  Te132  1  0.25572853  0.91310170  0.05495334  1
  Te  Te133  1  0.26003936  0.92666948  0.40909705  1
  Te  Te134  1  0.24858812  0.92332162  0.70982800  1
  Te  Te135  1  0.62419924  0.26896743  0.08688022  1
  Te  Te136  1  0.59478186  0.25353573  0.41135674  1
  Te  Te137  1  0.58101856  0.23216028  0.74927703  1
  Te  Te138  1  0.54644845  0.58800670  0.11438250  1
  Te  Te139  1  0.58768145  0.57047981  0.40588741  1
  Te  Te140  1  0.56984285  0.58782004  0.75760331  1
  Te  Te141  1  0.59893646  0.93080335  0.09202150  1
  Te  Te142  1  0.63028936  0.91641548  0.43499716  1
  Te  Te143  1  0.57285774  0.90109408  0.74209491  1
  Te  Te144  1  0.90983795  0.24590306  0.08987518  1
  Te  Te145  1  0.91959251  0.22448831  0.37858792  1
  Te  Te146  1  0.91371160  0.25024812  0.76054437  1
  Te  Te147  1  0.93015731  0.61084810  0.06282541  1
  Te  Te148  1  0.93544145  0.57176197  0.42532685  1
  Te  Te149  1  0.90505749  0.59406287  0.73695883  1
  Te  Te150  1  0.89979756  0.85618586  0.04511408  1
  Te  Te151  1  0.92896277  0.91349939  0.42237095  1
  Te  Te152  1  0.89987056  0.92126363  0.76454037  1
  Te  Te153  1  0.22926661  0.08618146  0.23685468  1
  Te  Te154  1  0.25256543  0.18687310  0.66609566  1
  Te  Te155  1  0.22883190  0.09440070  0.89464339  1
  Te  Te156  1  0.33164593  0.45708951  0.21146610  1
  Te  Te157  1  0.27934056  0.43835152  0.57166209  1
  Te  Te158  1  0.28217780  0.42388486  0.92443261  1
  Te  Te159  1  0.27054385  0.67415163  0.30786881  1
  Te  Te160  1  0.22540684  0.74480988  0.54920864  1
  Te  Te161  1  0.25589956  0.76832281  0.89796615  1
  Te  Te162  1  0.57710019  0.08792080  0.25845635  1
  Te  Te163  1  0.56574909  0.07225265  0.59427815  1
  Te  Te164  1  0.56312915  0.08529539  0.93558985  1
  Te  Te165  1  0.58723514  0.41739131  0.26923626  1
  Te  Te166  1  0.55914603  0.44604305  0.59504306  1
  Te  Te167  1  0.56945470  0.42019300  0.93627307  1
  Te  Te168  1  0.55921538  0.78494256  0.28088006  1
  Te  Te169  1  0.55864300  0.69658363  0.56596376  1
  Te  Te170  1  0.58774926  0.75035748  0.93047697  1
  Te  Te171  1  0.91143773  0.05778110  0.22041253  1
  Te  Te172  1  0.91568263  0.09654905  0.56995265  1
  Te  Te173  1  0.92046952  0.09478110  0.91393847  1
  Te  Te174  1  0.89148921  0.39940619  0.23676306  1
  Te  Te175  1  0.91791385  0.39723987  0.57772795  1
  Te  Te176  1  0.91948507  0.43903983  0.90711803  1
  Te  Te177  1  0.91632705  0.73385345  0.25753495  1
  Te  Te178  1  0.92270838  0.75001633  0.56945195  1
  Te  Te179  1  1.03543487  0.70233257  0.89179656  1
