# generated using pymatgen
data_In2Te3
_symmetry_space_group_name_H-M   'P 1'
_cell_length_a   18.80625613
_cell_length_b   18.80142169
_cell_length_c   18.79688110
_cell_angle_alpha   89.95312596
_cell_angle_beta   89.93961190
_cell_angle_gamma   90.00465607
_symmetry_Int_Tables_number   1
_chemical_formula_structural   In2Te3
_chemical_formula_sum   'In72 Te108'
_cell_volume   6646.27708178
_cell_formula_units_Z   36
loop_
 _symmetry_equiv_pos_site_id
 _symmetry_equiv_pos_as_xyz
  1  'x, y, z'
loop_
 _atom_site_type_symbol
 _atom_site_label
 _atom_site_symmetry_multiplicity
 _atom_site_fract_x
 _atom_site_fract_y
 _atom_site_fract_z
 _atom_site_occupancy
  In  In0  1  0.15893356  0.68029879  0.49271019  1
  In  In1  1  0.82587788  0.67111826  0.83225231  1
  In  In2  1  0.66766169  0.32851774  -0.01515755  1
  In  In3  1  0.81072092  -0.01511206  0.15001998  1
  In  In4  1  0.00738332  0.16297751  0.51187502  1
  In  In5  1  -0.01053955  0.66491581  -0.00887675  1
  In  In6  1  0.32193203  0.33069979  0.00575048  1
  In  In7  1  0.83703847  0.15729116  0.34421710  1
  In  In8  1  0.03150697  0.53235462  0.19127884  1
  In  In9  1  0.66315391  0.68445741  0.67528686  1
  In  In10  1  -0.00180149  0.69141664  0.65762254  1
  In  In11  1  0.82660778  0.01626046  0.50802971  1
  In  In12  1  -0.02765024  0.52792057  0.49482609  1
  In  In13  1  0.00649027  0.00648737  0.32762734  1
  In  In14  1  0.50827153  0.35478744  0.83444891  1
  In  In15  1  0.01165258  0.17461706  0.13792199  1
  In  In16  1  0.50677457  0.67389659  0.52610568  1
  In  In17  1  0.67063989  0.14464673  0.16391721  1
  In  In18  1  -0.00277014  0.31750455  -0.02357521  1
  In  In19  1  0.81103353  0.82003727  -0.00679990  1
  In  In20  1  0.83176194  0.49437687  -0.01609212  1
  In  In21  1  0.29598324  0.16693635  0.83580698  1
  In  In22  1  0.16061893  -0.01608876  0.51582856  1
  In  In23  1  0.67232206  0.16573048  0.85796211  1
  In  In24  1  0.69092183  0.15047711  0.50387929  1
  In  In25  1  0.51536879  -0.01555896  0.82764958  1
  In  In26  1  0.50543046  0.68093019  0.12990110  1
  In  In27  1  0.47642111  0.33866950  0.15688573  1
  In  In28  1  0.15092668  0.84239567  -0.00845855  1
  In  In29  1  0.50575303  0.67954415  0.85460843  1
  In  In30  1  0.85074318  -0.02524583  0.80858333  1
  In  In31  1  -0.00531699  0.82301754  0.18000005  1
  In  In32  1  0.00821029  0.01275260  -0.01245000  1
  In  In33  1  0.15174766  0.33638856  0.50428187  1
  In  In34  1  0.15837910  0.80184107  0.32586562  1
  In  In35  1  0.66302958  -0.02769227  0.67330241  1
  In  In36  1  0.33760021  0.33054979  0.33784289  1
  In  In37  1  0.84200348  0.49151107  0.67526091  1
  In  In38  1  0.68864545  0.33643676  0.68819810  1
  In  In39  1  0.16376272  0.83029059  0.67498604  1
  In  In40  1  0.69215764  0.49613512  0.52290939  1
  In  In41  1  0.02389773  0.16523467  0.82026475  1
  In  In42  1  0.86441655  0.33679131  0.16557999  1
  In  In43  1  0.30403324  0.02093845  0.29875156  1
  In  In44  1  0.49650818  0.51315344  0.32847442  1
  In  In45  1  0.68011576  0.34813187  0.35164107  1
  In  In46  1  0.47467146  0.14628948  0.00482098  1
  In  In47  1  0.51665610  0.14660510  0.29982069  1
  In  In48  1  0.36432091  0.85257150  0.49517285  1
  In  In49  1  0.14355875  0.47338407  0.69405973  1
  In  In50  1  0.16515679  0.31188656  0.14737240  1
  In  In51  1  0.82589849  0.68183238  0.18096128  1
  In  In52  1  0.31187331  0.14082700  0.51121160  1
  In  In53  1  0.49619093  -0.02059937  0.48162895  1
  In  In54  1  0.33500882  0.82543362  0.83620234  1
  In  In55  1  0.16215091  0.49419637  -0.00390442  1
  In  In56  1  0.30410405  0.68489523  0.31050048  1
  In  In57  1  0.84165322  0.19110403  0.68276272  1
  In  In58  1  0.33672129  0.32825392  0.68979074  1
  In  In59  1  0.53872801  0.34660214  0.51416544  1
  In  In60  1  0.00646460  0.33648095  0.32523429  1
  In  In61  1  0.66106068  0.53313415  0.15308227  1
  In  In62  1  0.31401917  0.65270945  0.68589271  1
  In  In63  1  0.83767098  0.83372997  0.32670600  1
  In  In64  1  0.31673985  -0.01280947  0.64653979  1
  In  In65  1  0.33991086  0.67151104  -0.00159720  1
  In  In66  1  0.47526619  0.16101807  0.66470497  1
  In  In67  1  0.32484779  -0.00032783  0.00020151  1
  In  In68  1  0.49383992  0.85226710  0.34004110  1
  In  In69  1  0.32023527  0.53561364  0.50327492  1
  In  In70  1  0.32230070  0.48364152  0.15164139  1
  In  In71  1  0.67665398  0.68298236  0.33711184  1
  Te  Te72  1  0.10251972  0.06551228  0.09298750  1
  Te  Te73  1  0.10072888  0.08580411  0.41770085  1
  Te  Te74  1  0.08748873  0.08186298  0.71671365  1
  Te  Te75  1  0.06222091  0.41263064  0.09297305  1
  Te  Te76  1  0.07599638  0.43500827  0.41694737  1
  Te  Te77  1  0.04009137  0.40012081  0.77266761  1
  Te  Te78  1  0.08133511  0.74002904  0.08663168  1
  Te  Te79  1  0.06466354  0.77965859  0.43844442  1
  Te  Te80  1  0.09688719  0.73053783  0.76047685  1
  Te  Te81  1  0.42745001  0.04482264  0.10146095  1
  Te  Te82  1  0.41160319  0.08454446  0.40787127  1
  Te  Te83  1  0.40286230  0.07117511  0.76303590  1
  Te  Te84  1  0.42620893  0.43463563  0.05032010  1
  Te  Te85  1  0.41634804  0.42824999  0.42789709  1
  Te  Te86  1  0.40887077  0.43512868  0.76057891  1
  Te  Te87  1  0.41285972  0.77877053  0.07182277  1
  Te  Te88  1  0.41408379  0.72694155  0.41257040  1
  Te  Te89  1  0.42096556  0.74788781  0.73883648  1
  Te  Te90  1  0.75368374  0.08580036  0.05791007  1
  Te  Te91  1  0.73058138  0.05869887  0.38988856  1
  Te  Te92  1  0.73997105  0.08747547  0.74266701  1
  Te  Te93  1  0.74897172  0.41229379  0.09623493  1
  Te  Te94  1  0.78014364  0.42091732  0.43037204  1
  Te  Te95  1  0.76625613  0.41912528  0.78326356  1
  Te  Te96  1  0.72214579  0.74336351  0.09057906  1
  Te  Te97  1  0.78350108  0.73441169  0.42933156  1
  Te  Te98  1  0.73802300  0.77622923  0.76969348  1
  Te  Te99  1  0.08962412  0.23090284  0.25760118  1
  Te  Te100  1  0.07589255  0.25723671  0.60302158  1
  Te  Te101  1  0.10444081  0.22712061  0.93016371  1
  Te  Te102  1  0.12051925  0.61668250  0.27235780  1
  Te  Te103  1  0.09407810  0.57905180  0.58623947  1
  Te  Te104  1  0.07622831  0.57779818  0.90774760  1
  Te  Te105  1  0.09489060  0.91994720  0.24172220  1
  Te  Te106  1  0.06068543  0.91084145  0.60011369  1
  Te  Te107  1  0.06617577  0.91477377  0.89380363  1
  Te  Te108  1  0.40447797  0.23320231  0.24016703  1
  Te  Te109  1  0.40797328  0.25406424  0.56549877  1
  Te  Te110  1  0.41854834  0.24676284  0.90370440  1
  Te  Te111  1  0.40642040  0.58753275  0.23187363  1
  Te  Te112  1  0.42540181  0.57368032  0.60597575  1
  Te  Te113  1  0.40322443  0.58137568  0.89932342  1
  Te  Te114  1  0.41204699  0.93232013  0.24509068  1
  Te  Te115  1  0.44297057  0.91096097  0.61261234  1
  Te  Te116  1  0.42755706  0.90671239  0.92546936  1
  Te  Te117  1  0.75699536  0.25288044  0.25047028  1
  Te  Te118  1  0.76198746  0.26436057  0.57301786  1
  Te  Te119  1  0.76948928  0.27401438  0.88983422  1
  Te  Te120  1  0.75275169  0.57094210  0.26613252  1
  Te  Te121  1  0.76842053  0.60292386  0.59720223  1
  Te  Te122  1  0.74513581  0.60349974  0.93769179  1
  Te  Te123  1  0.73610552  0.89174065  0.23702984  1
  Te  Te124  1  0.76401798  0.90442226  0.58648158  1
  Te  Te125  1  0.74827572  0.92734447  0.91008674  1
  Te  Te126  1  0.26820741  0.21783424  0.09051399  1
  Te  Te127  1  0.24168553  0.24355696  0.41950321  1
  Te  Te128  1  0.22060392  0.26529081  0.75504001  1
  Te  Te129  1  0.23754330  0.59052543  0.08705605  1
  Te  Te130  1  0.22643926  0.57575956  0.38827727  1
  Te  Te131  1  0.23284478  0.56336081  0.77110381  1
  Te  Te132  1  0.25029275  0.90072796  0.08668497  1
  Te  Te133  1  0.25438738  0.91830942  0.41184073  1
  Te  Te134  1  0.24294723  0.92529741  0.76515914  1
  Te  Te135  1  0.57467610  0.24641872  0.08194721  1
  Te  Te136  1  0.58223580  0.23748790  0.40740949  1
  Te  Te137  1  0.57911325  0.23656562  0.74669291  1
  Te  Te138  1  0.57047340  0.57687446  0.04664930  1
  Te  Te139  1  0.59269540  0.57724469  0.42805443  1
  Te  Te140  1  0.59253106  0.59457252  0.76854403  1
  Te  Te141  1  0.64217388  0.87201018  0.04142339  1
  Te  Te142  1  0.60343805  0.88621848  0.43570909  1
  Te  Te143  1  0.60907951  0.87686351  0.77863535  1
  Te  Te144  1  0.89639840  0.23450449  0.05721858  1
  Te  Te145  1  0.92061438  0.25522056  0.42304816  1
  Te  Te146  1  0.94230587  0.27740918  0.75344991  1
  Te  Te147  1  0.90635015  0.58264122  0.09357650  1
  Te  Te148  1  0.90812796  0.63455165  0.41592341  1
  Te  Te149  1  0.92775478  0.59169648  0.75227713  1
  Te  Te150  1  0.92099256  0.90654168  0.07471774  1
  Te  Te151  1  0.91848739  0.92475196  0.41945730  1
  Te  Te152  1  0.93672055  0.88973056  0.71787375  1
  Te  Te153  1  0.23006976  0.10422036  0.20161541  1
  Te  Te154  1  0.21100828  0.10032876  0.62152051  1
  Te  Te155  1  0.22098011  0.07421734  0.92248618  1
  Te  Te156  1  0.23691967  0.40443524  0.24940789  1
  Te  Te157  1  0.25321684  0.42372639  0.58393017  1
  Te  Te158  1  0.23471132  0.39879945  0.90922323  1
  Te  Te159  1  0.25754741  0.78728011  0.21379757  1
  Te  Te160  1  0.26566017  0.75634407  0.57300130  1
  Te  Te161  1  0.23406732  0.74036828  0.90998171  1
  Te  Te162  1  0.58805854  0.03906054  0.22784960  1
  Te  Te163  1  0.57828418  0.08061456  0.58098719  1
  Te  Te164  1  0.58600987  0.06663904  0.93597004  1
  Te  Te165  1  0.57781069  0.41226950  0.24574471  1
  Te  Te166  1  0.59265497  0.43705811  0.62380418  1
  Te  Te167  1  0.60812509  0.43749058  0.90392986  1
  Te  Te168  1  0.56981513  0.74943076  0.25198026  1
  Te  Te169  1  0.60423936  0.77519891  0.56906903  1
  Te  Te170  1  0.58658051  0.77753586  0.94380650  1
  Te  Te171  1  0.91346236  0.08543687  0.23283667  1
  Te  Te172  1  0.92032713  0.08279780  0.60908890  1
  Te  Te173  1  0.91124456  0.08562904  0.89511048  1
  Te  Te174  1  0.92181715  0.44406732  0.25837665  1
  Te  Te175  1  0.92661601  0.41670096  0.57973550  1
  Te  Te176  1  0.94774601  0.44024190  0.90299749  1
  Te  Te177  1  0.94154417  0.71679782  0.27764256  1
  Te  Te178  1  0.88675254  0.78188366  0.62130884  1
  Te  Te179  1  0.92408496  0.76875467  0.90168986  1
