# generated using pymatgen
data_In2Te3
_symmetry_space_group_name_H-M   'P 1'
_cell_length_a   18.82601332
_cell_length_b   18.82348750
_cell_length_c   18.83874023
_cell_angle_alpha   90.03132773
_cell_angle_beta   89.95902937
_cell_angle_gamma   90.05900769
_symmetry_Int_Tables_number   1
_chemical_formula_structural   In2Te3
_chemical_formula_sum   'In72 Te108'
_cell_volume   6675.90123516
_cell_formula_units_Z   36
loop_
 _symmetry_equiv_pos_site_id
 _symmetry_equiv_pos_as_xyz
  1  'x, y, z'
loop_
 _atom_site_type_symbol
 _atom_site_label
 _atom_site_symmetry_multiplicity
 _atom_site_fract_x
 _atom_site_fract_y
 _atom_site_fract_z
 _atom_site_occupancy
  In  In0  1  0.33711601  0.68931181  0.31277139  1
  In  In1  1  -0.01235680  0.18405611  0.51993794  1
  In  In2  1  0.01786651  0.65168903  -0.00910858  1
  In  In3  1  0.67155024  -0.01633519  0.65665360  1
  In  In4  1  0.69471383  0.46269147  0.52513921  1
  In  In5  1  0.17833232  0.65169569  0.17080402  1
  In  In6  1  0.66857058  0.18621403  0.83074184  1
  In  In7  1  0.84438438  0.67777157  0.15886337  1
  In  In8  1  0.51951094  0.15075004  0.33229602  1
  In  In9  1  0.83784285  0.64229375  0.81957677  1
  In  In10  1  0.00709364  0.32417211  0.33232993  1
  In  In11  1  0.15503469  0.19828138  -0.00400737  1
  In  In12  1  0.31668279  0.52459865  0.52394845  1
  In  In13  1  0.50437116  0.33018380  0.51926573  1
  In  In14  1  0.14115068  0.67834504  0.48626687  1
  In  In15  1  0.32351008  0.33390271  0.33018588  1
  In  In16  1  0.51354633  0.34325407  0.16513738  1
  In  In17  1  0.33539941  0.33868480  0.67926039  1
  In  In18  1  0.82803393  -0.00493202  0.81670251  1
  In  In19  1  0.47530068  0.64022639  0.48048029  1
  In  In20  1  0.33420457  -0.03402562  0.32342046  1
  In  In21  1  0.32273133  0.50575308  0.14488001  1
  In  In22  1  0.69693195  0.67497834  0.34837203  1
  In  In23  1  0.00085923  0.35114693  0.01580315  1
  In  In24  1  0.69928133  0.47226304  0.82342284  1
  In  In25  1  0.49832967  0.17776888  -0.01642908  1
  In  In26  1  0.68822660  0.02597877  0.03550541  1
  In  In27  1  0.50293674  0.66786255  0.84853351  1
  In  In28  1  0.82932030  0.32115742  0.18522271  1
  In  In29  1  0.17296057  0.84940670  0.66833592  1
  In  In30  1  0.46071894  0.69443762  0.13628100  1
  In  In31  1  0.84273328  0.83910370  0.66736800  1
  In  In32  1  0.83829566  0.50622503  -0.01440230  1
  In  In33  1  0.66131788  0.63308302  0.65695728  1
  In  In34  1  0.13403509  0.49855101  0.33824448  1
  In  In35  1  0.66275507  0.83596115  0.16769318  1
  In  In36  1  0.68598430  0.82429104  0.51921677  1
  In  In37  1  0.67792256  0.00361927  0.31505541  1
  In  In38  1  0.51179435  0.49171235  0.33865853  1
  In  In39  1  -0.01167317  0.17894880  0.83569092  1
  In  In40  1  0.16693264  0.00234642  0.82770484  1
  In  In41  1  -0.00236901  0.84603816  0.18694718  1
  In  In42  1  -0.00475162  0.64619779  0.67434822  1
  In  In43  1  0.16213492  0.50459942  0.66217273  1
  In  In44  1  0.85560482  0.48585551  0.35624688  1
  In  In45  1  0.31716084  0.17198887  0.14327318  1
  In  In46  1  0.49055752  0.50752995  -0.00346604  1
  In  In47  1  0.83525676  0.67984411  0.47830412  1
  In  In48  1  -0.00272413  -0.01153822  -0.00615954  1
  In  In49  1  0.50210687  0.83021987  0.32386209  1
  In  In50  1  0.49419169  0.31808722  0.83053812  1
  In  In51  1  -0.00112735  0.01539060  0.66191254  1
  In  In52  1  0.16733493  0.00590330  0.48296689  1
  In  In53  1  0.64653999  0.82491135  0.83115902  1
  In  In54  1  0.35871164  -0.01507955  -0.02484694  1
  In  In55  1  0.15625624  0.00139548  0.18067873  1
  In  In56  1  0.64868599  0.50246431  0.17259868  1
  In  In57  1  0.32135633  0.17544096  0.49988650  1
  In  In58  1  -0.02105235  0.16757885  0.18355658  1
  In  In59  1  0.16679005  0.65078774  0.84397363  1
  In  In60  1  0.49057214  0.84608300  0.65708897  1
  In  In61  1  0.33427057  0.01642238  0.67879112  1
  In  In62  1  0.32622957  0.17004936  0.82015809  1
  In  In63  1  0.18354923  0.83960142  0.00184533  1
  In  In64  1  0.84907811  0.82948142  -0.00021871  1
  In  In65  1  0.32520612  0.65504504  0.67329726  1
  In  In66  1  -0.00788011  0.33442964  0.65651912  1
  In  In67  1  0.83557228  0.16423657  0.33436436  1
  In  In68  1  0.69997405  0.19400297  0.52728709  1
  In  In69  1  0.68020792  0.30936636  -0.00279847  1
  In  In70  1  0.50709347  0.00048467  0.51394222  1
  In  In71  1  0.13526947  0.16037490  0.33412974  1
  Te  Te72  1  0.07861261  0.08744532  0.07957894  1
  Te  Te73  1  0.04602994  0.07634986  0.42211975  1
  Te  Te74  1  0.08984091  0.10383039  0.74727628  1
  Te  Te75  1  0.09408041  0.44455896  0.08227607  1
  Te  Te76  1  0.07500609  0.40567835  0.43512339  1
  Te  Te77  1  0.06406483  0.43101202  0.74781169  1
  Te  Te78  1  0.07508466  0.76277889  0.08170555  1
  Te  Te79  1  0.06934466  0.77725383  0.40009916  1
  Te  Te80  1  0.09288514  0.74017590  0.74395349  1
  Te  Te81  1  0.42097583  0.08307019  0.07641669  1
  Te  Te82  1  0.41065648  0.07968134  0.41788514  1
  Te  Te83  1  0.43158097  0.08285793  0.76721578  1
  Te  Te84  1  0.40939102  0.40210994  0.07264406  1
  Te  Te85  1  0.41022759  0.41785583  0.42717039  1
  Te  Te86  1  0.40931898  0.42444435  0.77485461  1
  Te  Te87  1  0.38104075  0.76393687  0.03238531  1
  Te  Te88  1  0.40758871  0.76361836  0.42670552  1
  Te  Te89  1  0.41697483  0.75067367  0.74970110  1
  Te  Te90  1  0.77917493  0.12664766  0.09165096  1
  Te  Te91  1  0.74311271  0.08332671  0.42651939  1
  Te  Te92  1  0.74620105  0.09151157  0.73581710  1
  Te  Te93  1  0.74785366  0.41985984  0.08831619  1
  Te  Te94  1  0.74994274  0.39610704  0.40616927  1
  Te  Te95  1  0.78121998  0.41807387  0.71052526  1
  Te  Te96  1  0.74323373  0.74473199  0.07011191  1
  Te  Te97  1  0.77281413  0.80168827  0.39280895  1
  Te  Te98  1  0.74070511  0.74697772  0.73666805  1
  Te  Te99  1  0.09373213  0.25823442  0.22469802  1
  Te  Te100  1  0.09740746  0.25451933  0.58796300  1
  Te  Te101  1  0.07978625  0.28450431  0.89752218  1
  Te  Te102  1  0.06849138  0.59864256  0.25302009  1
  Te  Te103  1  0.06619216  0.56909577  0.56240248  1
  Te  Te104  1  0.07773736  0.54072739  0.90616684  1
  Te  Te105  1  0.08855443  0.91710322  0.28233276  1
  Te  Te106  1  0.07554003  0.91720415  0.57401635  1
  Te  Te107  1  0.08178618  0.90091128  0.90350348  1
  Te  Te108  1  0.42124646  0.24824155  0.24942703  1
  Te  Te109  1  0.41827628  0.23431036  0.60055181  1
  Te  Te110  1  0.38655954  0.26244085  0.92608102  1
  Te  Te111  1  0.42201792  0.57364109  0.24756446  1
  Te  Te112  1  0.43582940  0.56698581  0.60711880  1
  Te  Te113  1  0.39777486  0.58512048  0.91369016  1
  Te  Te114  1  0.42504956  0.90697637  0.22486184  1
  Te  Te115  1  0.38989825  0.92174393  0.57179283  1
  Te  Te116  1  0.44500018  0.87021670  0.93795918  1
  Te  Te117  1  0.73748381  0.21267530  0.23130746  1
  Te  Te118  1  0.78238138  0.28706099  0.61499716  1
  Te  Te119  1  0.77731892  0.27095110  0.89017178  1
  Te  Te120  1  0.76115036  0.57558115  0.24976859  1
  Te  Te121  1  0.78142314  0.57984860  0.58426738  1
  Te  Te122  1  0.73308520  0.59203996  0.91752341  1
  Te  Te123  1  0.76681147  0.91927832  0.23291747  1
  Te  Te124  1  0.78404520  0.93364379  0.56424292  1
  Te  Te125  1  0.74731512  0.91145567  0.91596848  1
  Te  Te126  1  0.23975065  0.28193569  0.08370910  1
  Te  Te127  1  0.22403035  0.25669921  0.41611174  1
  Te  Te128  1  0.23353338  0.26325879  0.75678278  1
  Te  Te129  1  0.25167175  0.59834501  0.04995369  1
  Te  Te130  1  0.25187284  0.59300565  0.40536672  1
  Te  Te131  1  0.26018468  0.55452041  0.76765024  1
  Te  Te132  1  0.25921269  0.93825400  0.08899206  1
  Te  Te133  1  0.24101912  0.89786340  0.41391245  1
  Te  Te134  1  0.27165881  0.90901961  0.76903192  1
  Te  Te135  1  0.58971597  0.23339456  0.09324349  1
  Te  Te136  1  0.59198201  0.24507211  0.42771109  1
  Te  Te137  1  0.59463364  0.27084337  0.73295004  1
  Te  Te138  1  0.57351217  0.59987565  0.08461915  1
  Te  Te139  1  0.60644717  0.57660123  0.43085953  1
  Te  Te140  1  0.58811045  0.56493110  0.76881068  1
  Te  Te141  1  0.58701688  0.92738782  0.07857096  1
  Te  Te142  1  0.58985723  0.90953136  0.42356407  1
  Te  Te143  1  0.56757804  0.93199062  0.75655100  1
  Te  Te144  1  0.89895953  0.23574827  0.07288024  1
  Te  Te145  1  0.90066411  0.26693376  0.42440755  1
  Te  Te146  1  0.90183907  0.23491944  0.72715363  1
  Te  Te147  1  0.92949350  0.57291290  0.08809520  1
  Te  Te148  1  0.93709626  0.59324259  0.41395498  1
  Te  Te149  1  0.93587082  0.54416508  0.76660025  1
  Te  Te150  1  0.90354647  0.93167671  0.09978691  1
  Te  Te151  1  0.93329311  0.84304649  0.39282089  1
  Te  Te152  1  0.94019724  0.91007727  0.75930837  1
  Te  Te153  1  0.25802887  0.09575031  0.26403825  1
  Te  Te154  1  0.23357356  0.09114537  0.59180886  1
  Te  Te155  1  0.24082112  0.08404265  0.93360237  1
  Te  Te156  1  0.23917497  0.42866109  0.24731626  1
  Te  Te157  1  0.24170912  0.40567018  0.57591811  1
  Te  Te158  1  0.19590393  0.46387274  0.97608968  1
  Te  Te159  1  0.24843085  0.76818199  0.22774319  1
  Te  Te160  1  0.24339999  0.74435482  0.58110424  1
  Te  Te161  1  0.25893428  0.75183879  0.90776574  1
  Te  Te162  1  0.57370811  0.06181035  0.22892490  1
  Te  Te163  1  0.59223125  0.09765584  0.59031232  1
  Te  Te164  1  0.59917050  0.08356658  0.91961369  1
  Te  Te165  1  0.60850051  0.39345664  0.27332784  1
  Te  Te166  1  0.58682521  0.41086627  0.61204616  1
  Te  Te167  1  0.59101669  0.41163885  0.92514689  1
  Te  Te168  1  0.58459883  0.72350355  0.25354570  1
  Te  Te169  1  0.57344615  0.74037658  0.58084786  1
  Te  Te170  1  0.57589161  0.75830982  0.94369032  1
  Te  Te171  1  0.92551365  0.06354561  0.27204888  1
  Te  Te172  1  0.89531709  0.08826339  0.58734725  1
  Te  Te173  1  0.90360719  0.08135146  0.91774815  1
  Te  Te174  1  0.93101077  0.41953116  0.23946381  1
  Te  Te175  1  0.87984850  0.41090723  0.58621241  1
  Te  Te176  1  0.89465524  0.38794722  0.91499172  1
  Te  Te177  1  0.92307470  0.74176346  0.26977971  1
  Te  Te178  1  0.92819722  0.74866559  0.58215446  1
  Te  Te179  1  0.92441180  0.73737445  0.90352613  1
