# generated using pymatgen
data_In2Te3
_symmetry_space_group_name_H-M   'P 1'
_cell_length_a   19.02109752
_cell_length_b   18.97310523
_cell_length_c   18.99651035
_cell_angle_alpha   90.26007577
_cell_angle_beta   90.22113365
_cell_angle_gamma   89.86651986
_symmetry_Int_Tables_number   1
_chemical_formula_structural   In2Te3
_chemical_formula_sum   'In72 Te108'
_cell_volume   6855.49702341
_cell_formula_units_Z   36
loop_
 _symmetry_equiv_pos_site_id
 _symmetry_equiv_pos_as_xyz
  1  'x, y, z'
loop_
 _atom_site_type_symbol
 _atom_site_label
 _atom_site_symmetry_multiplicity
 _atom_site_fract_x
 _atom_site_fract_y
 _atom_site_fract_z
 _atom_site_occupancy
  In  In0  1  0.33651809  0.49744518  0.51768702  1
  In  In1  1  0.17808774  0.16393726  0.35736048  1
  In  In2  1  0.36156443  0.68007969  0.33175181  1
  In  In3  1  0.30735770  0.46186870  0.15052717  1
  In  In4  1  0.19363684  0.50799385  0.32781877  1
  In  In5  1  0.54075267  0.57237272  -0.03915989  1
  In  In6  1  0.64719010  0.47956549  0.18270953  1
  In  In7  1  0.16214819  0.33709298  0.16908399  1
  In  In8  1  0.03656677  0.50940747  0.13806965  1
  In  In9  1  0.13904678  0.28090066  0.79084794  1
  In  In10  1  0.16400681  0.48282950  -0.05048825  1
  In  In11  1  0.81667951  0.63288484  0.50112607  1
  In  In12  1  0.67046443  0.31303132  -0.00324524  1
  In  In13  1  0.84842728  0.00916598  0.53339566  1
  In  In14  1  0.34578692  0.69044578  0.66051589  1
  In  In15  1  0.82611222  0.85634473  0.33977690  1
  In  In16  1  -0.00759934  0.69762008  -0.00587755  1
  In  In17  1  0.20405564  0.67036878  0.17130711  1
  In  In18  1  0.18909713  0.83487451  0.67168660  1
  In  In19  1  -0.00074888  0.85080669  0.83607709  1
  In  In20  1  0.36676522  0.62764120  -0.02477327  1
  In  In21  1  0.46657085  0.16662194  0.62589052  1
  In  In22  1  0.17954609  0.04240227  0.53182639  1
  In  In23  1  0.34291561  0.84121625  0.17412548  1
  In  In24  1  0.51326267  0.14568367  0.00018803  1
  In  In25  1  0.69784672  0.14995609  0.18347922  1
  In  In26  1  0.49075777  0.68513497  0.49842490  1
  In  In27  1  0.35220736  0.49558976  0.79877311  1
  In  In28  1  0.81544708  0.81364774  0.67277743  1
  In  In29  1  0.49932211  0.67223872  0.18183438  1
  In  In30  1  0.69090740  0.17366088  0.52723651  1
  In  In31  1  0.02121841  0.33200166  0.65765430  1
  In  In32  1  0.51251858  -0.00420919  0.15593499  1
  In  In33  1  0.02263527  0.51469617  0.50149657  1
  In  In34  1  0.83267638  0.14648972  -0.01194138  1
  In  In35  1  0.83215750  0.33290535  0.50955689  1
  In  In36  1  -0.01842808  0.86084580  0.16993569  1
  In  In37  1  0.51205194  0.35786468  0.82551426  1
  In  In38  1  0.49623592  0.00719382  0.81306214  1
  In  In39  1  0.31530375  -0.00392656  0.34909224  1
  In  In40  1  0.85273135  -0.01071680  0.14038047  1
  In  In41  1  -0.00128532  0.62742715  0.65914109  1
  In  In42  1  0.17945642  0.31992896  0.51743233  1
  In  In43  1  0.14042394  -0.00309010  0.18815715  1
  In  In44  1  0.76802348  0.64823853  0.09426157  1
  In  In45  1  0.49406503  0.16010676  0.38779243  1
  In  In46  1  -0.01847013  0.71605453  0.35072419  1
  In  In47  1  0.47308825  0.48678388  0.34748608  1
  In  In48  1  0.66926782  0.84343408  0.15269879  1
  In  In49  1  0.15164083  0.84540518  -0.00733469  1
  In  In50  1  -0.01109121  0.32629682  0.34488878  1
  In  In51  1  0.65962344  0.34106647  0.65600715  1
  In  In52  1  0.34543000  0.31508659  0.01682433  1
  In  In53  1  0.81279446  -0.01633785  0.85062104  1
  In  In54  1  -0.00345475  0.04440862  0.69432184  1
  In  In55  1  0.32178767  0.01956595  -0.01733294  1
  In  In56  1  0.83282797  0.32177795  0.17298225  1
  In  In57  1  -0.04818785  0.43157505  0.80491480  1
  In  In58  1  -0.01240576  0.14246554  0.16728923  1
  In  In59  1  0.66575743  0.66818108  0.32149936  1
  In  In60  1  0.34286078  0.16286206  0.81395377  1
  In  In61  1  0.16394776  0.69483863  0.83089143  1
  In  In62  1  0.48575273  0.30723120  0.20346924  1
  In  In63  1  0.34298281  0.82845176  0.82517093  1
  In  In64  1  0.62087140  0.67130864  0.68255121  1
  In  In65  1  0.81663010  0.54909155  -0.03740948  1
  In  In66  1  0.01261611  0.84139789  0.52641488  1
  In  In67  1  0.80259100  0.49527759  0.67452048  1
  In  In68  1  0.66178601  0.15691819  0.80941077  1
  In  In69  1  0.83360266  0.45883359  0.34199858  1
  In  In70  1  0.65616844  -0.03798576  0.67459632  1
  In  In71  1  0.63443511  0.00172393  0.37363163  1
  Te  Te72  1  0.07784924  0.06923321  0.07688069  1
  Te  Te73  1  0.08255415  0.08052371  0.42712394  1
  Te  Te74  1  0.10602641  0.13084801  0.75194691  1
  Te  Te75  1  0.08730260  0.39819465  0.04804064  1
  Te  Te76  1  0.09437037  0.41814886  0.40620916  1
  Te  Te77  1  0.09480928  0.42508732  0.75730941  1
  Te  Te78  1  0.09394136  0.74932710  0.09946379  1
  Te  Te79  1  0.08781720  0.74543076  0.44408746  1
  Te  Te80  1  0.06456299  0.75185274  0.73146441  1
  Te  Te81  1  0.41003273  0.08763928  0.09077792  1
  Te  Te82  1  0.41192396  0.05268907  0.45327708  1
  Te  Te83  1  0.39746565  0.06225565  0.71238193  1
  Te  Te84  1  0.43799667  0.40512650  0.09694219  1
  Te  Te85  1  0.40619082  0.39171372  0.43863158  1
  Te  Te86  1  0.43327449  0.40800282  0.71361326  1
  Te  Te87  1  0.40487942  0.73549414  0.08338759  1
  Te  Te88  1  0.42184258  0.78464455  0.41394543  1
  Te  Te89  1  0.43115751  0.80262360  0.70972335  1
  Te  Te90  1  0.73860839  0.05947941  0.06958783  1
  Te  Te91  1  0.75347121  0.07563683  0.43055843  1
  Te  Te92  1  0.75413437  0.06339024  0.73541217  1
  Te  Te93  1  0.74487425  0.41176386  0.08806723  1
  Te  Te94  1  0.73477061  0.42678889  0.44562787  1
  Te  Te95  1  0.71787993  0.41946659  0.76761032  1
  Te  Te96  1  0.77899913  0.79439441  0.06076937  1
  Te  Te97  1  0.75632870  0.74348873  0.41642695  1
  Te  Te98  1  0.73253270  0.73336632  0.76132443  1
  Te  Te99  1  0.07772859  0.23933234  0.25621871  1
  Te  Te100  1  0.05640074  0.24213056  0.54435502  1
  Te  Te101  1  0.02427326  0.24763312  0.87459862  1
  Te  Te102  1  0.09446413  0.59413874  0.25169501  1
  Te  Te103  1  0.11967617  0.58619535  0.58642258  1
  Te  Te104  1  0.07540678  0.60048498  0.90906823  1
  Te  Te105  1  0.07708321  0.89800499  0.27333019  1
  Te  Te106  1  0.08505595  0.94080003  0.61574238  1
  Te  Te107  1  0.11449312  0.93321398  0.87997743  1
  Te  Te108  1  0.40442215  0.22248627  0.28783403  1
  Te  Te109  1  0.39308499  0.26886482  0.54901185  1
  Te  Te110  1  0.44260940  0.24540113  0.91123977  1
  Te  Te111  1  0.40177487  0.56389878  0.23089616  1
  Te  Te112  1  0.43380323  0.58376861  0.59588849  1
  Te  Te113  1  0.45070720  0.60520777  0.84097378  1
  Te  Te114  1  0.42632769  0.93093253  0.26181620  1
  Te  Te115  1  0.50075102  0.95803979  0.54045109  1
  Te  Te116  1  0.41834319  0.92457576  0.91773253  1
  Te  Te117  1  0.74926033  0.25525418  0.27346684  1
  Te  Te118  1  0.77831651  0.25054848  0.62392830  1
  Te  Te119  1  0.75473515  0.24119742  0.89479729  1
  Te  Te120  1  0.75493143  0.55958214  0.25854570  1
  Te  Te121  1  0.71026614  0.57991872  0.59006780  1
  Te  Te122  1  0.70071368  0.61108613  0.88292231  1
  Te  Te123  1  0.72423842  0.93505977  0.26166467  1
  Te  Te124  1  0.74836165  0.90139573  0.56976310  1
  Te  Te125  1  0.76590656  0.86683739  0.92246633  1
  Te  Te126  1  0.24519440  0.24258293  0.09305917  1
  Te  Te127  1  0.27688217  0.22391361  0.45475936  1
  Te  Te128  1  0.27371815  0.26309885  0.72619783  1
  Te  Te129  1  0.23750261  0.56615849  0.06414545  1
  Te  Te130  1  0.27111170  0.59713413  0.42025106  1
  Te  Te131  1  0.25551384  0.60666668  0.75086490  1
  Te  Te132  1  0.24905866  0.92160758  0.08531605  1
  Te  Te133  1  0.24178977  0.93034338  0.45764388  1
  Te  Te134  1  0.24529049  0.92758889  0.77271365  1
  Te  Te135  1  0.59182841  0.23649252  0.10132757  1
  Te  Te136  1  0.59254349  0.25636468  0.44991791  1
  Te  Te137  1  0.56128219  0.23761491  0.73044950  1
  Te  Te138  1  0.61233931  0.60667810  0.10006182  1
  Te  Te139  1  0.56906618  0.58866391  0.40577410  1
  Te  Te140  1  0.59674527  0.55396602  0.77102708  1
  Te  Te141  1  0.56768491  0.89880679  0.06222021  1
  Te  Te142  1  0.58334632  0.88082453  0.44337013  1
  Te  Te143  1  0.57192081  0.88664575  0.76880370  1
  Te  Te144  1  0.91483112  0.24005078  0.07655836  1
  Te  Te145  1  0.87683333  0.24717495  0.39567176  1
  Te  Te146  1  0.92616475  0.28334510  0.76660289  1
  Te  Te147  1  0.91885427  0.59286374  0.08328362  1
  Te  Te148  1  0.92355096  0.57767916  0.39813960  1
  Te  Te149  1  0.90050175  0.57466173  0.75873857  1
  Te  Te150  1  0.95350948  0.93636371  0.04749636  1
  Te  Te151  1  0.92600548  0.92416752  0.43313453  1
  Te  Te152  1  0.91069617  0.91782758  0.73048832  1
  Te  Te153  1  0.24763674  0.08556591  0.24733819  1
  Te  Te154  1  0.20294618  0.14984367  0.63465460  1
  Te  Te155  1  0.24767088  0.12848691  0.91911893  1
  Te  Te156  1  0.26327506  0.38515562  0.27286786  1
  Te  Te157  1  0.22423413  0.43789137  0.59267714  1
  Te  Te158  1  0.29028310  0.41152030  0.90957253  1
  Te  Te159  1  0.25178903  0.77126626  0.27243250  1
  Te  Te160  1  0.26736249  0.77215347  0.56596742  1
  Te  Te161  1  0.25902929  0.74952304  0.93517502  1
  Te  Te162  1  0.57708622  0.09482616  0.26553004  1
  Te  Te163  1  0.59042697  0.07709849  0.59011647  1
  Te  Te164  1  0.60176391  0.06274142  0.91072346  1
  Te  Te165  1  0.57956738  0.39524358  0.28550355  1
  Te  Te166  1  0.59716066  0.38933479  0.53345728  1
  Te  Te167  1  0.58049284  0.42253889  0.94384269  1
  Te  Te168  1  0.57981064  0.77439684  0.25662723  1
  Te  Te169  1  0.59605730  0.76335451  0.56868387  1
  Te  Te170  1  0.60533837  0.70523974  0.95363269  1
  Te  Te171  1  0.90178881  0.06545145  0.25488835  1
  Te  Te172  1  0.93870389  0.11734197  0.57991402  1
  Te  Te173  1  0.92242218  0.06505376  0.90492887  1
  Te  Te174  1  0.94259863  0.42134050  0.22897283  1
  Te  Te175  1  0.92273666  0.43516965  0.58284165  1
  Te  Te176  1  0.89808483  0.42929961  0.94121895  1
  Te  Te177  1  0.89080515  0.75875623  0.24076323  1
  Te  Te178  1  0.90870293  0.72784852  0.57727329  1
  Te  Te179  1  0.89905652  0.76070535  0.89811343  1
