# generated using pymatgen
data_In2Te3
_symmetry_space_group_name_H-M   'P 1'
_cell_length_a   18.96991210
_cell_length_b   19.03414876
_cell_length_c   19.01210566
_cell_angle_alpha   89.90325175
_cell_angle_beta   90.07428058
_cell_angle_gamma   89.77451301
_symmetry_Int_Tables_number   1
_chemical_formula_structural   In2Te3
_chemical_formula_sum   'In72 Te108'
_cell_volume   6864.74873766
_cell_formula_units_Z   36
loop_
 _symmetry_equiv_pos_site_id
 _symmetry_equiv_pos_as_xyz
  1  'x, y, z'
loop_
 _atom_site_type_symbol
 _atom_site_label
 _atom_site_symmetry_multiplicity
 _atom_site_fract_x
 _atom_site_fract_y
 _atom_site_fract_z
 _atom_site_occupancy
  In  In0  1  0.68683194  0.16251614  0.50020725  1
  In  In1  1  0.85125819  -0.00262124  0.17687571  1
  In  In2  1  0.28291398  0.69337263  0.71601094  1
  In  In3  1  0.32276602  0.12603386  0.16210812  1
  In  In4  1  0.68169845  0.01814554  0.65903582  1
  In  In5  1  0.32992228  0.00420712  0.66825230  1
  In  In6  1  0.02993109  0.68073928  0.65530461  1
  In  In7  1  0.48746930  0.14739778  0.34659004  1
  In  In8  1  0.51185269  -0.00648649  0.81649069  1
  In  In9  1  0.30929271  0.85319890  0.84264235  1
  In  In10  1  0.17406377  0.33060474  0.82905025  1
  In  In11  1  -0.01206341  0.31007675  -0.00183132  1
  In  In12  1  0.96087284  0.71432662  0.83203838  1
  In  In13  1  0.30618436  0.68082780  -0.01983036  1
  In  In14  1  0.12607203  0.15777011  0.35936330  1
  In  In15  1  0.85679124  0.50754975  -0.02684701  1
  In  In16  1  0.15115588  0.67883360  0.17206989  1
  In  In17  1  0.32297238  0.53098235  0.17097074  1
  In  In18  1  0.66328485  0.48628170  0.53170382  1
  In  In19  1  0.17055275  0.52115168  -0.07532212  1
  In  In20  1  0.46362626  0.47072981  -0.01574893  1
  In  In21  1  0.69253450  0.67107727  0.67925334  1
  In  In22  1  0.49832175  0.45667748  0.34091256  1
  In  In23  1  0.69122440  0.32670442  0.31289386  1
  In  In24  1  0.69468431  0.16108457  0.82452085  1
  In  In25  1  0.65667436  0.49896193  0.84682211  1
  In  In26  1  0.83762881  0.30460330  0.14645834  1
  In  In27  1  0.65783265  0.16512943  0.16715814  1
  In  In28  1  0.67337690  0.85775718  0.48782449  1
  In  In29  1  0.85364055  0.68001741  0.17719493  1
  In  In30  1  0.16853765  0.52745396  0.36246518  1
  In  In31  1  0.16743034  0.33473124  0.19112197  1
  In  In32  1  0.65285701  0.67865398  0.35202757  1
  In  In33  1  0.83821413  0.50527887  0.68017075  1
  In  In34  1  0.00386357  0.85107001  0.53132744  1
  In  In35  1  0.48572275  0.84541616  0.29896642  1
  In  In36  1  0.15560004  0.16986100  0.64710134  1
  In  In37  1  0.48364560  0.81928493  0.65346804  1
  In  In38  1  0.67168077  0.01080491  0.32088207  1
  In  In39  1  0.68415004  0.64105426  0.01496361  1
  In  In40  1  0.47727443  0.65189109  0.52240369  1
  In  In41  1  0.66884148  0.84989421  0.15679628  1
  In  In42  1  0.50604380  0.14796279  0.68077983  1
  In  In43  1  0.65391386  -0.01105593  -0.00270548  1
  In  In44  1  0.47725571  0.81407025  0.01963823  1
  In  In45  1  0.35093691  0.32974027  0.35279942  1
  In  In46  1  0.00211943  0.52750292  0.50249582  1
  In  In47  1  0.51871459  0.65555643  0.84310706  1
  In  In48  1  0.69031945  0.81493382  0.82362903  1
  In  In49  1  -0.02619964  0.48420758  0.15039680  1
  In  In50  1  0.88631857  -0.02664127  0.83826781  1
  In  In51  1  0.01820946  0.32396141  0.68094947  1
  In  In52  1  0.83513047  0.32989374  0.84009900  1
  In  In53  1  0.33258264  0.82900234  0.49121774  1
  In  In54  1  0.47242433  0.66178830  0.14715621  1
  In  In55  1  -0.01944835  0.33385144  0.33176731  1
  In  In56  1  0.46377594  0.48587740  0.65249231  1
  In  In57  1  0.70969112  0.52363995  0.13792162  1
  In  In58  1  0.14644928  0.12474293  0.03405383  1
  In  In59  1  0.48283818  0.32564689  0.48744561  1
  In  In60  1  0.33402597  0.25787489  -0.03286143  1
  In  In61  1  0.17628054  0.68890292  0.51152243  1
  In  In62  1  0.83151524  0.31944357  0.50923622  1
  In  In63  1  0.31923516  0.00478251  0.01659357  1
  In  In64  1  0.51242125  0.32671779  0.16820619  1
  In  In65  1  0.00792765  0.66951528  0.33195402  1
  In  In66  1  0.31234147  0.33774434  0.66181891  1
  In  In67  1  0.31703474  0.16482272  0.48343993  1
  In  In68  1  0.02616410  0.87728716  0.14310207  1
  In  In69  1  0.17857351  0.83926218  0.30746891  1
  In  In70  1  0.00024442  0.14879693  0.83942713  1
  In  In71  1  0.87059354  0.02290829  0.53531518  1
  Te  Te72  1  0.07835442  0.02677768  0.12335552  1
  Te  Te73  1  0.04646866  0.06472955  0.44870392  1
  Te  Te74  1  0.07092453  0.07712229  0.72959779  1
  Te  Te75  1  0.07876137  0.39888293  0.08362401  1
  Te  Te76  1  0.07156212  0.42300259  0.41389264  1
  Te  Te77  1  0.10731941  0.42390529  0.73845684  1
  Te  Te78  1  0.11016993  0.77590875  0.07066893  1
  Te  Te79  1  0.08561905  0.76649197  0.41787131  1
  Te  Te80  1  0.06465478  0.79130355  0.75232507  1
  Te  Te81  1  0.40156245  0.12977140  0.03287818  1
  Te  Te82  1  0.37767777  0.06332521  0.39344808  1
  Te  Te83  1  0.40171411  0.08816088  0.77398743  1
  Te  Te84  1  0.40147844  0.41553980  0.10928854  1
  Te  Te85  1  0.38793750  0.44573026  0.45538326  1
  Te  Te86  1  0.40537153  0.40277058  0.76046528  1
  Te  Te87  1  0.36371335  0.75696133  0.10008111  1
  Te  Te88  1  0.44103369  0.75377873  0.41671842  1
  Te  Te89  1  0.41992986  0.75686433  0.77449105  1
  Te  Te90  1  0.74343597  0.06704457  0.08963650  1
  Te  Te91  1  0.76950467  0.06612345  0.42175700  1
  Te  Te92  1  0.78626748  0.06445608  0.75358600  1
  Te  Te93  1  0.77230119  0.41374880  0.05607084  1
  Te  Te94  1  0.74368520  0.41299675  0.42512328  1
  Te  Te95  1  0.74234402  0.41529694  0.75330099  1
  Te  Te96  1  0.75903569  0.75321768  0.08085842  1
  Te  Te97  1  0.75449313  0.76431719  0.41044621  1
  Te  Te98  1  0.79734012  0.74807902  0.74829214  1
  Te  Te99  1  0.06248288  0.24092463  0.24379273  1
  Te  Te100  1  0.08056823  0.26447565  0.56062654  1
  Te  Te101  1  0.10092441  0.23353837  0.92275869  1
  Te  Te102  1  0.07327057  0.55835676  0.23978067  1
  Te  Te103  1  0.11868875  0.57320407  0.58795601  1
  Te  Te104  1  0.06401581  0.62055791  0.90250195  1
  Te  Te105  1  0.07503131  0.94736300  0.27199110  1
  Te  Te106  1  0.05617591  0.95895897  0.62060831  1
  Te  Te107  1  0.01752973  0.90790915  0.88402718  1
  Te  Te108  1  0.41100643  0.24194447  0.24473716  1
  Te  Te109  1  0.41129077  0.23074607  0.58297422  1
  Te  Te110  1  0.44049574  0.29750706  0.87662912  1
  Te  Te111  1  0.43311464  0.57575159  0.26511653  1
  Te  Te112  1  0.37633249  0.60666853  0.62482859  1
  Te  Te113  1  0.40099020  0.58407854  0.90600249  1
  Te  Te114  1  0.38216450  0.92286425  0.23055695  1
  Te  Te115  1  0.42152918  0.92787155  0.57306419  1
  Te  Te116  1  0.42614264  0.91916987  0.91940495  1
  Te  Te117  1  0.77221278  0.21556955  0.25275288  1
  Te  Te118  1  0.75084899  0.24126115  0.60273486  1
  Te  Te119  1  0.76169347  0.24094666  0.92765851  1
  Te  Te120  1  0.75277450  0.60237634  0.25931341  1
  Te  Te121  1  0.76545617  0.58856716  0.57506045  1
  Te  Te122  1  0.76257632  0.59626604  0.89371935  1
  Te  Te123  1  0.76209417  0.90479472  0.26092484  1
  Te  Te124  1  0.76825100  0.91632935  0.58809994  1
  Te  Te125  1  0.75332060  0.92171386  0.90686215  1
  Te  Te126  1  0.23829526  0.24140128  0.09417296  1
  Te  Te127  1  0.22913866  0.26305406  0.41027734  1
  Te  Te128  1  0.25188718  0.22941639  0.74813443  1
  Te  Te129  1  0.22276481  0.57750651  0.06596306  1
  Te  Te130  1  0.26709993  0.62322455  0.41372872  1
  Te  Te131  1  0.19608480  0.61137794  0.80182092  1
  Te  Te132  1  0.27167861  0.92297063  0.12796311  1
  Te  Te133  1  0.23220797  0.91096530  0.42349705  1
  Te  Te134  1  0.23115298  0.94142949  0.75691683  1
  Te  Te135  1  0.58861455  0.25076812  0.07129269  1
  Te  Te136  1  0.58779052  0.25182340  0.39744448  1
  Te  Te137  1  0.58802026  0.23933149  0.75780249  1
  Te  Te138  1  0.56213760  0.56873616  0.06636169  1
  Te  Te139  1  0.57756624  0.56753895  0.43420637  1
  Te  Te140  1  0.57978950  0.57455921  0.73004782  1
  Te  Te141  1  0.55335377  0.92445305  0.09141627  1
  Te  Te142  1  0.57269810  0.92502959  0.39712560  1
  Te  Te143  1  0.59704314  0.90202087  0.73071912  1
  Te  Te144  1  0.92023558  0.20619483  0.07510361  1
  Te  Te145  1  0.90498692  0.23465247  0.41160273  1
  Te  Te146  1  0.91580701  0.23883338  0.74953191  1
  Te  Te147  1  0.92826212  0.60249997  0.06827370  1
  Te  Te148  1  0.91324690  0.58335852  0.40108640  1
  Te  Te149  1  0.94477052  0.58567842  0.74389784  1
  Te  Te150  1  0.89516176  0.90067644  0.07210788  1
  Te  Te151  1  0.93155617  0.93501998  0.43159874  1
  Te  Te152  1  0.95559924  0.90436839  0.71762451  1
  Te  Te153  1  0.24476575  0.09667449  0.28268520  1
  Te  Te154  1  0.23586476  0.06933145  0.56678437  1
  Te  Te155  1  0.20703533  0.04320512  0.92969791  1
  Te  Te156  1  0.25542322  0.43104478  0.27088798  1
  Te  Te157  1  0.26951525  0.41475936  0.54787405  1
  Te  Te158  1  0.25755302  0.39700073  0.93392095  1
  Te  Te159  1  0.25360283  0.71640194  0.27162929  1
  Te  Te160  1  0.23881523  0.78750496  0.60798044  1
  Te  Te161  1  0.21463265  0.78834505  0.93548934  1
  Te  Te162  1  0.56026256  0.07288188  0.23693330  1
  Te  Te163  1  0.57880916  0.07872589  0.56486832  1
  Te  Te164  1  0.58455066  0.08786255  0.90742247  1
  Te  Te165  1  0.61156174  0.42753806  0.23225360  1
  Te  Te166  1  0.56823466  0.38956906  0.59703178  1
  Te  Te167  1  0.57866676  0.40086219  0.92301964  1
  Te  Te168  1  0.58313319  0.74114727  0.22459300  1
  Te  Te169  1  0.59251453  0.74184690  0.58114503  1
  Te  Te170  1  0.59213192  0.75639886  0.93080758  1
  Te  Te171  1  0.96942081  0.05731292  0.24351046  1
  Te  Te172  1  0.96067309  0.14343902  0.54325572  1
  Te  Te173  1  0.93189058  0.07043257  0.94321728  1
  Te  Te174  1  0.88296759  0.41312170  0.24573131  1
  Te  Te175  1  0.92166135  0.41877174  0.58608284  1
  Te  Te176  1  0.94765419  0.41581908  0.89570946  1
  Te  Te177  1  0.95032791  0.77408689  0.24011444  1
  Te  Te178  1  0.92762147  0.73111518  0.56302202  1
  Te  Te179  1  0.92816476  0.80610221  0.94521920  1
