# generated using pymatgen
data_In2Te3
_symmetry_space_group_name_H-M   'P 1'
_cell_length_a   19.04612785
_cell_length_b   19.02874386
_cell_length_c   19.05138290
_cell_angle_alpha   90.04155899
_cell_angle_beta   89.73699751
_cell_angle_gamma   89.94270877
_symmetry_Int_Tables_number   1
_chemical_formula_structural   In2Te3
_chemical_formula_sum   'In72 Te108'
_cell_volume   6904.59823289
_cell_formula_units_Z   36
loop_
 _symmetry_equiv_pos_site_id
 _symmetry_equiv_pos_as_xyz
  1  'x, y, z'
loop_
 _atom_site_type_symbol
 _atom_site_label
 _atom_site_symmetry_multiplicity
 _atom_site_fract_x
 _atom_site_fract_y
 _atom_site_fract_z
 _atom_site_occupancy
  In  In0  1  0.80832888  0.31206000  0.50975390  1
  In  In1  1  0.33634095  0.15814633  0.48558828  1
  In  In2  1  0.14711880  0.48359749  0.65575714  1
  In  In3  1  0.49053014  0.50739285  0.32632976  1
  In  In4  1  -0.03249818  0.48539991  0.18949911  1
  In  In5  1  0.16028153  0.16143262  0.69046850  1
  In  In6  1  0.61731877  0.19501275  0.82579606  1
  In  In7  1  0.65813105  0.50609347  0.16396754  1
  In  In8  1  0.64602179  0.69470981  -0.01689893  1
  In  In9  1  0.47597093  0.84933956  0.67585293  1
  In  In10  1  0.00245273  0.82204523  0.51168487  1
  In  In11  1  0.33721416  0.03358096  0.69006198  1
  In  In12  1  0.83432533  0.00245325  0.80278454  1
  In  In13  1  0.83666845  0.32917899  0.83500260  1
  In  In14  1  0.63985776  0.31559771  0.02182711  1
  In  In15  1  0.33714036  0.85856806  0.16435452  1
  In  In16  1  0.83525797  0.81188482  0.35113434  1
  In  In17  1  0.00189558  0.16550566  0.51454265  1
  In  In18  1  0.73088340  0.17959143  0.36395718  1
  In  In19  1  0.33821643  0.67859741  0.01189150  1
  In  In20  1  0.18307629  0.01447156  0.83483732  1
  In  In21  1  0.16932100  0.51175530  0.36834028  1
  In  In22  1  -0.01604173  0.00612443  0.32990800  1
  In  In23  1  0.82328097  0.47819220  -0.01670950  1
  In  In24  1  0.81775041  0.02904935  0.17566625  1
  In  In25  1  0.81432834  0.18398335  0.68018886  1
  In  In26  1  -0.00313584  0.16101172  0.14948535  1
  In  In27  1  0.01342636  0.65578886  0.68078307  1
  In  In28  1  0.49273318  0.49489349  -0.00243370  1
  In  In29  1  0.02796987  0.79313738  0.84919197  1
  In  In30  1  0.52000029  0.03098720  0.47891680  1
  In  In31  1  0.02108648  0.64812995  0.01301161  1
  In  In32  1  0.50672766  -0.00263742  0.82949424  1
  In  In33  1  0.35724889  0.16712932  0.16390986  1
  In  In34  1  0.32906890  0.50184334  0.50923828  1
  In  In35  1  0.36070611  0.31429852  0.66341778  1
  In  In36  1  -0.02088548  0.66422007  0.33816349  1
  In  In37  1  0.17469276  0.47569020  -0.01702377  1
  In  In38  1  0.85036411  0.86363974  -0.00342136  1
  In  In39  1  0.02871549  0.29984269  -0.02034013  1
  In  In40  1  0.37993520  0.28891265  -0.02299949  1
  In  In41  1  0.84408237  0.51483467  0.65699527  1
  In  In42  1  0.49036720  0.01119950  0.14807040  1
  In  In43  1  0.18023449  0.00218874  0.16175292  1
  In  In44  1  0.82115118  0.65652083  0.49562914  1
  In  In45  1  -0.00355415  0.01915254  -0.00995045  1
  In  In46  1  -0.00804545  0.33600861  0.67936048  1
  In  In47  1  0.64597469  0.01350169  0.33628052  1
  In  In48  1  0.35243538  0.49289157  0.15220262  1
  In  In49  1  0.17518147  0.67593791  0.18333854  1
  In  In50  1  0.18330251  0.84155189  0.02482497  1
  In  In51  1  0.19042683  0.66359970  0.83312331  1
  In  In52  1  0.33452490  0.31619026  0.32736350  1
  In  In53  1  0.00765127  0.34503107  0.34062989  1
  In  In54  1  0.63500835  0.85768244  0.19698597  1
  In  In55  1  0.48069027  0.66450676  0.48979157  1
  In  In56  1  0.33832013  0.47092351  0.81430191  1
  In  In57  1  0.17030155  0.86208368  0.35505678  1
  In  In58  1  0.62779923  0.65849797  0.66483914  1
  In  In59  1  0.66800520  0.49155045  0.80653343  1
  In  In60  1  0.68376054  -0.00127648  0.01455075  1
  In  In61  1  0.34704858  0.84783556  0.49684508  1
  In  In62  1  0.52048015  0.31487687  0.50248632  1
  In  In63  1  0.18057812  0.34148064  0.15096257  1
  In  In64  1  -0.02190563  -0.01712404  0.65182091  1
  In  In65  1  0.34548871  0.67946753  0.64447295  1
  In  In66  1  0.81146972  0.68613388  0.81887749  1
  In  In67  1  0.80955445  0.67870790  0.16563476  1
  In  In68  1  0.66274972  0.68599820  0.35273702  1
  In  In69  1  0.63689370  0.83438068  0.81202845  1
  In  In70  1  0.15854849  0.15473510  0.33861139  1
  In  In71  1  0.81748439  0.46258175  0.34607206  1
  Te  Te72  1  0.10464152  0.09354230  0.06788729  1
  Te  Te73  1  0.07956864  0.06599197  0.43160639  1
  Te  Te74  1  0.06640453  0.06047668  0.75224234  1
  Te  Te75  1  0.07103055  0.42527894  0.08882472  1
  Te  Te76  1  0.08707213  0.41618425  0.43856937  1
  Te  Te77  1  0.08678464  0.40726459  0.76361247  1
  Te  Te78  1  0.07981037  0.75787598  0.09806773  1
  Te  Te79  1  0.08257935  0.74500590  0.40804319  1
  Te  Te80  1  0.11745148  0.75211440  0.73490314  1
  Te  Te81  1  0.42176974  0.09789629  0.05142612  1
  Te  Te82  1  0.43841941  0.11469916  0.38732574  1
  Te  Te83  1  0.42805613  0.11327755  0.77713000  1
  Te  Te84  1  0.43260220  0.38591469  0.08491132  1
  Te  Te85  1  0.41458915  0.40184546  0.42576180  1
  Te  Te86  1  0.45166006  0.39693246  0.74991270  1
  Te  Te87  1  0.42071580  0.75470651  0.10212811  1
  Te  Te88  1  0.43810002  0.77561382  0.40531711  1
  Te  Te89  1  0.40388574  0.75110467  0.75756380  1
  Te  Te90  1  0.78176149  0.10289892  0.05344332  1
  Te  Te91  1  0.74975810  0.05202785  0.43560914  1
  Te  Te92  1  0.72316418  0.09949626  0.76322304  1
  Te  Te93  1  0.74546253  0.40673677  0.08878909  1
  Te  Te94  1  0.71917553  0.40256644  0.43514527  1
  Te  Te95  1  0.76330147  0.40614263  0.72826681  1
  Te  Te96  1  0.74503620  0.77255489  0.06791990  1
  Te  Te97  1  0.73217910  0.77389119  0.45480587  1
  Te  Te98  1  0.73174558  0.75788124  0.71762686  1
  Te  Te99  1  0.09236782  0.25366718  0.24119984  1
  Te  Te100  1  0.08965429  0.25512159  0.59434712  1
  Te  Te101  1  0.10859961  0.20539751  0.90553129  1
  Te  Te102  1  0.07353682  0.57656144  0.24876562  1
  Te  Te103  1  0.07709590  0.58055789  0.57368893  1
  Te  Te104  1  0.09059424  0.57241505  0.90208037  1
  Te  Te105  1  0.08258094  0.92526519  0.24783423  1
  Te  Te106  1  0.08768436  0.90906060  0.59006743  1
  Te  Te107  1  0.08734134  0.90889315  0.92728203  1
  Te  Te108  1  0.44032590  0.23334857  0.26688049  1
  Te  Te109  1  0.43929963  0.21406952  0.58156985  1
  Te  Te110  1  0.47601335  0.23279616  0.87988896  1
  Te  Te111  1  0.40318329  0.59125729  0.24476783  1
  Te  Te112  1  0.43300756  0.56573011  0.59644803  1
  Te  Te113  1  0.39188605  0.57216343  0.91790494  1
  Te  Te114  1  0.42541738  0.93341182  0.25278681  1
  Te  Te115  1  0.42454522  0.96146070  0.58330316  1
  Te  Te116  1  0.44053642  0.88360661  0.89165458  1
  Te  Te117  1  0.69298563  0.24534469  0.23803165  1
  Te  Te118  1  0.70500853  0.23123631  0.58680049  1
  Te  Te119  1  0.73035623  0.25822054  0.91193988  1
  Te  Te120  1  0.75455144  0.58232711  0.26775255  1
  Te  Te121  1  0.72850972  0.57464535  0.58255186  1
  Te  Te122  1  0.74177693  0.58913739  0.91925714  1
  Te  Te123  1  0.76195262  0.90993450  0.25718102  1
  Te  Te124  1  0.83354773  0.93841926  0.66667673  1
  Te  Te125  1  0.74202103  0.90533094  0.89853685  1
  Te  Te126  1  0.26345816  0.24676523  0.07274564  1
  Te  Te127  1  0.23529048  0.25350126  0.42263914  1
  Te  Te128  1  0.26589831  0.24397740  0.75790012  1
  Te  Te129  1  0.23490474  0.57702706  0.08099897  1
  Te  Te130  1  0.26748692  0.60201644  0.42197695  1
  Te  Te131  1  0.25660582  0.57008477  0.73424773  1
  Te  Te132  1  0.27731847  0.95353419  0.05614111  1
  Te  Te133  1  0.26962226  0.94501920  0.41886199  1
  Te  Te134  1  0.26633316  0.92480866  0.75710062  1
  Te  Te135  1  0.59926152  0.21129813  0.11844897  1
  Te  Te136  1  0.60636185  0.25761527  0.38954991  1
  Te  Te137  1  0.58491942  0.29784371  0.71515295  1
  Te  Te138  1  0.57484418  0.59569439  0.07478633  1
  Te  Te139  1  0.58491216  0.57674275  0.42253221  1
  Te  Te140  1  0.56677346  0.59113622  0.77846111  1
  Te  Te141  1  0.57665567  0.90700236  0.06978211  1
  Te  Te142  1  0.55994796  0.91208530  0.39931555  1
  Te  Te143  1  0.59152188  0.94048194  0.71548598  1
  Te  Te144  1  0.92205075  0.25524498  0.06802030  1
  Te  Te145  1  0.91956998  0.25182971  0.42302214  1
  Te  Te146  1  0.92896483  0.23032992  0.76692324  1
  Te  Te147  1  0.90094077  0.57697831  0.08712587  1
  Te  Te148  1  0.90968354  0.55922615  0.42017044  1
  Te  Te149  1  0.91230968  0.58434281  0.77183284  1
  Te  Te150  1  0.92351198  0.94202199  0.10008328  1
  Te  Te151  1  0.91428931  0.91431157  0.42807027  1
  Te  Te152  1  0.92768125  0.87759204  0.77972587  1
  Te  Te153  1  0.26225180  0.08568121  0.25522119  1
  Te  Te154  1  0.24314243  0.08950879  0.58550299  1
  Te  Te155  1  0.24677090  0.14076407  0.87770234  1
  Te  Te156  1  0.24930693  0.42586169  0.25588210  1
  Te  Te157  1  0.25720163  0.39860772  0.59122742  1
  Te  Te158  1  0.27052836  0.38241021  0.91669020  1
  Te  Te159  1  0.25493699  0.77269271  0.26139319  1
  Te  Te160  1  0.25478145  0.75057276  0.55746938  1
  Te  Te161  1  0.26013691  0.76696209  0.91791708  1
  Te  Te162  1  0.60548429  0.08593515  0.21212733  1
  Te  Te163  1  0.63370677  0.10086733  0.54208973  1
  Te  Te164  1  0.59360265  0.07769389  0.92611131  1
  Te  Te165  1  0.57018529  0.41980749  0.24052626  1
  Te  Te166  1  0.56532815  0.40313117  0.61362890  1
  Te  Te167  1  0.59426602  0.41737262  0.91882032  1
  Te  Te168  1  0.58231230  0.73018116  0.24054217  1
  Te  Te169  1  0.55615604  0.76041779  0.58135902  1
  Te  Te170  1  0.53877028  0.76631051  0.90475491  1
  Te  Te171  1  0.90547390  0.11678585  0.26305344  1
  Te  Te172  1  0.89107084  0.09378139  0.58406457  1
  Te  Te173  1  0.88641372  0.08329521  0.91846212  1
  Te  Te174  1  0.88802653  0.37208340  0.24732803  1
  Te  Te175  1  0.91062525  0.40734427  0.57507839  1
  Te  Te176  1  0.93597244  0.41016118  0.91382086  1
  Te  Te177  1  0.91824982  0.75653870  0.23555850  1
  Te  Te178  1  0.91303045  0.72920602  0.59034848  1
  Te  Te179  1  0.91554261  0.73257518  0.93688206  1
