# generated using pymatgen
data_In2Te3
_symmetry_space_group_name_H-M   'P 1'
_cell_length_a   18.93451056
_cell_length_b   18.92448151
_cell_length_c   18.94402343
_cell_angle_alpha   89.92835995
_cell_angle_beta   89.99730161
_cell_angle_gamma   89.95315845
_symmetry_Int_Tables_number   1
_chemical_formula_structural   In2Te3
_chemical_formula_sum   'In72 Te108'
_cell_volume   6788.12467401
_cell_formula_units_Z   36
loop_
 _symmetry_equiv_pos_site_id
 _symmetry_equiv_pos_as_xyz
  1  'x, y, z'
loop_
 _atom_site_type_symbol
 _atom_site_label
 _atom_site_symmetry_multiplicity
 _atom_site_fract_x
 _atom_site_fract_y
 _atom_site_fract_z
 _atom_site_occupancy
  In  In0  1  0.32934093  0.32401516  0.02851849  1
  In  In1  1  0.66294438  0.35766656  0.64714259  1
  In  In2  1  0.84484670  0.51803853  0.66263281  1
  In  In3  1  0.65255612  0.15863178  0.52962851  1
  In  In4  1  0.18396671  0.00317742  0.48064176  1
  In  In5  1  0.85521426  0.11736121  0.30230663  1
  In  In6  1  0.81966244  0.50714178  -0.00585794  1
  In  In7  1  0.85703105  -0.00875750  0.47449764  1
  In  In8  1  0.47365487  0.31655859  0.47162117  1
  In  In9  1  0.50695773  0.67432993  0.82493907  1
  In  In10  1  0.52739964  0.13707578  0.66491665  1
  In  In11  1  0.17977975  0.52113273  0.66278729  1
  In  In12  1  0.15232371  0.69081695  0.49761744  1
  In  In13  1  0.31980964  0.13870924  0.46683443  1
  In  In14  1  0.66382269  0.00115949  0.02655608  1
  In  In15  1  0.00217787  0.66361392  -0.00703544  1
  In  In16  1  0.83023327  0.82200291  0.00368273  1
  In  In17  1  0.68914819  0.82007400  0.83491051  1
  In  In18  1  0.47675154  0.66567024  0.48594343  1
  In  In19  1  0.84261578  0.30265057  0.47124158  1
  In  In20  1  0.16853642  0.81893367  0.66743720  1
  In  In21  1  0.17289250  0.36541189  0.81152807  1
  In  In22  1  0.30185445  0.29248955  0.27316849  1
  In  In23  1  0.00683003  0.68162671  0.67335025  1
  In  In24  1  0.67565839  0.67310154  0.68644530  1
  In  In25  1  0.49109086  0.16134615  0.33339190  1
  In  In26  1  0.35094799  0.33080125  0.66134314  1
  In  In27  1  0.84439080  0.84785478  0.33332775  1
  In  In28  1  0.65716578  0.65418731  0.00834486  1
  In  In29  1  0.00050288  0.33568081  0.00583269  1
  In  In30  1  0.47106356  -0.00481443  0.18435254  1
  In  In31  1  0.49214663  0.51047658  0.33090568  1
  In  In32  1  0.85554704  0.15500862  0.68986746  1
  In  In33  1  0.67491862  0.82723572  0.48614082  1
  In  In34  1  0.67364131  0.49762514  0.14739377  1
  In  In35  1  0.48330400  0.85083736  0.63864044  1
  In  In36  1  0.02273836  -0.00197357  0.01044440  1
  In  In37  1  0.03951667  0.37500567  0.60654338  1
  In  In38  1  0.65914323  0.30468999  0.04912328  1
  In  In39  1  0.63518312  0.50035146  0.48639021  1
  In  In40  1  0.17202922  0.15979654  0.03599313  1
  In  In41  1  0.34500505  0.16008195  0.85158687  1
  In  In42  1  0.65302850  0.51700691  0.84787933  1
  In  In43  1  0.85499074  0.14605494  0.01215482  1
  In  In44  1  0.83995682  0.34383879  0.85639477  1
  In  In45  1  0.67126336  0.01581376  0.65827223  1
  In  In46  1  0.32506996  0.49070160  0.17662219  1
  In  In47  1  0.66282258  -0.01160784  0.34686048  1
  In  In48  1  0.85407005  0.68001676  0.51626780  1
  In  In49  1  0.31839917  0.51944850  0.50715790  1
  In  In50  1  0.51689273  -0.01806322  0.85365711  1
  In  In51  1  0.64104986  0.83048600  0.18358973  1
  In  In52  1  0.15600290  0.50064864  -0.01006523  1
  In  In53  1  0.34571824  -0.00746070  0.01718744  1
  In  In54  1  0.83157504  0.50197240  0.31917090  1
  In  In55  1  0.01363409  0.89218461  0.19839492  1
  In  In56  1  0.69062186  0.31672722  0.30044839  1
  In  In57  1  0.14746400  0.16767371  0.32564162  1
  In  In58  1  0.14690868  0.64808401  0.14740199  1
  In  In59  1  -0.00390505  -0.01344649  0.67303417  1
  In  In60  1  0.00794361  0.17471167  0.86479409  1
  In  In61  1  0.49131756  0.36068222  0.84107052  1
  In  In62  1  0.65443358  0.16612480  0.83800031  1
  In  In63  1  -0.01389482  0.48450823  0.16209119  1
  In  In64  1  0.31331505  0.68386308  0.34917140  1
  In  In65  1  0.49228007  0.52087143  -0.00290947  1
  In  In66  1  -0.00791201  0.67895948  0.33847760  1
  In  In67  1  0.32529861  0.81171684  0.14818556  1
  In  In68  1  0.31415122  0.82384067  0.83250169  1
  In  In69  1  0.16564794  0.83595714  -0.00677157  1
  In  In70  1  0.15995086  0.19488070  0.63695936  1
  In  In71  1  0.15977309  -0.00558785  0.81435749  1
  Te  Te72  1  0.05687847  0.10458712  0.11147959  1
  Te  Te73  1  0.07614091  0.09327253  0.43379269  1
  Te  Te74  1  0.08171959  0.10504650  0.74238006  1
  Te  Te75  1  0.09958794  0.40744645  0.09577467  1
  Te  Te76  1  0.07406172  0.38194019  0.46514024  1
  Te  Te77  1  0.06705762  0.44262387  0.74046535  1
  Te  Te78  1  0.07001355  0.76815593  0.09104792  1
  Te  Te79  1  0.07997471  0.78015419  0.40345977  1
  Te  Te80  1  0.11302195  0.72648665  0.76739192  1
  Te  Te81  1  0.40509225  0.09678491  0.09874206  1
  Te  Te82  1  0.42717795  0.05190042  0.41222723  1
  Te  Te83  1  0.42958164  0.06991271  0.76366991  1
  Te  Te84  1  0.43008826  0.41924801  0.09152118  1
  Te  Te85  1  0.39273059  0.42654129  0.40746585  1
  Te  Te86  1  0.39505946  0.43943500  0.75722000  1
  Te  Te87  1  0.43196277  0.72237193  0.10361977  1
  Te  Te88  1  0.37960891  0.77233836  0.44915135  1
  Te  Te89  1  0.41466512  0.75831208  0.73627808  1
  Te  Te90  1  0.75195090  0.09154228  0.10429841  1
  Te  Te91  1  0.75035004  0.09474638  0.42391853  1
  Te  Te92  1  0.75593972  0.07384019  0.77073105  1
  Te  Te93  1  0.77244354  0.39795465  0.09040323  1
  Te  Te94  1  0.73930943  0.41171197  0.41888709  1
  Te  Te95  1  0.74543037  0.42044511  0.76232113  1
  Te  Te96  1  0.73816494  0.74611202  0.09717816  1
  Te  Te97  1  0.76702348  0.73802208  0.40559039  1
  Te  Te98  1  0.77696724  0.77610710  0.72268677  1
  Te  Te99  1  0.04639904  0.26557980  0.27601160  1
  Te  Te100  1  0.06532236  0.24234724  0.52820045  1
  Te  Te101  1  0.11610857  0.26238843  0.92508009  1
  Te  Te102  1  0.06748029  0.57561833  0.25403989  1
  Te  Te103  1  0.07374221  0.58732043  0.57471666  1
  Te  Te104  1  0.10104364  0.60372069  0.89935806  1
  Te  Te105  1  0.14661360  0.95079637  0.24663101  1
  Te  Te106  1  0.09847386  0.92224795  0.58261098  1
  Te  Te107  1  0.07038241  0.90547076  0.89579439  1
  Te  Te108  1  0.44847673  0.27307514  0.24260550  1
  Te  Te109  1  0.42487372  0.21972484  0.57915118  1
  Te  Te110  1  0.43025175  0.25525410  0.93251479  1
  Te  Te111  1  0.39923645  0.60164676  0.25399420  1
  Te  Te112  1  0.41634460  0.58588873  0.59308891  1
  Te  Te113  1  0.40918215  0.59338589  0.90096062  1
  Te  Te114  1  0.39402663  0.88962387  0.25448316  1
  Te  Te115  1  0.42427515  0.95684016  0.55708138  1
  Te  Te116  1  0.41488514  0.89563857  0.92530955  1
  Te  Te117  1  0.76657073  0.21306630  0.22681770  1
  Te  Te118  1  0.75524527  0.24179010  0.60846837  1
  Te  Te119  1  0.75554485  0.24003218  0.92827398  1
  Te  Te120  1  0.74663959  0.58774709  0.23578821  1
  Te  Te121  1  0.73650773  0.58059690  0.57233432  1
  Te  Te122  1  0.75770413  0.61108520  0.90100259  1
  Te  Te123  1  0.74983471  0.92278932  0.24195404  1
  Te  Te124  1  0.75583195  0.92582974  0.56728875  1
  Te  Te125  1  0.74872073  0.92615689  0.92446996  1
  Te  Te126  1  0.25116786  0.24477643  0.13126339  1
  Te  Te127  1  0.24892161  0.25640321  0.41083034  1
  Te  Te128  1  0.25917515  0.24420175  0.75683789  1
  Te  Te129  1  0.25798602  0.57957627  0.07160404  1
  Te  Te130  1  0.21884594  0.58265720  0.41217106  1
  Te  Te131  1  0.29114161  0.55637547  0.74920713  1
  Te  Te132  1  0.22974085  0.93214416  0.09121527  1
  Te  Te133  1  0.25573125  0.94334500  0.36208419  1
  Te  Te134  1  0.26439014  0.92578531  0.73256442  1
  Te  Te135  1  0.56320738  0.24524472  0.13883323  1
  Te  Te136  1  0.59942367  0.25175720  0.41386567  1
  Te  Te137  1  0.57727407  0.26536674  0.74615524  1
  Te  Te138  1  0.54578998  0.61543056  0.10578813  1
  Te  Te139  1  0.58833359  0.61038295  0.39337950  1
  Te  Te140  1  0.57325664  0.56985528  0.73246948  1
  Te  Te141  1  0.55827697  0.91137582  0.08622560  1
  Te  Te142  1  0.56870807  0.87552591  0.38890525  1
  Te  Te143  1  0.59224813  0.90767100  0.74244943  1
  Te  Te144  1  0.94080813  0.23476715  0.09509923  1
  Te  Te145  1  0.93173234  0.22920056  0.37118920  1
  Te  Te146  1  0.93160946  0.26326573  0.76515108  1
  Te  Te147  1  0.90627358  0.58940290  0.08726816  1
  Te  Te148  1  0.91679925  0.57638502  0.42390475  1
  Te  Te149  1  0.90574220  0.60985007  0.75544927  1
  Te  Te150  1  0.91381709  0.92172238  0.08416371  1
  Te  Te151  1  0.95666986  0.89634397  0.41880669  1
  Te  Te152  1  0.90529173  0.88288850  0.71935352  1
  Te  Te153  1  0.24551000  0.06974612  0.26666559  1
  Te  Te154  1  0.25421029  0.08665636  0.59406231  1
  Te  Te155  1  0.23816989  0.07331045  0.92021965  1
  Te  Te156  1  0.22847342  0.42013553  0.26026158  1
  Te  Te157  1  0.24821336  0.40487043  0.58148743  1
  Te  Te158  1  0.26346725  0.41309681  0.92343123  1
  Te  Te159  1  0.22396406  0.74101589  0.23945546  1
  Te  Te160  1  0.26336477  0.75773204  0.57045808  1
  Te  Te161  1  0.25923677  0.73769165  0.93717885  1
  Te  Te162  1  0.58591325  0.07658344  0.25097831  1
  Te  Te163  1  0.56185057  0.03418312  0.54772756  1
  Te  Te164  1  0.57243764  0.09241701  0.94205725  1
  Te  Te165  1  0.59336824  0.42501475  0.25299585  1
  Te  Te166  1  0.54485544  0.41346561  0.57191045  1
  Te  Te167  1  0.60138006  0.41007494  0.94214166  1
  Te  Te168  1  0.55880092  0.76625653  0.28554065  1
  Te  Te169  1  0.58706865  0.74543051  0.58225369  1
  Te  Te170  1  0.58429069  0.75831689  0.92449986  1
  Te  Te171  1  0.95761592  0.03210786  0.23863230  1
  Te  Te172  1  0.92467649  0.08338040  0.57762107  1
  Te  Te173  1  0.92254307  0.05948486  0.90721890  1
  Te  Te174  1  0.92380328  0.39799869  0.26598011  1
  Te  Te175  1  0.89260330  0.40651215  0.57521769  1
  Te  Te176  1  0.93653167  0.44255001  0.91799371  1
  Te  Te177  1  0.92526084  0.76653034  0.23459514  1
  Te  Te178  1  0.93201805  0.78256993  0.58995520  1
  Te  Te179  1  0.91740935  0.75103277  0.91061043  1
