# generated using pymatgen
data_In2Te3
_symmetry_space_group_name_H-M   'P 1'
_cell_length_a   18.94082924
_cell_length_b   18.92740340
_cell_length_c   18.91881226
_cell_angle_alpha   89.98166814
_cell_angle_beta   89.92871045
_cell_angle_gamma   89.63550046
_symmetry_Int_Tables_number   1
_chemical_formula_structural   In2Te3
_chemical_formula_sum   'In72 Te108'
_cell_volume   6782.26491191
_cell_formula_units_Z   36
loop_
 _symmetry_equiv_pos_site_id
 _symmetry_equiv_pos_as_xyz
  1  'x, y, z'
loop_
 _atom_site_type_symbol
 _atom_site_label
 _atom_site_symmetry_multiplicity
 _atom_site_fract_x
 _atom_site_fract_y
 _atom_site_fract_z
 _atom_site_occupancy
  In  In0  1  0.16806596  0.84512129  0.33841444  1
  In  In1  1  0.81411059  0.33440469  0.14045154  1
  In  In2  1  0.03639508  0.51328643  0.48685750  1
  In  In3  1  0.51031023  0.86620341  0.00988552  1
  In  In4  1  0.66006664  0.66618940  0.33377857  1
  In  In5  1  0.17515935  0.52195049  0.02010594  1
  In  In6  1  0.47760913  0.48306701  0.00937103  1
  In  In7  1  0.15893591  0.16187324  -0.00814353  1
  In  In8  1  0.36602133  0.63679323  0.65686730  1
  In  In9  1  0.01303937  -0.00520416  0.29798828  1
  In  In10  1  0.16171879  0.49731365  0.67173661  1
  In  In11  1  0.51703632  0.01286469  0.49892831  1
  In  In12  1  0.66094463  0.49512248  0.83050482  1
  In  In13  1  0.14171764  0.65456685  0.83694634  1
  In  In14  1  0.19943662  0.33751164  0.18062588  1
  In  In15  1  0.51233787  0.50553447  0.35409081  1
  In  In16  1  0.33571031  0.47340943  0.84462400  1
  In  In17  1  0.34146505  0.01282241  0.00709072  1
  In  In18  1  0.35237582  0.16304226  0.17399569  1
  In  In19  1  0.83666680  0.65285778  0.18923337  1
  In  In20  1  0.81366546  0.83693210  0.30181396  1
  In  In21  1  0.36664358  0.80421621  0.49945753  1
  In  In22  1  0.84766587  0.65363596  0.51071841  1
  In  In23  1  0.66319957  0.84284652  0.14640106  1
  In  In24  1  0.81632367  0.32495920  0.83845147  1
  In  In25  1  0.33128827  0.35604905  0.65005149  1
  In  In26  1  0.18507302  -0.01136795  0.16931224  1
  In  In27  1  0.34609253  0.84603466  0.18234899  1
  In  In28  1  0.65991535  0.14623016  0.82688391  1
  In  In29  1  0.64603215  0.34007834  0.01535995  1
  In  In30  1  0.51409461  0.68833285  0.81549334  1
  In  In31  1  0.36447972  0.32210926  0.32385908  1
  In  In32  1  0.80755316  0.48323175  0.33717641  1
  In  In33  1  0.00087315  0.01802478  0.71347775  1
  In  In34  1  -0.04257818  -0.00780569  -0.00875241  1
  In  In35  1  -0.02819755  0.16978861  0.16341086  1
  In  In36  1  0.63975206  0.33469003  0.33079566  1
  In  In37  1  -0.03434316  0.83351539  0.51995889  1
  In  In38  1  0.65364300  0.17743331  0.50819167  1
  In  In39  1  0.69971709  0.15239618  0.14567141  1
  In  In40  1  0.15866577  0.36783527  0.49855736  1
  In  In41  1  0.00451704  0.34546818  -0.02078533  1
  In  In42  1  0.52190859  -0.01692058  0.82750389  1
  In  In43  1  0.04248015  0.66464805  0.33794870  1
  In  In44  1  0.16088791  0.33242289  0.82760655  1
  In  In45  1  0.50705959  0.15832504  0.65784767  1
  In  In46  1  0.81815913  0.14155710  0.67615543  1
  In  In47  1  0.81760382  0.55024738  0.72677302  1
  In  In48  1  0.39536608  -0.04604639  0.34794757  1
  In  In49  1  0.01828386  0.84732060  0.84215742  1
  In  In50  1  0.30921658  0.80846950  0.82695842  1
  In  In51  1  0.17558281  0.17092543  0.33055512  1
  In  In52  1  0.01025024  0.18038370  0.55473019  1
  In  In53  1  0.00502823  0.51417147  0.17734708  1
  In  In54  1  0.83684178  0.14091138  0.32306055  1
  In  In55  1  0.67541528  0.68502279  0.66397785  1
  In  In56  1  0.32598066  -0.00845482  0.66724466  1
  In  In57  1  0.65504409  0.83916102  0.50616467  1
  In  In58  1  0.83098333  0.33956983  0.47905507  1
  In  In59  1  0.19312453  0.82420947  0.64723554  1
  In  In60  1  0.36497763  0.19201523  0.86405463  1
  In  In61  1  0.16307949  -0.00083807  0.51243527  1
  In  In62  1  0.50543439  0.65414979  0.17864986  1
  In  In63  1  0.68272068  0.64678968  -0.01777862  1
  In  In64  1  -0.00613454  0.68879328  0.02304077  1
  In  In65  1  0.00090711  0.34018909  0.35566356  1
  In  In66  1  0.81657604  0.84393646  -0.03120433  1
  In  In67  1  0.62520020  0.35299434  0.63914927  1
  In  In68  1  0.80933008  -0.01922100  0.49002072  1
  In  In69  1  -0.02185888  0.34543268  0.67811589  1
  In  In70  1  0.33037329  0.13943923  0.49792398  1
  In  In71  1  0.32866764  0.67102706  -0.00619354  1
  Te  Te72  1  0.08778900  0.08630219  0.10254390  1
  Te  Te73  1  0.08319596  0.07557262  0.40755359  1
  Te  Te74  1  0.07915671  0.12181157  0.77164125  1
  Te  Te75  1  0.08406615  0.40521660  0.09564276  1
  Te  Te76  1  0.11896945  0.43006006  0.36291995  1
  Te  Te77  1  0.06290512  0.43323064  0.76925414  1
  Te  Te78  1  0.10364618  0.72801706  0.10813166  1
  Te  Te79  1  0.08137336  0.77212195  0.44249037  1
  Te  Te80  1  0.09095297  0.75578572  0.73630627  1
  Te  Te81  1  0.44211949  0.07986731  0.08846337  1
  Te  Te82  1  0.43407050  0.09282714  0.39699467  1
  Te  Te83  1  0.41645298  0.08085718  0.75257922  1
  Te  Te84  1  0.39893610  0.38034479  0.07495978  1
  Te  Te85  1  0.43285586  0.40207032  0.42967718  1
  Te  Te86  1  0.42606127  0.42026453  0.74162167  1
  Te  Te87  1  0.42661309  0.75258543  0.08241974  1
  Te  Te88  1  0.39617676  0.73733245  0.37141586  1
  Te  Te89  1  0.41477249  0.76276472  0.72733491  1
  Te  Te90  1  0.77191962  0.07205857  0.04421273  1
  Te  Te91  1  0.72730616  0.08170248  0.41150418  1
  Te  Te92  1  0.76324819  0.04896796  0.77830553  1
  Te  Te93  1  0.74589514  0.43743106  0.06299390  1
  Te  Te94  1  0.71261056  0.42503647  0.43816217  1
  Te  Te95  1  0.74444449  0.40617082  0.72789826  1
  Te  Te96  1  0.75575629  0.73529028  0.08539547  1
  Te  Te97  1  0.76493928  0.74709860  0.41518787  1
  Te  Te98  1  0.71869378  0.77225356  0.77668420  1
  Te  Te99  1  0.07590404  0.24973318  0.24729241  1
  Te  Te100  1  0.10436830  0.28167530  0.61236199  1
  Te  Te101  1  0.06286482  0.22459757  0.89030251  1
  Te  Te102  1  0.11255504  0.61337458  0.21063617  1
  Te  Te103  1  0.07027275  0.59300911  0.60707183  1
  Te  Te104  1  0.06129734  0.57546581  0.93584479  1
  Te  Te105  1  0.08190884  0.88531225  0.21746529  1
  Te  Te106  1  0.07055444  0.91811460  0.59932038  1
  Te  Te107  1  0.08259662  0.93853968  0.93720566  1
  Te  Te108  1  0.45610964  0.25615193  0.22623219  1
  Te  Te109  1  0.40919718  0.24049619  0.57840152  1
  Te  Te110  1  0.42522451  0.28688232  0.95798207  1
  Te  Te111  1  0.41532453  0.60190215  0.28596023  1
  Te  Te112  1  0.45321197  0.57419658  0.55469865  1
  Te  Te113  1  0.42329791  0.59287403  0.90193837  1
  Te  Te114  1  0.45083691  0.94558644  0.21274873  1
  Te  Te115  1  0.42637434  0.91908522  0.58175802  1
  Te  Te116  1  0.40483205  0.90283530  0.90237609  1
  Te  Te117  1  0.76326581  0.26166622  0.26599635  1
  Te  Te118  1  0.76058676  0.25362496  0.58419567  1
  Te  Te119  1  0.72532943  0.24344301  0.92530141  1
  Te  Te120  1  0.72435570  0.56442735  0.23987012  1
  Te  Te121  1  0.75099547  0.57013935  0.58996311  1
  Te  Te122  1  0.77144597  0.58651981  0.87580348  1
  Te  Te123  1  0.71805007  0.94057173  0.25034607  1
  Te  Te124  1  0.75733334  0.89474806  0.59542822  1
  Te  Te125  1  0.70932283  0.89406675  0.87838725  1
  Te  Te126  1  0.25554958  0.23784056  0.08221559  1
  Te  Te127  1  0.24618771  0.25681695  0.43215378  1
  Te  Te128  1  0.27624333  0.26072203  0.76064113  1
  Te  Te129  1  0.28652196  0.57606417  0.09753183  1
  Te  Te130  1  0.14773315  0.58782809  0.41638341  1
  Te  Te131  1  0.25806093  0.58644129  0.76218130  1
  Te  Te132  1  0.25866820  0.90233293  0.06957606  1
  Te  Te133  1  0.26748629  0.91997404  0.43531896  1
  Te  Te134  1  0.22934783  0.92082630  0.75972003  1
  Te  Te135  1  0.58855899  0.24825200  0.11699121  1
  Te  Te136  1  0.56052409  0.24926226  0.42117587  1
  Te  Te137  1  0.58196502  0.25590717  0.74517698  1
  Te  Te138  1  0.58010596  0.57453141  0.07224574  1
  Te  Te139  1  0.57448951  0.61230058  0.44309371  1
  Te  Te140  1  0.58174688  0.58069684  0.73419046  1
  Te  Te141  1  0.62492459  0.95017772  0.05062978  1
  Te  Te142  1  0.56510208  0.90548516  0.40880340  1
  Te  Te143  1  0.60526726  0.88122146  0.75906001  1
  Te  Te144  1  0.90819925  0.25065834  0.05418974  1
  Te  Te145  1  0.92613386  0.22367413  0.42294601  1
  Te  Te146  1  0.90747765  0.23441153  0.75525045  1
  Te  Te147  1  0.90636321  0.57317715  0.08022098  1
  Te  Te148  1  0.91373189  0.57205198  0.39844462  1
  Te  Te149  1  0.92907567  0.64260723  0.73394276  1
  Te  Te150  1  0.89556698  0.89350334  0.08164970  1
  Te  Te151  1  0.91675939  0.91997272  0.39697167  1
  Te  Te152  1  0.91160595  0.91781060  0.76685984  1
  Te  Te153  1  0.26750994  0.06852353  0.26642428  1
  Te  Te154  1  0.23161655  0.09568848  0.60629167  1
  Te  Te155  1  0.25920657  0.08860857  0.90438625  1
  Te  Te156  1  0.28859757  0.42763178  0.25228551  1
  Te  Te157  1  0.26227111  0.45977319  0.56167567  1
  Te  Te158  1  0.23528364  0.40795146  0.93559746  1
  Te  Te159  1  0.26907855  0.75463352  0.27397591  1
  Te  Te160  1  0.26425610  0.71566003  0.56817843  1
  Te  Te161  1  0.21494736  0.74965310  0.93033052  1
  Te  Te162  1  0.63825810  0.07565243  0.25387271  1
  Te  Te163  1  0.61334275  0.06437624  0.60417751  1
  Te  Te164  1  0.56065345  0.08924813  0.92025179  1
  Te  Te165  1  0.57451273  0.43176016  0.24217631  1
  Te  Te166  1  0.52425124  0.43510606  0.56947203  1
  Te  Te167  1  0.56380045  0.40850333  0.90500540  1
  Te  Te168  1  0.58062959  0.76451724  0.24982842  1
  Te  Te169  1  0.57037187  0.73845119  0.57296094  1
  Te  Te170  1  0.58062548  0.74928650  0.93594279  1
  Te  Te171  1  0.89583970  0.04993192  0.21638586  1
  Te  Te172  1  0.90887696  0.06772354  0.57502865  1
  Te  Te173  1  0.86340323  0.07961948  0.92076636  1
  Te  Te174  1  0.91271145  0.40707087  0.24733533  1
  Te  Te175  1  0.93114039  0.42165660  0.55606666  1
  Te  Te176  1  0.90413432  0.42206713  0.90522908  1
  Te  Te177  1  0.92894306  0.74507724  0.26205366  1
  Te  Te178  1  0.89678960  0.74486643  0.62111238  1
  Te  Te179  1  0.91818470  0.74966917  0.90641992  1
