# generated using pymatgen
data_In2Te3
_symmetry_space_group_name_H-M   'P 1'
_cell_length_a   18.77230848
_cell_length_b   18.78384157
_cell_length_c   18.77932473
_cell_angle_alpha   89.98068368
_cell_angle_beta   89.99391459
_cell_angle_gamma   90.00088406
_symmetry_Int_Tables_number   1
_chemical_formula_structural   In2Te3
_chemical_formula_sum   'In72 Te108'
_cell_volume   6621.89123747
_cell_formula_units_Z   36
loop_
 _symmetry_equiv_pos_site_id
 _symmetry_equiv_pos_as_xyz
  1  'x, y, z'
loop_
 _atom_site_type_symbol
 _atom_site_label
 _atom_site_symmetry_multiplicity
 _atom_site_fract_x
 _atom_site_fract_y
 _atom_site_fract_z
 _atom_site_occupancy
  In  In0  1  0.50941610  0.50062451  0.65449498  1
  In  In1  1  -0.03274613  0.50160633  0.49192615  1
  In  In2  1  0.83183670  0.50869065  0.02390383  1
  In  In3  1  0.30778103  -0.00162021  0.64937094  1
  In  In4  1  0.52438629  0.49095743  0.31126676  1
  In  In5  1  0.33857481  0.85157297  0.79308583  1
  In  In6  1  -0.01145799  0.32149099  0.32588342  1
  In  In7  1  0.49533712  0.16671821  0.04006178  1
  In  In8  1  0.14320639  0.48298248  0.01379569  1
  In  In9  1  0.82728105  -0.01714816  0.16747737  1
  In  In10  1  0.32037203  0.50887400  0.84981144  1
  In  In11  1  0.67225230  0.66494154  0.33376845  1
  In  In12  1  0.14421714  0.84217909  -0.01661318  1
  In  In13  1  0.17044433  0.84695459  0.32602880  1
  In  In14  1  0.52014210  0.84180133  0.02482707  1
  In  In15  1  0.81045023  0.18019025  0.32564709  1
  In  In16  1  0.01664026  0.84724721  0.48940996  1
  In  In17  1  0.50095577  0.82067810  0.64865043  1
  In  In18  1  -0.04896426  0.81383200  0.18002262  1
  In  In19  1  0.15984116  0.16064490  0.65211097  1
  In  In20  1  0.35387271  0.66974807  -0.00029223  1
  In  In21  1  0.33395249  0.30799458  0.64774329  1
  In  In22  1  0.86510967  0.30918232  0.82650067  1
  In  In23  1  0.34678557  0.00328751  0.32889269  1
  In  In24  1  0.67617205  -0.01016004  0.00658236  1
  In  In25  1  0.02307067  0.02171451  0.34754407  1
  In  In26  1  0.66733187  0.48284696  0.50287808  1
  In  In27  1  0.84684603  0.31436676  0.51038449  1
  In  In28  1  0.37251968  0.82617565  0.46405848  1
  In  In29  1  0.35214262  0.49208989  0.18495971  1
  In  In30  1  0.35125789  0.84725714  0.17343375  1
  In  In31  1  0.49102848  0.33242382  0.83486692  1
  In  In32  1  0.17290156  0.66521904  0.82930535  1
  In  In33  1  0.34134039  0.02530224  0.00958580  1
  In  In34  1  0.31362575  0.17751948  0.81580758  1
  In  In35  1  -0.02886582  0.67547706  0.00215121  1
  In  In36  1  0.81192537  0.49631552  0.32462107  1
  In  In37  1  0.16979431  0.50820864  0.33238536  1
  In  In38  1  0.65841421  0.50870042  0.83511416  1
  In  In39  1  0.32753599  0.34165640  0.02893610  1
  In  In40  1  0.33202909  0.66232088  0.67502532  1
  In  In41  1  0.68584452  0.00796961  0.66629997  1
  In  In42  1  0.69164180  0.82701166  0.84657101  1
  In  In43  1  0.16018387  0.67846764  0.50667473  1
  In  In44  1  0.17534524  0.30765940  0.48775565  1
  In  In45  1  0.84796691  0.02075822  0.50290666  1
  In  In46  1  0.17076227  0.65490232  0.17408200  1
  In  In47  1  0.68838744  0.13941833  0.81073647  1
  In  In48  1  0.66960256  0.67420102  0.02763927  1
  In  In49  1  0.68101483  0.34123933  0.64829905  1
  In  In50  1  0.14959827  0.86136189  0.63210028  1
  In  In51  1  0.16692678  0.17809780  0.00721343  1
  In  In52  1  0.49968808  0.51229254  0.03586834  1
  In  In53  1  0.16735420  0.02442042  0.16810772  1
  In  In54  1  -0.00636199  0.66009856  0.66292004  1
  In  In55  1  0.85158514  0.50821649  0.66706615  1
  In  In56  1  0.50075658  0.17684214  0.63738593  1
  In  In57  1  0.64424529  0.17193920  0.46034135  1
  In  In58  1  0.80731807  0.66228445  0.48791517  1
  In  In59  1  0.66662673  0.82849338  0.17857937  1
  In  In60  1  0.33318828  0.50228433  0.50091607  1
  In  In61  1  -0.01558784  0.84001664  0.83517263  1
  In  In62  1  0.62962358  0.84680589  0.46632958  1
  In  In63  1  0.82949735  0.83645707  0.67516588  1
  In  In64  1  -0.00597783  0.15616196  0.83159866  1
  In  In65  1  0.00553916  0.18134628  0.16421400  1
  In  In66  1  0.01387712  0.48316904  0.80486115  1
  In  In67  1  0.49823542  -0.00188279  0.83609233  1
  In  In68  1  0.34306311  0.32475292  0.32387331  1
  In  In69  1  0.83392479  0.16011951  0.01419168  1
  In  In70  1  -0.00894711  0.32484706  0.01734918  1
  In  In71  1  0.67562598  0.32758243  0.02743995  1
  Te  Te72  1  0.06553540  0.07949459  0.06788944  1
  Te  Te73  1  0.10466921  0.07484495  0.45888312  1
  Te  Te74  1  0.08908740  0.07425833  0.75009167  1
  Te  Te75  1  0.07873560  0.39635836  0.11307082  1
  Te  Te76  1  0.07720585  0.41937292  0.42072269  1
  Te  Te77  1  0.10151976  0.38459067  0.74734321  1
  Te  Te78  1  0.08292875  0.75062914  0.08946276  1
  Te  Te79  1  0.07965845  0.74335447  0.39431572  1
  Te  Te80  1  0.09252375  0.75385979  0.73451879  1
  Te  Te81  1  0.41692900  0.07400451  0.12524117  1
  Te  Te82  1  0.44710781  0.07158009  0.41956160  1
  Te  Te83  1  0.41623797  0.08656151  0.74159875  1
  Te  Te84  1  0.44460387  0.39238532  0.11256857  1
  Te  Te85  1  0.42347641  0.42193035  0.40982975  1
  Te  Te86  1  0.40412398  0.41914667  0.74405567  1
  Te  Te87  1  0.43809065  0.73903767  0.10377676  1
  Te  Te88  1  0.44994424  0.73835414  0.37413039  1
  Te  Te89  1  0.43280022  0.73803212  0.76202196  1
  Te  Te90  1  0.73460160  0.09044244  0.10683243  1
  Te  Te91  1  0.74159721  0.06658681  0.40138107  1
  Te  Te92  1  0.80080865  0.06607299  0.74348582  1
  Te  Te93  1  0.73175316  0.43752167  0.11106693  1
  Te  Te94  1  0.75110609  0.38988020  0.41836793  1
  Te  Te95  1  0.75999317  0.41191575  0.75827790  1
  Te  Te96  1  0.76618812  0.77145822  0.08476756  1
  Te  Te97  1  0.75298266  0.77609710  0.40175323  1
  Te  Te98  1  0.74653227  0.73680253  0.74380693  1
  Te  Te99  1  0.09374937  0.23165424  0.27099966  1
  Te  Te100  1  0.06815103  0.23764506  0.56304803  1
  Te  Te101  1  0.07739006  0.25749185  0.91236376  1
  Te  Te102  1  0.07049929  0.56926460  0.23960321  1
  Te  Te103  1  0.08101327  0.56928504  0.57833958  1
  Te  Te104  1  0.07830985  0.58766962  0.91979936  1
  Te  Te105  1  0.07242101  0.92036024  0.23502456  1
  Te  Te106  1  0.06585370  0.97117715  0.56666658  1
  Te  Te107  1  0.06714816  0.94032506  0.90797126  1
  Te  Te108  1  0.44553317  0.23682664  0.25798904  1
  Te  Te109  1  0.41140978  0.24284086  0.54009004  1
  Te  Te110  1  0.40851126  0.23932270  0.92344366  1
  Te  Te111  1  0.42027372  0.59180678  0.26918331  1
  Te  Te112  1  0.42604965  0.60091618  0.57157096  1
  Te  Te113  1  0.44099244  0.58105540  0.91080844  1
  Te  Te114  1  0.45059336  0.90633446  0.27114455  1
  Te  Te115  1  0.41939048  0.92505261  0.57410081  1
  Te  Te116  1  0.41205126  0.90873491  0.92588866  1
  Te  Te117  1  0.71256710  0.26795591  0.25642476  1
  Te  Te118  1  0.74187075  0.22390816  0.57658262  1
  Te  Te119  1  0.74826129  0.25058972  0.91218783  1
  Te  Te120  1  0.74323772  0.58822647  0.22781502  1
  Te  Te121  1  0.73783479  0.58120667  0.59797064  1
  Te  Te122  1  0.74948088  0.59171178  0.92434585  1
  Te  Te123  1  0.73696178  0.92347037  0.26871884  1
  Te  Te124  1  0.74801263  0.90895752  0.56489113  1
  Te  Te125  1  0.76891583  0.94008363  0.90239419  1
  Te  Te126  1  0.25958305  0.23648619  0.10568230  1
  Te  Te127  1  0.26236120  0.22367117  0.40037991  1
  Te  Te128  1  0.21919488  0.27802766  0.75171269  1
  Te  Te129  1  0.26406707  0.57070835  0.07404015  1
  Te  Te130  1  0.25713397  0.60306620  0.41446316  1
  Te  Te131  1  0.23272304  0.56240423  0.73466329  1
  Te  Te132  1  0.24624361  0.91533661  0.08358747  1
  Te  Te133  1  0.25652421  0.91948787  0.42658968  1
  Te  Te134  1  0.21789833  0.93259056  0.75487096  1
  Te  Te135  1  0.60354434  0.23301562  0.11825015  1
  Te  Te136  1  0.56422716  0.26107835  0.36413577  1
  Te  Te137  1  0.58721680  0.24916511  0.74985095  1
  Te  Te138  1  0.59393456  0.58637527  0.12203826  1
  Te  Te139  1  0.58292081  0.58019296  0.42491680  1
  Te  Te140  1  0.58420619  0.59353748  0.74084499  1
  Te  Te141  1  0.57771219  0.94700381  0.11486400  1
  Te  Te142  1  0.54547515  0.94723189  0.39433292  1
  Te  Te143  1  0.58789933  0.91420732  0.74611574  1
  Te  Te144  1  0.88620445  0.26541739  0.11093618  1
  Te  Te145  1  0.92493658  0.21942885  0.42101017  1
  Te  Te146  1  0.92278255  0.22812445  0.71529506  1
  Te  Te147  1  0.92759418  0.58385013  0.10919637  1
  Te  Te148  1  0.91490904  0.60470636  0.39028949  1
  Te  Te149  1  0.91259704  0.59689981  0.77492145  1
  Te  Te150  1  0.91587007  0.90929034  0.07481645  1
  Te  Te151  1  0.91793678  0.92541538  0.40280535  1
  Te  Te152  1  0.94066195  0.92175308  0.71866998  1
  Te  Te153  1  0.24455984  0.09827485  0.27137929  1
  Te  Te154  1  0.26050561  0.10277243  0.55631224  1
  Te  Te155  1  0.24062770  0.08216114  0.91047196  1
  Te  Te156  1  0.23984749  0.40724688  0.24173168  1
  Te  Te157  1  0.24221597  0.41152118  0.58033924  1
  Te  Te158  1  0.23724677  0.40322055  0.92175247  1
  Te  Te159  1  0.26249414  0.74915643  0.25243367  1
  Te  Te160  1  0.26434716  0.76571256  0.58296878  1
  Te  Te161  1  0.26080982  0.75668966  0.91370927  1
  Te  Te162  1  0.54874009  0.11902875  0.30901336  1
  Te  Te163  1  0.58809544  0.07289325  0.56952829  1
  Te  Te164  1  0.58018679  0.09095555  0.92426365  1
  Te  Te165  1  0.62691393  0.39984561  0.25408531  1
  Te  Te166  1  0.56251895  0.38795760  0.56542223  1
  Te  Te167  1  0.58010255  0.41305534  0.92986110  1
  Te  Te168  1  0.56728968  0.75355512  0.26697506  1
  Te  Te169  1  0.58834973  0.74158266  0.56118607  1
  Te  Te170  1  0.58425922  0.74937817  0.92225428  1
  Te  Te171  1  0.91499142  0.08666421  0.24841543  1
  Te  Te172  1  0.89691406  0.11259851  0.60845591  1
  Te  Te173  1  0.90224296  0.07261927  0.91739032  1
  Te  Te174  1  0.90567721  0.41299456  0.24506294  1
  Te  Te175  1  0.93564229  0.39979410  0.60271053  1
  Te  Te176  1  0.91647778  0.42193294  0.92133325  1
  Te  Te177  1  0.91207679  0.73000882  0.29082319  1
  Te  Te178  1  0.91854672  0.74641602  0.56256690  1
  Te  Te179  1  0.88876422  0.76351132  0.91766990  1
