# generated using pymatgen
data_In2Te3
_symmetry_space_group_name_H-M   'P 1'
_cell_length_a   18.78281749
_cell_length_b   18.77610815
_cell_length_c   18.78212178
_cell_angle_alpha   90.02829359
_cell_angle_beta   90.07637334
_cell_angle_gamma   89.90596748
_symmetry_Int_Tables_number   1
_chemical_formula_structural   In2Te3
_chemical_formula_sum   'In72 Te108'
_cell_volume   6623.84170930
_cell_formula_units_Z   36
loop_
 _symmetry_equiv_pos_site_id
 _symmetry_equiv_pos_as_xyz
  1  'x, y, z'
loop_
 _atom_site_type_symbol
 _atom_site_label
 _atom_site_symmetry_multiplicity
 _atom_site_fract_x
 _atom_site_fract_y
 _atom_site_fract_z
 _atom_site_occupancy
  In  In0  1  -0.02047768  0.63665146  0.03819793  1
  In  In1  1  0.16015927  0.66560118  0.15529745  1
  In  In2  1  0.52793989  0.65780811  0.85157984  1
  In  In3  1  0.83264149  0.67580157  0.50267139  1
  In  In4  1  0.35829929  0.50664293  0.83522453  1
  In  In5  1  0.65597155  -0.00585997  0.01963070  1
  In  In6  1  0.33994847  0.67563960  0.64763154  1
  In  In7  1  0.82644652  0.16715499  0.00969108  1
  In  In8  1  0.15767875  0.68890274  0.83771821  1
  In  In9  1  0.33677498  0.33110713  0.01778066  1
  In  In10  1  0.19745890  0.02564695  0.85368449  1
  In  In11  1  -0.03764623  0.00762681  0.66478766  1
  In  In12  1  0.22963630  0.67031647  0.46440688  1
  In  In13  1  0.67110521  0.86151413  0.50482594  1
  In  In14  1  0.15620073  0.00834671  0.17086175  1
  In  In15  1  0.17944227  0.82667621  0.00409854  1
  In  In16  1  0.34432442  0.84826722  0.17686249  1
  In  In17  1  0.16241079  0.50499711  0.65718939  1
  In  In18  1  0.83875141  0.31722760  0.52029678  1
  In  In19  1  -0.00662282  0.67146930  0.30120568  1
  In  In20  1  0.17959917  0.49003039  0.02205238  1
  In  In21  1  0.82702379  0.33325741  0.84781880  1
  In  In22  1  0.66468794  0.67193120  0.29755157  1
  In  In23  1  -0.01290975  0.17130088  0.84779150  1
  In  In24  1  0.66470803  0.15426483  0.49020616  1
  In  In25  1  0.67239241  0.66860798  -0.00004349  1
  In  In26  1  0.16330220  -0.01693632  0.47024659  1
  In  In27  1  -0.00634700  0.83706335  0.82515679  1
  In  In28  1  0.83140473  0.83585667  0.01162926  1
  In  In29  1  -0.00073027  0.84138905  0.48294014  1
  In  In30  1  0.01221635  0.33692429  0.31755820  1
  In  In31  1  -0.01858641  0.49498989  0.85540914  1
  In  In32  1  -0.00973294  0.00283081  0.00750925  1
  In  In33  1  0.52969698  0.14408929  0.30983699  1
  In  In34  1  0.18206484  0.34167390  0.49868626  1
  In  In35  1  0.48970657  0.68547389  0.17319756  1
  In  In36  1  0.66252584  0.31030124  0.34405353  1
  In  In37  1  0.33495988  0.14353955  0.16877924  1
  In  In38  1  0.51747558  0.82617027  0.66625881  1
  In  In39  1  0.53131400  0.35116835  0.86377151  1
  In  In40  1  0.34824431  0.86029362  0.84798124  1
  In  In41  1  0.45627009  0.67706989  0.47695442  1
  In  In42  1  -0.00492335  0.13861492  0.50126914  1
  In  In43  1  0.34988619  -0.00250865  0.66622211  1
  In  In44  1  -0.01168131  0.00021061  0.32413859  1
  In  In45  1  0.49930838  0.17356156  0.68023681  1
  In  In46  1  0.48875935  0.49187119  0.33262358  1
  In  In47  1  0.50908442  -0.01101085  0.84894035  1
  In  In48  1  0.80415800  0.66962328  0.85149014  1
  In  In49  1  0.30785221  0.34726309  0.67715642  1
  In  In50  1  -0.00856564  0.66849707  0.67150213  1
  In  In51  1  -0.00577693  0.47180270  0.50429665  1
  In  In52  1  0.17264267  0.84757232  0.34065658  1
  In  In53  1  0.51693386  0.32475044  0.14217371  1
  In  In54  1  -0.02246735  0.32084213  0.69038362  1
  In  In55  1  0.33546997  0.16853421  0.48259425  1
  In  In56  1  0.69565301  0.50138589  0.15392867  1
  In  In57  1  0.82220907  0.33144919  0.16145782  1
  In  In58  1  0.65242509  0.66340754  0.68173238  1
  In  In59  1  0.66179724  0.83010567  0.83162795  1
  In  In60  1  0.49578794  0.00252986  0.48513759  1
  In  In61  1  0.82551242  0.14343403  0.32603327  1
  In  In62  1  0.16045043  0.17310631  0.66676825  1
  In  In63  1  0.81220637  0.86468844  0.30439288  1
  In  In64  1  0.81609055  0.49980489  0.32150455  1
  In  In65  1  0.64612831  0.50434919  0.51750176  1
  In  In66  1  0.17432779  0.32487953  0.16128111  1
  In  In67  1  0.15461017  0.30084584  0.84394147  1
  In  In68  1  0.35702417  0.49976793  0.16365335  1
  In  In69  1  0.33814722  0.34688357  0.33280394  1
  In  In70  1  0.50585932  0.15286921  0.00987401  1
  In  In71  1  0.66143909  0.35446048  0.68126088  1
  Te  Te72  1  0.08039480  0.09581908  0.07810178  1
  Te  Te73  1  0.09114869  0.09341117  0.39388879  1
  Te  Te74  1  0.07621490  0.08040821  0.75373940  1
  Te  Te75  1  0.07700964  0.40250831  0.07897340  1
  Te  Te76  1  0.10025244  0.43088937  0.40382027  1
  Te  Te77  1  0.08475346  0.41531498  0.75341034  1
  Te  Te78  1  0.06627001  0.75889023  0.07904095  1
  Te  Te79  1  0.08755356  0.73689569  0.41386037  1
  Te  Te80  1  0.09211473  0.77019211  0.72738818  1
  Te  Te81  1  0.43387785  0.05593539  0.09806685  1
  Te  Te82  1  0.40958357  0.07986900  0.38353923  1
  Te  Te83  1  0.41485230  0.08432317  0.77193058  1
  Te  Te84  1  0.44496321  0.43116802  0.05886014  1
  Te  Te85  1  0.42734575  0.40556846  0.43574240  1
  Te  Te86  1  0.42988721  0.40184431  0.75289136  1
  Te  Te87  1  0.41088414  0.76275315  0.07499107  1
  Te  Te88  1  0.40160159  0.78609529  0.38985154  1
  Te  Te89  1  0.42335344  0.75179364  0.76025061  1
  Te  Te90  1  0.77001057  0.05689360  0.09953098  1
  Te  Te91  1  0.73390176  0.05664407  0.40335771  1
  Te  Te92  1  0.78416019  0.03629194  0.70603011  1
  Te  Te93  1  0.72307143  0.38772619  0.05743966  1
  Te  Te94  1  0.74829167  0.41111028  0.42710151  1
  Te  Te95  1  0.75805174  0.43230437  0.76064325  1
  Te  Te96  1  0.73498103  0.76250018  0.09538549  1
  Te  Te97  1  0.75044445  0.75542687  0.40197535  1
  Te  Te98  1  0.75807687  0.75875504  0.73676835  1
  Te  Te99  1  0.08977358  0.23557803  0.24342346  1
  Te  Te100  1  0.07040294  0.26198148  0.57559570  1
  Te  Te101  1  0.05801508  0.25751163  0.94567794  1
  Te  Te102  1  0.07909812  0.57180327  0.23595091  1
  Te  Te103  1  0.07493206  0.59085365  0.56806889  1
  Te  Te104  1  0.08911914  0.58428020  0.92597305  1
  Te  Te105  1  0.07113502  0.90139016  0.24169768  1
  Te  Te106  1  0.07409446  0.93219861  0.58120207  1
  Te  Te107  1  0.09246726  0.91849236  0.91195141  1
  Te  Te108  1  0.42370931  0.25417455  0.24030042  1
  Te  Te109  1  0.39794313  0.24981991  0.59408899  1
  Te  Te110  1  0.42836462  0.25395311  0.92217993  1
  Te  Te111  1  0.39904742  0.60539521  0.27381769  1
  Te  Te112  1  0.43804491  0.58369420  0.58911041  1
  Te  Te113  1  0.42920895  0.58618086  0.93551357  1
  Te  Te114  1  0.43558503  0.89458121  0.28694627  1
  Te  Te115  1  0.42040269  0.89949422  0.57432593  1
  Te  Te116  1  0.41787205  0.93789975  0.95349831  1
  Te  Te117  1  0.73323579  0.23045690  0.23762022  1
  Te  Te118  1  0.73238530  0.24248786  0.59494370  1
  Te  Te119  1  0.73511825  0.23709778  0.91485369  1
  Te  Te120  1  0.78694153  0.61483128  0.22002477  1
  Te  Te121  1  0.75261006  0.58311761  0.59303878  1
  Te  Te122  1  0.73726090  0.55461841  0.92263251  1
  Te  Te123  1  0.73107218  0.95975949  0.21974690  1
  Te  Te124  1  0.75963403  0.92946853  0.60106906  1
  Te  Te125  1  0.74779977  0.92162620  0.91739137  1
  Te  Te126  1  0.24414989  0.21643487  0.06350372  1
  Te  Te127  1  0.23861114  0.24653837  0.39388888  1
  Te  Te128  1  0.26291193  0.22854932  0.76521211  1
  Te  Te129  1  0.27303884  0.59581709  0.07717073  1
  Te  Te130  1  0.29040937  0.56608429  0.38517675  1
  Te  Te131  1  0.24707537  0.58747128  0.75442770  1
  Te  Te132  1  0.25483039  0.93264759  0.07973400  1
  Te  Te133  1  0.28269893  0.90549978  0.42460745  1
  Te  Te134  1  0.24795805  0.92103305  0.74999297  1
  Te  Te135  1  0.61268882  0.23649978  0.07340347  1
  Te  Te136  1  0.55513482  0.24131805  0.42593619  1
  Te  Te137  1  0.59824597  0.24555063  0.77040465  1
  Te  Te138  1  0.58332497  0.58772221  0.09761097  1
  Te  Te139  1  0.58823586  0.59278823  0.40333818  1
  Te  Te140  1  0.57981239  0.55890288  0.75523189  1
  Te  Te141  1  0.58181420  0.91993964  0.12579109  1
  Te  Te142  1  0.58583843  0.92041772  0.39846215  1
  Te  Te143  1  0.59763284  0.93336296  0.73691957  1
  Te  Te144  1  0.92124036  0.24245534  0.09592240  1
  Te  Te145  1  0.91587055  0.25080222  0.40756487  1
  Te  Te146  1  0.88356796  0.22071205  0.74686465  1
  Te  Te147  1  0.86735453  0.56166778  0.09361628  1
  Te  Te148  1  0.91474995  0.57800311  0.41528067  1
  Te  Te149  1  0.90241380  0.58490889  0.76090008  1
  Te  Te150  1  0.91900299  0.91389321  0.10247182  1
  Te  Te151  1  0.89282321  0.93008374  0.42000121  1
  Te  Te152  1  0.88536716  0.92193265  0.76303591  1
  Te  Te153  1  0.25943142  0.06058712  0.26529688  1
  Te  Te154  1  0.24623399  0.08207475  0.57781586  1
  Te  Te155  1  0.26245469  0.12140826  0.93893428  1
  Te  Te156  1  0.24704522  0.43177627  0.24406173  1
  Te  Te157  1  0.26980073  0.44701679  0.56592820  1
  Te  Te158  1  0.25156295  0.40955390  0.90806325  1
  Te  Te159  1  0.24586281  0.75092208  0.24705298  1
  Te  Te160  1  0.24123258  0.76027557  0.57917652  1
  Te  Te161  1  0.27405631  0.74335157  0.91864763  1
  Te  Te162  1  0.59361561  0.05187693  0.21165479  1
  Te  Te163  1  0.57818492  0.07659373  0.59143552  1
  Te  Te164  1  0.60682765  0.08850639  0.90870733  1
  Te  Te165  1  0.59570402  0.41754393  0.24928065  1
  Te  Te166  1  0.56655368  0.39494252  0.57362532  1
  Te  Te167  1  0.62894136  0.43533801  0.93951685  1
  Te  Te168  1  0.57995613  0.78373176  0.24452267  1
  Te  Te169  1  0.58787501  0.73924872  0.56174625  1
  Te  Te170  1  0.57213183  0.77401330  0.93965151  1
  Te  Te171  1  0.92358605  0.09275676  0.22767420  1
  Te  Te172  1  0.87435300  0.08945752  0.57313666  1
  Te  Te173  1  0.89419642  0.06814864  0.90899180  1
  Te  Te174  1  0.91886319  0.42688812  0.23499964  1
  Te  Te175  1  0.89684914  0.42548065  0.61187871  1
  Te  Te176  1  0.91649466  0.40144368  0.94682732  1
  Te  Te177  1  0.91171857  0.77590216  0.23592769  1
  Te  Te178  1  0.91216459  0.77217679  0.58962540  1
  Te  Te179  1  0.92576432  0.73744847  0.91988737  1
