# generated using pymatgen
data_In2Te3
_symmetry_space_group_name_H-M   'P 1'
_cell_length_a   19.04026114
_cell_length_b   18.97919623
_cell_length_c   19.05142400
_cell_angle_alpha   90.14268003
_cell_angle_beta   90.12355942
_cell_angle_gamma   90.17729765
_symmetry_Int_Tables_number   1
_chemical_formula_structural   In2Te3
_chemical_formula_sum   'In72 Te108'
_cell_volume   6884.52079579
_cell_formula_units_Z   36
loop_
 _symmetry_equiv_pos_site_id
 _symmetry_equiv_pos_as_xyz
  1  'x, y, z'
loop_
 _atom_site_type_symbol
 _atom_site_label
 _atom_site_symmetry_multiplicity
 _atom_site_fract_x
 _atom_site_fract_y
 _atom_site_fract_z
 _atom_site_occupancy
  In  In0  1  0.48241284  0.65188902  0.49832630  1
  In  In1  1  -0.01733145  -0.02686140  0.30920344  1
  In  In2  1  0.66077520  0.81992377  0.16828372  1
  In  In3  1  0.82860360  0.13762268  0.00301488  1
  In  In4  1  0.01684586  0.51439148  0.46451052  1
  In  In5  1  0.46432000  0.18511416  0.01999764  1
  In  In6  1  0.63876184  0.08772294  0.83357989  1
  In  In7  1  0.51386742  0.51478551  0.29808514  1
  In  In8  1  0.65188890  -0.01326647  0.01781984  1
  In  In9  1  0.47656447  0.82755112  -0.02390600  1
  In  In10  1  0.51510574  0.16297915  0.36306487  1
  In  In11  1  0.62654777  0.65686013  0.68944688  1
  In  In12  1  0.51681036  0.81048086  0.33770057  1
  In  In13  1  0.04087742  0.66458248  0.67014721  1
  In  In14  1  0.85926181  0.36004801  0.16806867  1
  In  In15  1  0.00487387  0.17669106  0.15813596  1
  In  In16  1  0.64348938  0.32876119  -0.00450951  1
  In  In17  1  0.49093473  0.01678697  0.18355150  1
  In  In18  1  0.67544775  0.50171289  0.49801093  1
  In  In19  1  0.48746641  0.85976413  0.69862630  1
  In  In20  1  0.00995456  0.66847643  0.01999959  1
  In  In21  1  0.82220575  0.82200717  0.31042033  1
  In  In22  1  0.50091519  -0.02416365  0.51228797  1
  In  In23  1  0.82201303  -0.00067765  0.49406392  1
  In  In24  1  0.02381641  -0.03555125  0.08946615  1
  In  In25  1  0.04222339  0.83632298  0.49048993  1
  In  In26  1  0.83593689  0.52708803  -0.01142112  1
  In  In27  1  0.33273497  0.33461576  0.35728837  1
  In  In28  1  0.85314699  0.66128591  0.48628045  1
  In  In29  1  0.81414801  0.68986366  0.83581908  1
  In  In30  1  0.81718780  0.32361255  0.85164781  1
  In  In31  1  0.32248482  0.82397523  0.16014548  1
  In  In32  1  0.17243190  0.83349915  0.31795978  1
  In  In33  1  0.20782167  0.32772398  0.53202169  1
  In  In34  1  0.16657844  0.02369684  0.49461010  1
  In  In35  1  0.86259698  0.19452485  0.31914830  1
  In  In36  1  0.37055962  0.51179903  0.81184550  1
  In  In37  1  0.23434755  -0.02176533  0.90317777  1
  In  In38  1  0.16763447  0.82261546  0.01183825  1
  In  In39  1  0.01654411  0.49401561  0.79967107  1
  In  In40  1  0.66766068  0.17099864  0.49831677  1
  In  In41  1  -0.01201165  0.15898026  0.50179802  1
  In  In42  1  0.49683096  0.09572656  0.69185401  1
  In  In43  1  0.57987280  0.53479523  0.89730013  1
  In  In44  1  0.33764992  0.17184976  0.51674259  1
  In  In45  1  0.82368571  -0.03733557  0.87961691  1
  In  In46  1  0.32187400  0.17535749  0.18264679  1
  In  In47  1  0.80075237  0.16187430  0.71049457  1
  In  In48  1  0.00172361  0.33703884  0.63221190  1
  In  In49  1  0.33134444  0.67846234  0.65765300  1
  In  In50  1  -0.01229939  -0.00190462  0.69607078  1
  In  In51  1  0.23409681  0.13642070  0.74947663  1
  In  In52  1  0.01470496  0.37002795  0.02192246  1
  In  In53  1  0.33351307  0.54126099  0.15160966  1
  In  In54  1  0.17029234  0.35060927  0.15905015  1
  In  In55  1  0.65816215  0.52240379  0.12424889  1
  In  In56  1  0.18319691  0.66538297  0.48156423  1
  In  In57  1  0.00724695  0.19484452  0.84520749  1
  In  In58  1  0.20431997  0.34557523  0.82518130  1
  In  In59  1  0.18123301  0.49396140  0.33031871  1
  In  In60  1  0.81749081  0.50647952  0.68205858  1
  In  In61  1  0.82352828  0.35273130  0.48824777  1
  In  In62  1  0.30741549  0.00434364  0.31604283  1
  In  In63  1  0.18053610  0.66898941  0.84008922  1
  In  In64  1  0.32981351  0.35664671  -0.00151539  1
  In  In65  1  0.81261062  0.68260505  0.14283140  1
  In  In66  1  0.48820945  0.33143246  0.50461111  1
  In  In67  1  0.82469328  0.80839955  0.66189883  1
  In  In68  1  0.01622507  0.80421115  0.85666423  1
  In  In69  1  0.65831345  0.80846840  0.48989673  1
  In  In70  1  0.63802139  0.31858361  0.67697176  1
  In  In71  1  0.49448801  0.34283319  0.15548939  1
  Te  Te72  1  0.07584830  0.09623772  0.05974902  1
  Te  Te73  1  0.05821230  0.07225397  0.40095771  1
  Te  Te74  1  0.08205597  0.10099429  0.75473745  1
  Te  Te75  1  0.11657601  0.46749961  0.07993589  1
  Te  Te76  1  0.11636147  0.40453554  0.43475656  1
  Te  Te77  1  0.10656239  0.40504785  0.71977579  1
  Te  Te78  1  0.11725286  0.72040326  0.10928850  1
  Te  Te79  1  0.07820668  0.73574815  0.38766237  1
  Te  Te80  1  0.11566538  0.77180039  0.74662342  1
  Te  Te81  1  0.38679394  0.07444524  0.09041076  1
  Te  Te82  1  0.41001149  0.06986281  0.42040140  1
  Te  Te83  1  0.37693006  0.08521213  0.78372851  1
  Te  Te84  1  0.42624278  0.44713981  0.07359762  1
  Te  Te85  1  0.43717484  0.43224784  0.40335280  1
  Te  Te86  1  0.39016940  0.39849154  0.71405753  1
  Te  Te87  1  0.38050596  0.73960927  0.05128338  1
  Te  Te88  1  0.41587237  0.76034016  0.42850376  1
  Te  Te89  1  0.41885889  0.74385689  0.76372569  1
  Te  Te90  1  0.75161921  0.05875161  0.09712286  1
  Te  Te91  1  0.76628305  0.10505748  0.40518795  1
  Te  Te92  1  0.75610912  0.02636371  0.75871376  1
  Te  Te93  1  0.75613309  0.41107433  0.05487969  1
  Te  Te94  1  0.76790698  0.45028412  0.39698287  1
  Te  Te95  1  0.73136900  0.40891299  0.76043570  1
  Te  Te96  1  0.71761897  0.74917143  0.05113341  1
  Te  Te97  1  0.74712284  0.72640689  0.39912383  1
  Te  Te98  1  0.71266482  0.76693517  0.75532480  1
  Te  Te99  1  0.07386747  0.27772424  0.24536305  1
  Te  Te100  1  0.09520552  0.23125665  0.58043094  1
  Te  Te101  1  0.09720891  0.29012321  0.92044524  1
  Te  Te102  1  0.07302155  0.52652626  0.23655153  1
  Te  Te103  1  0.10636270  0.57004352  0.57536905  1
  Te  Te104  1  0.07228183  0.58587803  0.90442603  1
  Te  Te105  1  0.09115558  0.91881703  0.22306028  1
  Te  Te106  1  0.08328552  0.93893004  0.59391858  1
  Te  Te107  1  0.08946450  0.91922899  0.91607048  1
  Te  Te108  1  0.42908892  0.24912594  0.26367024  1
  Te  Te109  1  0.45420274  0.21767549  0.59725526  1
  Te  Te110  1  0.42325874  0.27874140  0.91306529  1
  Te  Te111  1  0.43224488  0.61827585  0.23171489  1
  Te  Te112  1  0.39477571  0.56584315  0.58007550  1
  Te  Te113  1  0.43960955  0.59889960  0.91482974  1
  Te  Te114  1  0.41341795  0.90937154  0.26442191  1
  Te  Te115  1  0.39834874  0.92275053  0.60111637  1
  Te  Te116  1  0.37656106  0.91768431  0.91003021  1
  Te  Te117  1  0.76953245  0.26879375  0.23598725  1
  Te  Te118  1  0.75633269  0.26324288  0.59033153  1
  Te  Te119  1  0.73096185  0.22038891  0.91972645  1
  Te  Te120  1  0.74831649  0.57909899  0.22364817  1
  Te  Te121  1  0.74572913  0.60735509  0.59362726  1
  Te  Te122  1  0.73190704  0.57909461  0.89485872  1
  Te  Te123  1  0.73167585  0.91812835  0.25173403  1
  Te  Te124  1  0.74144657  0.90201020  0.57792492  1
  Te  Te125  1  0.71748421  0.87953452  0.93837836  1
  Te  Te126  1  0.24835699  0.25351496  0.07454835  1
  Te  Te127  1  0.24174863  0.23111301  0.41465691  1
  Te  Te128  1  0.29666729  0.27436196  0.73273066  1
  Te  Te129  1  0.21239348  0.59185888  0.08678130  1
  Te  Te130  1  0.27288110  0.58305392  0.40108144  1
  Te  Te131  1  0.25064460  0.58004720  0.74246833  1
  Te  Te132  1  0.24667047  0.92484867  0.08451120  1
  Te  Te133  1  0.24578002  0.91727450  0.42310421  1
  Te  Te134  1  0.30281203  0.94266469  0.77544576  1
  Te  Te135  1  0.58437660  0.23522882  0.09833015  1
  Te  Te136  1  0.60172245  0.27716802  0.41486404  1
  Te  Te137  1  0.57887062  0.21016865  0.76050810  1
  Te  Te138  1  0.56136133  0.58875916  0.03795726  1
  Te  Te139  1  0.58760867  0.58889890  0.41110544  1
  Te  Te140  1  0.54786268  0.55104129  0.74853589  1
  Te  Te141  1  0.54282000  0.90129440  0.09560431  1
  Te  Te142  1  0.59690874  0.92073251  0.40900168  1
  Te  Te143  1  0.55716543  0.97008388  0.77027239  1
  Te  Te144  1  0.91494134  0.25819397  0.05637477  1
  Te  Te145  1  0.93627702  0.27759780  0.42257547  1
  Te  Te146  1  0.91735726  0.27230490  0.74248047  1
  Te  Te147  1  0.92095514  0.57600717  0.10005996  1
  Te  Te148  1  0.92730669  0.59373973  0.38081041  1
  Te  Te149  1  0.91734976  0.60982744  0.75060939  1
  Te  Te150  1  0.91057672  0.87586455  0.09687307  1
  Te  Te151  1  0.91256591  0.89812199  0.42729363  1
  Te  Te152  1  0.91440726  0.88173601  0.76219426  1
  Te  Te153  1  0.21876490  0.09889578  0.25133410  1
  Te  Te154  1  0.25607731  0.08004987  0.60210158  1
  Te  Te155  1  0.25427048  0.12480657  0.89747864  1
  Te  Te156  1  0.28736342  0.41429491  0.23592740  1
  Te  Te157  1  0.31686010  0.41614029  0.57800581  1
  Te  Te158  1  0.26129016  0.45686333  0.90959547  1
  Te  Te159  1  0.26074747  0.73342584  0.25822489  1
  Te  Te160  1  0.23417367  0.75885842  0.58251499  1
  Te  Te161  1  0.26779087  0.74489335  0.93254899  1
  Te  Te162  1  0.58967630  0.09283724  0.25966233  1
  Te  Te163  1  0.60226620  0.06670582  0.58249202  1
  Te  Te164  1  0.54847127  0.07432874  0.95194425  1
  Te  Te165  1  0.60326087  0.41742685  0.22773789  1
  Te  Te166  1  0.57948931  0.42438236  0.58604342  1
  Te  Te167  1  0.55054228  0.38532348  0.89869371  1
  Te  Te168  1  0.56993080  0.72176141  0.23281271  1
  Te  Te169  1  0.55994517  0.75684851  0.59295259  1
  Te  Te170  1  0.52574601  0.72817720  0.87465136  1
  Te  Te171  1  0.91077805  0.08085408  0.23097523  1
  Te  Te172  1  0.89950333  0.08447962  0.60055596  1
  Te  Te173  1  0.92087153  0.07961701  0.89917615  1
  Te  Te174  1  0.97537787  0.40729340  0.24562618  1
  Te  Te175  1  0.91507800  0.45185440  0.57966980  1
  Te  Te176  1  0.92054441  0.42647604  0.90133062  1
  Te  Te177  1  0.91845997  0.77054657  0.20890742  1
  Te  Te178  1  0.94492279  0.74949210  0.57948474  1
  Te  Te179  1  0.90519798  0.74874075  0.94146464  1
