# generated using pymatgen
data_In2Te3
_symmetry_space_group_name_H-M   'P 1'
_cell_length_a   18.96888452
_cell_length_b   18.96908545
_cell_length_c   18.96315005
_cell_angle_alpha   90.01460099
_cell_angle_beta   90.11330426
_cell_angle_gamma   89.85860226
_symmetry_Int_Tables_number   1
_chemical_formula_structural   In2Te3
_chemical_formula_sum   'In72 Te108'
_cell_volume   6823.33166803
_cell_formula_units_Z   36
loop_
 _symmetry_equiv_pos_site_id
 _symmetry_equiv_pos_as_xyz
  1  'x, y, z'
loop_
 _atom_site_type_symbol
 _atom_site_label
 _atom_site_symmetry_multiplicity
 _atom_site_fract_x
 _atom_site_fract_y
 _atom_site_fract_z
 _atom_site_occupancy
  In  In0  1  0.00713514  0.06833011  0.28619990  1
  In  In1  1  0.86612361  0.85821687  0.00098769  1
  In  In2  1  0.51999616  0.17821166  0.33414202  1
  In  In3  1  0.82164085  0.19605715  0.00421072  1
  In  In4  1  0.13516222  0.31027231  0.81547584  1
  In  In5  1  0.82304805  0.32160233  0.49113033  1
  In  In6  1  0.86668026  0.30633795  0.81094224  1
  In  In7  1  0.32755750  0.82391553  0.84399708  1
  In  In8  1  0.47917632  0.64243442  0.15120166  1
  In  In9  1  0.03849944  0.65443583  -0.03234414  1
  In  In10  1  0.83646138  0.65552791  0.51178481  1
  In  In11  1  0.67162013  0.01313627  0.35529728  1
  In  In12  1  0.83876675  0.83736611  0.36234855  1
  In  In13  1  0.34437141  0.16595472  0.82912943  1
  In  In14  1  0.49633020  0.84397412  0.34285619  1
  In  In15  1  0.50926655  0.44665094  0.68608820  1
  In  In16  1  0.67482375  0.65563017  0.32256533  1
  In  In17  1  0.85499907  0.51452533  0.66925091  1
  In  In18  1  0.18507181  0.64730169  0.13420037  1
  In  In19  1  -0.00158311  0.67061674  0.35648668  1
  In  In20  1  0.64789977  0.33825181  0.36011182  1
  In  In21  1  -0.02066089  0.47926650  0.47832531  1
  In  In22  1  0.83617094  0.01158285  0.51351732  1
  In  In23  1  0.83506074  0.65880870  0.17087783  1
  In  In24  1  0.82813833  0.47951695  -0.02249924  1
  In  In25  1  0.48099560  0.34563448  0.14022458  1
  In  In26  1  0.31788479  0.33591840  -0.00132397  1
  In  In27  1  0.02791325  0.29393947  0.31240012  1
  In  In28  1  0.67345625  0.33627915  0.65500541  1
  In  In29  1  0.01797580  0.83464257  0.51826345  1
  In  In30  1  0.47934483  0.17973087  0.00348149  1
  In  In31  1  0.67139162  0.15456919  0.17270414  1
  In  In32  1  0.49312172  0.82322585  0.67687550  1
  In  In33  1  0.66898904  0.02479193  -0.00557192  1
  In  In34  1  0.65038473  0.35325973  -0.02637293  1
  In  In35  1  0.33672299  -0.01292556  0.33363905  1
  In  In36  1  0.65807380  0.65995507  0.01522277  1
  In  In37  1  0.32738586  0.15589422  0.14796347  1
  In  In38  1  -0.00255429  -0.00115988  0.65187102  1
  In  In39  1  0.18442349  0.65686218  0.51438179  1
  In  In40  1  0.32790047  0.01983569  0.68268757  1
  In  In41  1  -0.00103733  0.84348759  0.82082076  1
  In  In42  1  0.68397127  0.81252622  0.82507578  1
  In  In43  1  0.32455239  0.63193556  0.67969259  1
  In  In44  1  0.33595794  0.47756371  0.50454683  1
  In  In45  1  0.31358604  0.33513979  0.32948924  1
  In  In46  1  0.32733060  0.50067764  0.84222843  1
  In  In47  1  0.35705818  0.20055715  0.52021855  1
  In  In48  1  0.48665663  0.49655555  0.32023094  1
  In  In49  1  0.51869314  0.00941792  0.50567808  1
  In  In50  1  0.67916108  0.83773753  0.18570460  1
  In  In51  1  0.67454242  0.01512091  0.65287035  1
  In  In52  1  0.18122865  0.01922878  0.84936937  1
  In  In53  1  0.03671579  0.32663298  0.01064150  1
  In  In54  1  0.82006356  0.33267848  0.18482073  1
  In  In55  1  0.16712774  0.00316052  0.17998280  1
  In  In56  1  0.01056113  0.66274516  0.68730182  1
  In  In57  1  0.33149122  0.83429068  0.49061766  1
  In  In58  1  0.49105807  0.01272148  0.83398055  1
  In  In59  1  0.16037196  0.83066082  0.00390432  1
  In  In60  1  0.15605463  0.15251133  0.66057722  1
  In  In61  1  0.66617202  0.65271929  0.67997082  1
  In  In62  1  0.32029369  0.81561458  0.16732990  1
  In  In63  1  0.65619881  0.49551573  0.82711596  1
  In  In64  1  0.00012370  0.02168230  0.04061617  1
  In  In65  1  0.00015326  0.16100988  0.50432260  1
  In  In66  1  0.50323705  0.69119915  0.48825732  1
  In  In67  1  0.15087984  0.49486878  0.32794051  1
  In  In68  1  0.83651756  0.03233663  0.82620237  1
  In  In69  1  0.15869601  0.48189607  0.66238982  1
  In  In70  1  0.51956469  0.84884963  -0.01784951  1
  In  In71  1  -0.01343116  0.48648693  0.15104971  1
  Te  Te72  1  0.09632845  0.11627254  0.10458677  1
  Te  Te73  1  0.08183516  0.08353232  0.41044534  1
  Te  Te74  1  0.07036464  0.07881219  0.76367977  1
  Te  Te75  1  0.10444848  0.43623001  0.08206247  1
  Te  Te76  1  0.08546306  0.39128023  0.41723246  1
  Te  Te77  1  0.05648061  0.40069593  0.72948573  1
  Te  Te78  1  0.07166599  0.74226467  0.08710033  1
  Te  Te79  1  0.10530022  0.75182544  0.42381088  1
  Te  Te80  1  0.09800660  0.75963213  0.75434153  1
  Te  Te81  1  0.42639153  0.07021595  0.08234878  1
  Te  Te82  1  0.42334377  0.08476015  0.41507188  1
  Te  Te83  1  0.44576534  0.10456371  0.72178209  1
  Te  Te84  1  0.38401230  0.44187244  0.08234155  1
  Te  Te85  1  0.42523767  0.39460683  0.41501498  1
  Te  Te86  1  0.36930450  0.41855110  0.72628263  1
  Te  Te87  1  0.43162113  0.76428343  0.07555888  1
  Te  Te88  1  0.39708790  0.74081653  0.39078402  1
  Te  Te89  1  0.41300944  0.72963349  0.76169622  1
  Te  Te90  1  0.77750741  0.07216141  0.09717579  1
  Te  Te91  1  0.76718453  0.10121805  0.42051242  1
  Te  Te92  1  0.71916066  0.09617298  0.76702371  1
  Te  Te93  1  0.74147127  0.41376389  0.08100320  1
  Te  Te94  1  0.75155390  0.42477271  0.41483078  1
  Te  Te95  1  0.76634560  0.41752167  0.75631550  1
  Te  Te96  1  0.75875768  0.76331088  0.07724557  1
  Te  Te97  1  0.74239152  0.74201085  0.42763423  1
  Te  Te98  1  0.77234711  0.72902412  0.74573641  1
  Te  Te99  1  0.11352454  0.23115385  0.20902906  1
  Te  Te100  1  0.07846681  0.25327031  0.58728990  1
  Te  Te101  1  0.09887824  0.22207138  0.92778890  1
  Te  Te102  1  0.06218928  0.58787120  0.24515334  1
  Te  Te103  1  0.06636125  0.57477870  0.56314761  1
  Te  Te104  1  0.12201765  0.56098641  0.89494776  1
  Te  Te105  1  0.05847963  0.93264896  0.25027772  1
  Te  Te106  1  0.10726715  0.92268850  0.59379651  1
  Te  Te107  1  0.07365589  0.93232817  0.92836424  1
  Te  Te108  1  0.42091911  0.24820424  0.24180639  1
  Te  Te109  1  0.43320606  0.26105759  0.62976220  1
  Te  Te110  1  0.42073506  0.27547485  0.90357104  1
  Te  Te111  1  0.39120214  0.58210118  0.24973791  1
  Te  Te112  1  0.41649344  0.59261461  0.56566982  1
  Te  Te113  1  0.36716623  0.61206184  0.92999051  1
  Te  Te114  1  0.42210349  0.91391030  0.23326232  1
  Te  Te115  1  0.41722158  0.92353654  0.58892927  1
  Te  Te116  1  0.40396039  0.92936750  0.92397890  1
  Te  Te117  1  0.73789059  0.24331978  0.27388053  1
  Te  Te118  1  0.77066477  0.23809912  0.60195902  1
  Te  Te119  1  0.74259139  0.26287414  0.89425215  1
  Te  Te120  1  0.73944198  0.56559881  0.22745652  1
  Te  Te121  1  0.73972823  0.56294905  0.58164153  1
  Te  Te122  1  0.74410179  0.58703437  0.91175581  1
  Te  Te123  1  0.76555870  0.93015042  0.26687054  1
  Te  Te124  1  0.75741336  0.91431456  0.58828213  1
  Te  Te125  1  0.75223535  0.91983482  0.91780893  1
  Te  Te126  1  0.23909987  0.27136386  0.10981840  1
  Te  Te127  1  0.25146908  0.24939724  0.43083271  1
  Te  Te128  1  0.24996827  0.24237633  0.74028402  1
  Te  Te129  1  0.28849030  0.57441388  0.05869270  1
  Te  Te130  1  0.25325486  0.56935568  0.41295075  1
  Te  Te131  1  0.20627262  0.58852597  0.76725707  1
  Te  Te132  1  0.25081539  0.92274319  0.08261871  1
  Te  Te133  1  0.23834305  0.91130525  0.40944338  1
  Te  Te134  1  0.24376072  0.91661575  0.75712081  1
  Te  Te135  1  0.59583376  0.24993314  0.08214037  1
  Te  Te136  1  0.58557490  0.23894676  0.45149303  1
  Te  Te137  1  0.54654059  0.30080921  0.72970992  1
  Te  Te138  1  0.56528586  0.55816090  0.06634786  1
  Te  Te139  1  0.57594887  0.58290562  0.41080626  1
  Te  Te140  1  0.55520724  0.57917002  0.75030093  1
  Te  Te141  1  0.59995991  0.92511178  0.08571279  1
  Te  Te142  1  0.60047448  0.90394272  0.43377898  1
  Te  Te143  1  0.58112675  0.91312318  0.76310468  1
  Te  Te144  1  0.92042773  0.26487542  0.09419064  1
  Te  Te145  1  0.91856426  0.23985413  0.40310011  1
  Te  Te146  1  0.94110353  0.19751044  0.74587977  1
  Te  Te147  1  0.91153458  0.58347772  0.05917039  1
  Te  Te148  1  0.89099956  0.57218738  0.39729062  1
  Te  Te149  1  0.93724232  0.57230992  0.77535768  1
  Te  Te150  1  0.93515711  0.91473090  0.11854963  1
  Te  Te151  1  0.93589861  0.92893057  0.43192642  1
  Te  Te152  1  0.89788835  0.92311651  0.74029939  1
  Te  Te153  1  0.25419594  0.09490376  0.26610890  1
  Te  Te154  1  0.25931182  0.08775444  0.56835084  1
  Te  Te155  1  0.25866505  0.10921785  0.93455582  1
  Te  Te156  1  0.23168679  0.41330457  0.23478323  1
  Te  Te157  1  0.23737427  0.39476072  0.57401999  1
  Te  Te158  1  0.22486981  0.40645583  0.90179020  1
  Te  Te159  1  0.22057117  0.73986551  0.24152029  1
  Te  Te160  1  0.26612585  0.75052421  0.59978338  1
  Te  Te161  1  0.25582239  0.73479814  0.93942259  1
  Te  Te162  1  0.57596397  0.06556524  0.24914648  1
  Te  Te163  1  0.60295950  0.11349005  0.56677435  1
  Te  Te164  1  0.57934939  0.11110925  0.90879843  1
  Te  Te165  1  0.57784862  0.40644538  0.23975525  1
  Te  Te166  1  0.59465623  0.42461294  0.56837004  1
  Te  Te167  1  0.55152401  0.44856651  0.92136424  1
  Te  Te168  1  0.57444710  0.74699520  0.24713883  1
  Te  Te169  1  0.59582265  0.75531564  0.59013219  1
  Te  Te170  1  0.58144083  0.73418041  0.90542661  1
  Te  Te171  1  0.89420598  0.09619708  0.19944397  1
  Te  Te172  1  0.89694412  0.11645168  0.62105043  1
  Te  Te173  1  0.91617143  0.09883474  0.93575007  1
  Te  Te174  1  0.92907547  0.40333734  0.26277563  1
  Te  Te175  1  0.91445870  0.40089062  0.58873869  1
  Te  Te176  1  0.93442185  0.39503652  0.91416250  1
  Te  Te177  1  0.91359937  0.75313985  0.26032348  1
  Te  Te178  1  0.92103812  0.74743646  0.59588428  1
  Te  Te179  1  0.92662960  0.74960263  0.91543663  1
