# generated using pymatgen
data_In2Te3
_symmetry_space_group_name_H-M   'P 1'
_cell_length_a   18.95715957
_cell_length_b   18.94618476
_cell_length_c   18.98597031
_cell_angle_alpha   89.73964849
_cell_angle_beta   89.80434528
_cell_angle_gamma   90.16329264
_symmetry_Int_Tables_number   1
_chemical_formula_structural   In2Te3
_chemical_formula_sum   'In72 Te108'
_cell_volume   6818.97396924
_cell_formula_units_Z   36
loop_
 _symmetry_equiv_pos_site_id
 _symmetry_equiv_pos_as_xyz
  1  'x, y, z'
loop_
 _atom_site_type_symbol
 _atom_site_label
 _atom_site_symmetry_multiplicity
 _atom_site_fract_x
 _atom_site_fract_y
 _atom_site_fract_z
 _atom_site_occupancy
  In  In0  1  0.66763905  0.33680202  0.35101907  1
  In  In1  1  0.83191836  0.82173516  0.65625531  1
  In  In2  1  -0.00215678  0.34462039  0.01467869  1
  In  In3  1  0.66988027  -0.00582317  0.35626810  1
  In  In4  1  0.18659337  0.48490138  0.65615674  1
  In  In5  1  0.32608093  -0.00218191  -0.03729543  1
  In  In6  1  0.82349978  -0.00027558  0.83075597  1
  In  In7  1  0.50191375  0.82525648  0.66373720  1
  In  In8  1  0.83714021  0.37067792  0.17983530  1
  In  In9  1  0.35550816  0.81010242  0.17611247  1
  In  In10  1  0.33375886  0.82138364  0.49315381  1
  In  In11  1  0.52201539  0.34889075  0.17163384  1
  In  In12  1  0.16597530  0.15863189  -0.01944544  1
  In  In13  1  0.49249211  0.47205001  0.34483536  1
  In  In14  1  0.82100987  0.01652566  0.50166547  1
  In  In15  1  0.00348572  0.66196696  -0.00306812  1
  In  In16  1  0.37165602  0.00590566  0.69692979  1
  In  In17  1  -0.01237346  -0.02593315  0.31311875  1
  In  In18  1  0.17211436  0.04410412  0.50477906  1
  In  In19  1  0.67204756  0.30936300  -0.01454917  1
  In  In20  1  0.46787560  0.50764968  0.65663799  1
  In  In21  1  0.49945637  0.81789465  0.01474983  1
  In  In22  1  -0.01226858  0.85952567  0.50470981  1
  In  In23  1  0.68396070  0.19266764  0.17840684  1
  In  In24  1  0.15397206  0.33837481  0.15937538  1
  In  In25  1  0.18154581  0.64646194  0.49665036  1
  In  In26  1  0.33113220  0.33607989  0.67102419  1
  In  In27  1  0.32339415  0.49696836  0.17115055  1
  In  In28  1  0.03338011  0.64084745  0.35902922  1
  In  In29  1  0.18003278  0.66149204  0.82300871  1
  In  In30  1  0.64351063  0.70324410  0.66539104  1
  In  In31  1  0.01024769  0.48827792  0.50723127  1
  In  In32  1  0.52531040  0.00147517  0.13870049  1
  In  In33  1  0.33310992  0.31780188  0.36773930  1
  In  In34  1  0.18781027  0.01531136  0.15272148  1
  In  In35  1  0.80797680  0.50634867  0.66812333  1
  In  In36  1  0.50184109  0.48913365  -0.00575123  1
  In  In37  1  0.65239839  0.50237921  0.49470799  1
  In  In38  1  0.33619551  -0.00951289  0.29596888  1
  In  In39  1  0.34062546  0.82735958  0.83811441  1
  In  In40  1  0.01653843  0.02420108  0.69719002  1
  In  In41  1  0.30257821  0.35217513  -0.02796959  1
  In  In42  1  0.65259053  0.31067073  0.68024028  1
  In  In43  1  0.08684430  0.23187735  0.39913121  1
  In  In44  1  0.66460325  0.84923624  0.83301859  1
  In  In45  1  0.81051496  0.80701029  0.29487499  1
  In  In46  1  0.64408622  0.47464488  0.83489635  1
  In  In47  1  -0.00730782  0.16299786  0.18759869  1
  In  In48  1  0.83047376  0.69371198  0.48340804  1
  In  In49  1  0.47422102  0.17232802  -0.03001992  1
  In  In50  1  0.35077164  0.17711640  0.17867075  1
  In  In51  1  0.14180817  0.62777869  0.17688849  1
  In  In52  1  0.84290556  0.33322567  0.49911984  1
  In  In53  1  -0.06366955  0.80911522  0.14394935  1
  In  In54  1  0.83848667  0.15695588  -0.01324630  1
  In  In55  1  0.01863113  0.83641650  0.85137916  1
  In  In56  1  0.01113116  0.47128496  0.81500466  1
  In  In57  1  0.48157980  0.64102405  0.84674442  1
  In  In58  1  0.18899661  0.82646362  0.32818285  1
  In  In59  1  0.37481200  0.62623685  0.40541054  1
  In  In60  1  0.59762782  0.08200698  0.69485882  1
  In  In61  1  0.65347525  0.82548069  0.50195400  1
  In  In62  1  0.84377720  0.63974443  0.85619614  1
  In  In63  1  0.15843286  0.84093273  -0.00813688  1
  In  In64  1  0.83288135  0.50750196  0.01914203  1
  In  In65  1  0.52599235  0.15872880  0.37549918  1
  In  In66  1  0.67343613  0.68317469  0.05790708  1
  In  In67  1  0.36275738  0.16646264  0.51873963  1
  In  In68  1  0.01047545  0.19147956  0.83213176  1
  In  In69  1  0.85421432  0.17629354  0.66309331  1
  In  In70  1  0.18365986  0.82758380  0.65990579  1
  In  In71  1  0.82207738  -0.00739686  0.16112733  1
  Te  Te72  1  0.07470879  0.08930542  0.08327292  1
  Te  Te73  1  0.06985861  0.07008958  0.39885592  1
  Te  Te74  1  0.10738157  0.13496118  0.73178018  1
  Te  Te75  1  0.09937631  0.43987487  0.06653831  1
  Te  Te76  1  0.09408101  0.38130161  0.44806388  1
  Te  Te77  1  0.09911507  0.38409628  0.72714820  1
  Te  Te78  1  0.08426054  0.75122051  0.09039969  1
  Te  Te79  1  0.09474859  0.76906945  0.43344709  1
  Te  Te80  1  0.08412846  0.75013555  0.74557768  1
  Te  Te81  1  0.40351515  0.07381041  0.07913428  1
  Te  Te82  1  0.40555118  0.07365451  0.40256614  1
  Te  Te83  1  0.46550575  0.09143838  0.77489505  1
  Te  Te84  1  0.40664723  0.39254989  0.08272016  1
  Te  Te85  1  0.41221493  0.40830484  0.45424249  1
  Te  Te86  1  0.41406394  0.42066885  0.76409791  1
  Te  Te87  1  0.40870058  0.71966464  0.07542801  1
  Te  Te88  1  0.41283948  0.76664212  0.38382133  1
  Te  Te89  1  0.41261579  0.73264865  0.74581988  1
  Te  Te90  1  0.73776283  0.09076278  0.07972158  1
  Te  Te91  1  0.73305021  0.10546443  0.42722054  1
  Te  Te92  1  0.75275218  0.08339634  0.72974162  1
  Te  Te93  1  0.72979407  0.41314514  0.08127726  1
  Te  Te94  1  0.76459341  0.43472478  0.41731306  1
  Te  Te95  1  0.75001754  0.39849278  0.75870020  1
  Te  Te96  1  0.80128635  0.75821976  0.10016810  1
  Te  Te97  1  0.71710943  0.73827775  0.39381557  1
  Te  Te98  1  0.76049300  0.73911356  0.76323954  1
  Te  Te99  1  0.04834959  0.28465257  0.25381014  1
  Te  Te100  1  0.04306494  0.26475707  0.53891622  1
  Te  Te101  1  0.09905302  0.27971063  0.91963978  1
  Te  Te102  1  0.08115585  0.53042833  0.27276116  1
  Te  Te103  1  0.08687557  0.58373821  0.59703479  1
  Te  Te104  1  0.08271183  0.57431041  0.90197927  1
  Te  Te105  1  0.10611346  0.91555548  0.23771992  1
  Te  Te106  1  0.09536165  0.93103264  0.58842358  1
  Te  Te107  1  0.10396943  0.94292300  0.90267936  1
  Te  Te108  1  0.44066485  0.26038904  0.26812063  1
  Te  Te109  1  0.44163579  0.24569958  0.61729701  1
  Te  Te110  1  0.36530555  0.24060349  0.89650141  1
  Te  Te111  1  0.41261142  0.57257855  0.26317410  1
  Te  Te112  1  0.43176936  0.59710427  0.54662073  1
  Te  Te113  1  0.38846417  0.56202068  0.93104506  1
  Te  Te114  1  0.45224684  0.91053983  0.23842795  1
  Te  Te115  1  0.41407969  0.91846899  0.58224345  1
  Te  Te116  1  0.43949333  0.91671737  0.90859409  1
  Te  Te117  1  0.77697271  0.26510552  0.27196837  1
  Te  Te118  1  0.74566290  0.24659084  0.58014828  1
  Te  Te119  1  0.76515473  0.24383951  0.89520627  1
  Te  Te120  1  0.74217143  0.64122053  0.18906667  1
  Te  Te121  1  0.73961337  0.60979695  0.57914069  1
  Te  Te122  1  0.72661702  0.56862823  0.92203750  1
  Te  Te123  1  0.71703272  0.91151256  0.23886198  1
  Te  Te124  1  0.74009623  0.91734323  0.58647607  1
  Te  Te125  1  0.74606127  0.92238865  0.92969997  1
  Te  Te126  1  0.24825548  0.24113938  0.08410951  1
  Te  Te127  1  0.24405920  0.23024773  0.44949863  1
  Te  Te128  1  0.20690224  0.27321617  0.72232467  1
  Te  Te129  1  0.22546436  0.55692886  0.07735263  1
  Te  Te130  1  0.24394654  0.56082320  0.39810288  1
  Te  Te131  1  0.26971001  0.56708347  0.75065194  1
  Te  Te132  1  0.26908876  0.90657731  0.08226189  1
  Te  Te133  1  0.24872059  0.93526529  0.41909311  1
  Te  Te134  1  0.25572635  0.92046208  0.75399046  1
  Te  Te135  1  0.56716868  0.23341788  0.08117724  1
  Te  Te136  1  0.57457263  0.27544050  0.44735814  1
  Te  Te137  1  0.58450396  0.21368558  0.77435917  1
  Te  Te138  1  0.56138773  0.58224416  0.09275041  1
  Te  Te139  1  0.58552142  0.57883922  0.38995531  1
  Te  Te140  1  0.58487782  0.58047119  0.74211779  1
  Te  Te141  1  0.60620266  0.91145058  0.05676667  1
  Te  Te142  1  0.57030047  0.92881239  0.44088275  1
  Te  Te143  1  0.59004915  0.92734266  0.72986816  1
  Te  Te144  1  0.90270973  0.25135887  0.09042007  1
  Te  Te145  1  0.93348937  0.23408876  0.43443868  1
  Te  Te146  1  0.92430283  0.27330107  0.74685325  1
  Te  Te147  1  0.93327520  0.57897092  0.10348068  1
  Te  Te148  1  0.91246139  0.57931402  0.42830765  1
  Te  Te149  1  0.92131464  0.57584366  0.74522788  1
  Te  Te150  1  0.93169050  0.93980237  0.07953767  1
  Te  Te151  1  0.88073068  0.90435292  0.40748736  1
  Te  Te152  1  0.92155727  0.90840825  0.74214810  1
  Te  Te153  1  0.24220843  0.10749362  0.25985520  1
  Te  Te154  1  0.27072026  0.08517554  0.61175037  1
  Te  Te155  1  0.26147661  0.10249908  0.88152548  1
  Te  Te156  1  0.25534887  0.39196866  0.25873122  1
  Te  Te157  1  0.28407719  0.42567722  0.56053750  1
  Te  Te158  1  0.28046005  0.44856319  0.86056115  1
  Te  Te159  1  0.24840874  0.72153554  0.24056691  1
  Te  Te160  1  0.27003010  0.72481843  0.59227764  1
  Te  Te161  1  0.25368890  0.74138822  0.92880315  1
  Te  Te162  1  0.58640813  0.09674971  0.24891158  1
  Te  Te163  1  0.53199678  0.13155957  0.56685531  1
  Te  Te164  1  0.57941450  0.10152257  0.89739795  1
  Te  Te165  1  0.61316788  0.43678341  0.25029692  1
  Te  Te166  1  0.58205748  0.42239121  0.60214281  1
  Te  Te167  1  0.55734908  0.37583332  0.90944986  1
  Te  Te168  1  0.60448020  0.71169404  0.18825045  1
  Te  Te169  1  0.54394404  0.72670853  0.55381130  1
  Te  Te170  1  0.57975755  0.74205617  0.90282983  1
  Te  Te171  1  0.89048812  0.08090048  0.26456155  1
  Te  Te172  1  0.93533918  0.07716459  0.57985569  1
  Te  Te173  1  0.93330973  0.07627227  0.90163877  1
  Te  Te174  1  0.92535670  0.47849052  0.22294866  1
  Te  Te175  1  0.91279151  0.41819311  0.60254705  1
  Te  Te176  1  0.90903466  0.42147893  0.91886908  1
  Te  Te177  1  0.94209058  0.73587907  0.27571186  1
  Te  Te178  1  0.93580367  0.73957517  0.58365930  1
  Te  Te179  1  0.90987774  0.75843366  0.92403911  1
