# generated using pymatgen
data_In2Te3
_symmetry_space_group_name_H-M   'P 1'
_cell_length_a   18.96391425
_cell_length_b   18.96328739
_cell_length_c   18.98558004
_cell_angle_alpha   89.98756449
_cell_angle_beta   89.90788117
_cell_angle_gamma   90.04683164
_symmetry_Int_Tables_number   1
_chemical_formula_structural   In2Te3
_chemical_formula_sum   'In72 Te108'
_cell_volume   6827.54801455
_cell_formula_units_Z   36
loop_
 _symmetry_equiv_pos_site_id
 _symmetry_equiv_pos_as_xyz
  1  'x, y, z'
loop_
 _atom_site_type_symbol
 _atom_site_label
 _atom_site_symmetry_multiplicity
 _atom_site_fract_x
 _atom_site_fract_y
 _atom_site_fract_z
 _atom_site_occupancy
  In  In0  1  0.32439738  0.66426095  -0.00072448  1
  In  In1  1  0.17629304  0.17671555  0.31761683  1
  In  In2  1  0.68485561  0.66385818  -0.02127769  1
  In  In3  1  0.83838099  0.65825553  0.48100263  1
  In  In4  1  0.00946717  0.35106941  0.35108184  1
  In  In5  1  0.48830508  0.34537568  0.84248150  1
  In  In6  1  0.65657694  0.80287148  0.82028341  1
  In  In7  1  0.64809912  0.34682705  0.02794816  1
  In  In8  1  0.82508802  0.17424668  0.00357836  1
  In  In9  1  0.14282268  0.36660789  0.15682418  1
  In  In10  1  0.53529396  0.17798402  0.31183988  1
  In  In11  1  0.31712891  0.15140976  0.15165536  1
  In  In12  1  0.15029181  0.49414885  -0.01457877  1
  In  In13  1  -0.00604620  0.50471670  0.82751736  1
  In  In14  1  0.34218614  0.50643750  0.17290801  1
  In  In15  1  0.00351642  0.06241376  0.00139007  1
  In  In16  1  0.68516464  0.33735401  0.68207424  1
  In  In17  1  -0.02072468  0.64903551  0.01886065  1
  In  In18  1  0.85143484  0.15173278  0.66052260  1
  In  In19  1  0.17310607  -0.01360888  0.49690306  1
  In  In20  1  0.66114080  0.65669605  0.33794617  1
  In  In21  1  0.84500194  -0.01300688  0.84152537  1
  In  In22  1  0.82222839  0.34610797  0.50675133  1
  In  In23  1  0.34473846  -0.01670834  0.36496255  1
  In  In24  1  0.17023011  0.01619570  0.83318696  1
  In  In25  1  0.82554747  0.51894112  0.66612185  1
  In  In26  1  0.32628815  0.17126749  0.82844227  1
  In  In27  1  -0.01389140  0.83666505  0.48208721  1
  In  In28  1  0.15710054  0.66790805  0.49972190  1
  In  In29  1  0.15673419  0.49746464  0.66141547  1
  In  In30  1  0.48700437  0.50820336  0.00188993  1
  In  In31  1  0.69264550  0.16347268  0.80861664  1
  In  In32  1  0.33948371  0.17166775  0.48848051  1
  In  In33  1  -0.00596779  -0.01621201  0.67843256  1
  In  In34  1  0.33492587  0.65295676  0.67977722  1
  In  In35  1  0.79615578  0.83017711  0.62689154  1
  In  In36  1  0.30924407  0.48151341  0.82818013  1
  In  In37  1  0.53668449  -0.00273163  0.50980001  1
  In  In38  1  0.17325428  0.17206306  0.64668837  1
  In  In39  1  0.52375848  0.17192063  0.00937351  1
  In  In40  1  0.13025009  -0.01884535  0.15163192  1
  In  In41  1  0.48340671  0.14568493  0.67014954  1
  In  In42  1  0.51536558  -0.01402720  0.18931250  1
  In  In43  1  0.11962690  0.64388448  0.19049994  1
  In  In44  1  0.67172515  0.48752512  0.19151294  1
  In  In45  1  0.80983382  0.14149907  0.34638469  1
  In  In46  1  0.03982744  0.81687586  0.80509638  1
  In  In47  1  0.67500332  0.35736598  0.35423208  1
  In  In48  1  0.84280998  0.84147268  0.01183724  1
  In  In49  1  0.84262958  0.34240079  0.18021985  1
  In  In50  1  0.51339127  -0.03101397  0.81755788  1
  In  In51  1  0.32362476  0.37010133  0.00511717  1
  In  In52  1  0.50097405  0.32421537  0.50352574  1
  In  In53  1  -0.01715772  0.50994924  0.48432303  1
  In  In54  1  0.33502139  0.82733439  0.50784837  1
  In  In55  1  -0.02659288  -0.00099999  0.34327005  1
  In  In56  1  0.33737924  0.33286102  0.33332288  1
  In  In57  1  0.33099016  0.83905132  0.81309049  1
  In  In58  1  0.84687194  0.33904948  0.83840849  1
  In  In59  1  -0.00469315  0.16744712  0.50927788  1
  In  In60  1  0.33533872  0.00138684  -0.02977601  1
  In  In61  1  0.82916354  0.68512750  0.83396950  1
  In  In62  1  0.32809283  0.51690788  0.51130304  1
  In  In63  1  0.53969535  0.52916940  0.67825827  1
  In  In64  1  0.31894660  0.67189615  0.31541384  1
  In  In65  1  0.50744508  0.82452564  0.35733325  1
  In  In66  1  0.15017596  0.84880780  -0.01284095  1
  In  In67  1  0.48688698  0.66530361  0.15439969  1
  In  In68  1  -0.03362962  0.83478235  0.17136066  1
  In  In69  1  0.66100297  0.00820565  0.01009320  1
  In  In70  1  0.53074258  0.80473863  0.62077888  1
  In  In71  1  0.70461579  0.84785162  0.19105198  1
  Te  Te72  1  0.10064367  0.11357040  0.10173909  1
  Te  Te73  1  0.09340977  0.08497304  0.41400441  1
  Te  Te74  1  0.07773806  0.09267180  0.73927015  1
  Te  Te75  1  0.04394255  0.42615013  0.06378200  1
  Te  Te76  1  0.09360050  0.41984180  0.44816590  1
  Te  Te77  1  0.07783791  0.41224747  0.75147229  1
  Te  Te78  1  0.07792124  0.75483680  0.08272694  1
  Te  Te79  1  0.06631325  0.73752221  0.40430074  1
  Te  Te80  1  0.13141482  0.73297612  0.73390469  1
  Te  Te81  1  0.42887219  0.06776990  0.07929087  1
  Te  Te82  1  0.44232332  0.08907837  0.41315871  1
  Te  Te83  1  0.40097280  0.05796929  0.76111870  1
  Te  Te84  1  0.43415975  0.40800199  0.10199587  1
  Te  Te85  1  0.41814845  0.42167156  0.42422208  1
  Te  Te86  1  0.42711753  0.43814753  0.74206703  1
  Te  Te87  1  0.39847633  0.75677866  0.08455612  1
  Te  Te88  1  0.41177984  0.72830119  0.42464344  1
  Te  Te89  1  0.43032636  0.75838567  0.73220215  1
  Te  Te90  1  0.75260539  0.08381208  0.09289708  1
  Te  Te91  1  0.77500446  0.05778673  0.46114488  1
  Te  Te92  1  0.75832409  0.05239055  0.73369621  1
  Te  Te93  1  0.76249813  0.42807673  0.08274318  1
  Te  Te94  1  0.76986167  0.45222543  0.41797708  1
  Te  Te95  1  0.74923173  0.43957206  0.77091354  1
  Te  Te96  1  0.75429816  0.74712850  0.08782386  1
  Te  Te97  1  0.74240756  0.75510625  0.41896043  1
  Te  Te98  1  0.72763637  0.71517373  0.71597327  1
  Te  Te99  1  0.07488708  0.26243409  0.24670462  1
  Te  Te100  1  0.08322880  0.26343323  0.57397104  1
  Te  Te101  1  0.01730699  0.20531248  0.95386678  1
  Te  Te102  1  0.05182733  0.53585586  0.26229334  1
  Te  Te103  1  0.06230491  0.59037514  0.58753139  1
  Te  Te104  1  0.07732235  0.60334324  0.91272068  1
  Te  Te105  1  0.06735587  0.90558952  0.26278741  1
  Te  Te106  1  0.08121307  0.90240004  0.58276833  1
  Te  Te107  1  0.05962096  0.93922807  0.90640042  1
  Te  Te108  1  0.40789656  0.22999951  0.24719631  1
  Te  Te109  1  0.40567708  0.25361506  0.59798138  1
  Te  Te110  1  0.41364556  0.25366287  0.93939558  1
  Te  Te111  1  0.43304191  0.58083611  0.26778080  1
  Te  Te112  1  0.43735574  0.59469563  0.58497346  1
  Te  Te113  1  0.40284423  0.58068258  0.90058973  1
  Te  Te114  1  0.41321566  0.89838509  0.26009734  1
  Te  Te115  1  0.43030835  0.91613167  0.58325712  1
  Te  Te116  1  0.43104832  0.89608360  0.92092075  1
  Te  Te117  1  0.74990029  0.26002693  0.26460469  1
  Te  Te118  1  0.74999755  0.23974599  0.58727475  1
  Te  Te119  1  0.72826309  0.26177881  0.91874585  1
  Te  Te120  1  0.76127912  0.58755839  0.25314403  1
  Te  Te121  1  0.74175068  0.56101462  0.54842599  1
  Te  Te122  1  0.79239689  0.57930909  0.92831845  1
  Te  Te123  1  0.80794559  0.92934409  0.25497555  1
  Te  Te124  1  0.73437670  0.92461953  0.53208958  1
  Te  Te125  1  0.73594642  0.90444482  0.91423515  1
  Te  Te126  1  0.24623917  0.27199227  0.09191068  1
  Te  Te127  1  0.23782473  0.26379350  0.42501578  1
  Te  Te128  1  0.25412544  0.25745371  0.73699192  1
  Te  Te129  1  0.23635854  0.57329648  0.08659938  1
  Te  Te130  1  0.23840362  0.58001948  0.40678737  1
  Te  Te131  1  0.22577487  0.59521064  0.76814644  1
  Te  Te132  1  0.24782659  0.92670988  0.07295929  1
  Te  Te133  1  0.23743053  0.88333821  0.40621867  1
  Te  Te134  1  0.23959819  0.92701259  0.74029497  1
  Te  Te135  1  0.59178175  0.24435895  0.11554318  1
  Te  Te136  1  0.60444603  0.24324926  0.42884182  1
  Te  Te137  1  0.57220109  0.25174497  0.75580210  1
  Te  Te138  1  0.59236448  0.58128486  0.08385402  1
  Te  Te139  1  0.60333160  0.59204894  0.45855103  1
  Te  Te140  1  0.60733718  0.62674403  0.76522945  1
  Te  Te141  1  0.59470489  0.90069862  0.09095038  1
  Te  Te142  1  0.60918267  0.92047799  0.40617147  1
  Te  Te143  1  0.60316073  0.90182222  0.71859135  1
  Te  Te144  1  0.91934587  0.25354538  0.08702783  1
  Te  Te145  1  0.90627877  0.25144746  0.41729929  1
  Te  Te146  1  0.91603701  0.25809644  0.73781759  1
  Te  Te147  1  0.90556781  0.60652766  0.13935609  1
  Te  Te148  1  0.94965406  0.61966280  0.38210386  1
  Te  Te149  1  0.92169473  0.60873452  0.74144280  1
  Te  Te150  1  0.92637369  0.94724728  0.07544206  1
  Te  Te151  1  0.88070417  0.88841557  0.38636553  1
  Te  Te152  1  0.89659952  0.88364465  0.74024227  1
  Te  Te153  1  0.25914773  0.06243558  0.26131826  1
  Te  Te154  1  0.26749447  0.07209610  0.57775930  1
  Te  Te155  1  0.23530118  0.10983797  0.93357071  1
  Te  Te156  1  0.24537531  0.42421075  0.25540092  1
  Te  Te157  1  0.26762903  0.42123985  0.60264060  1
  Te  Te158  1  0.21486136  0.38507898  0.90105452  1
  Te  Te159  1  0.22535850  0.73939141  0.22611488  1
  Te  Te160  1  0.24377182  0.74762200  0.59932295  1
  Te  Te161  1  0.24439082  0.75926277  0.91019290  1
  Te  Te162  1  0.61415191  0.06639829  0.26055984  1
  Te  Te163  1  0.59844145  0.09866397  0.59496779  1
  Te  Te164  1  0.58315817  0.08421591  0.89279967  1
  Te  Te165  1  0.57074363  0.42061963  0.27237805  1
  Te  Te166  1  0.59055010  0.41166458  0.59055873  1
  Te  Te167  1  0.58700244  0.43304882  0.91594645  1
  Te  Te168  1  0.58335563  0.75433320  0.24194313  1
  Te  Te169  1  0.61870351  0.73033805  0.52479904  1
  Te  Te170  1  0.56967156  0.72306666  0.90899892  1
  Te  Te171  1  0.91282146  0.09458158  0.25214348  1
  Te  Te172  1  0.91643635  0.04768092  0.56318899  1
  Te  Te173  1  0.91298991  0.11881686  0.87943459  1
  Te  Te174  1  0.92873226  0.43840174  0.25920684  1
  Te  Te175  1  0.91676335  0.42181347  0.59568984  1
  Te  Te176  1  0.93914172  0.41003824  0.93021902  1
  Te  Te177  1  0.90809541  0.71725683  0.23903877  1
  Te  Te178  1  0.91333585  0.74661518  0.58081493  1
  Te  Te179  1  0.93269455  0.76381120  0.91708256  1
