# generated using pymatgen
data_In2Te3
_symmetry_space_group_name_H-M   'P 1'
_cell_length_a   18.75583072
_cell_length_b   18.74823317
_cell_length_c   18.76193781
_cell_angle_alpha   90.01924848
_cell_angle_beta   90.00861315
_cell_angle_gamma   89.93202200
_symmetry_Int_Tables_number   1
_chemical_formula_structural   In2Te3
_chemical_formula_sum   'In72 Te108'
_cell_volume   6597.41809820
_cell_formula_units_Z   36
loop_
 _symmetry_equiv_pos_site_id
 _symmetry_equiv_pos_as_xyz
  1  'x, y, z'
loop_
 _atom_site_type_symbol
 _atom_site_label
 _atom_site_symmetry_multiplicity
 _atom_site_fract_x
 _atom_site_fract_y
 _atom_site_fract_z
 _atom_site_occupancy
  In  In0  1  0.66469624  0.01365088  0.02673582  1
  In  In1  1  0.47276657  0.15651607  0.35174600  1
  In  In2  1  0.01318781  0.14625646  0.47987876  1
  In  In3  1  0.47992827  0.50405658  -0.00814091  1
  In  In4  1  0.84038707  -0.00544001  0.49012908  1
  In  In5  1  0.66745966  0.02913411  0.65251035  1
  In  In6  1  0.32650411  0.51289140  0.83759446  1
  In  In7  1  0.02519644  0.17658864  0.84285533  1
  In  In8  1  0.86140726  0.81252575  0.32372851  1
  In  In9  1  0.84285627  0.52179167  0.00293756  1
  In  In10  1  0.83216003  0.80372017  0.00068678  1
  In  In11  1  0.15513585  0.34648448  0.86473092  1
  In  In12  1  0.17229412  0.34670510  0.51065737  1
  In  In13  1  0.63389902  0.62498423  0.69700456  1
  In  In14  1  0.00827311  0.51280256  0.84856302  1
  In  In15  1  0.32563591  -0.00269841  0.63864650  1
  In  In16  1  0.49317036  0.19141992  0.67035862  1
  In  In17  1  0.70138383  0.51988737  0.18077077  1
  In  In18  1  0.49592066  -0.01291730  0.84277342  1
  In  In19  1  0.84650685  0.02072279  0.17765451  1
  In  In20  1  0.48173768  0.84415679  0.32145478  1
  In  In21  1  0.85067232  0.64758469  0.85545870  1
  In  In22  1  0.01541818  0.00411351  -0.00121250  1
  In  In23  1  0.32872567  0.65879303  0.66039637  1
  In  In24  1  0.63710806  0.35462169  0.67537608  1
  In  In25  1  0.02731078  0.83111904  0.16230499  1
  In  In26  1  0.85380273  0.82234251  0.67161897  1
  In  In27  1  0.65369028  0.82782356  0.48213517  1
  In  In28  1  0.01345490  0.34598098  0.69295576  1
  In  In29  1  0.48981663  0.66160282  0.50765429  1
  In  In30  1  0.16589001  0.16105745  0.33135363  1
  In  In31  1  0.13886977  0.80648932  0.67211377  1
  In  In32  1  0.17296485  -0.01160162  0.16780528  1
  In  In33  1  0.67935632  -0.01698516  0.33858178  1
  In  In34  1  0.47561084  0.16795492  -0.00629713  1
  In  In35  1  0.66688318  0.80334749  0.14231023  1
  In  In36  1  0.33153419  0.16987692  0.85402836  1
  In  In37  1  0.47837938  0.34776807  0.17721775  1
  In  In38  1  0.67106208  0.67898756  0.00627589  1
  In  In39  1  0.19010104  0.01570403  0.84317177  1
  In  In40  1  0.83151886  0.35454447  0.85437452  1
  In  In41  1  0.67523661  0.33664409  0.35808982  1
  In  In42  1  0.84178341  -0.01076791  0.81297465  1
  In  In43  1  0.66584386  0.48414267  0.50308683  1
  In  In44  1  0.18380927  0.15544342  0.65952863  1
  In  In45  1  0.01372847  0.67756605  0.01601936  1
  In  In46  1  0.01238736  0.51156199  0.50387536  1
  In  In47  1  0.85618296  0.51342713  0.67128206  1
  In  In48  1  0.83836792  0.15047653  0.65491202  1
  In  In49  1  0.31395933  0.51720910  0.14186410  1
  In  In50  1  0.02023620  0.83811535  0.47908978  1
  In  In51  1  0.46582935  0.81920469  0.00141903  1
  In  In52  1  0.48353757  0.68791794  0.14970176  1
  In  In53  1  0.30259557  0.66642120  0.31421094  1
  In  In54  1  0.00529193  0.34899494  0.33454034  1
  In  In55  1  0.33506502  0.34580691  0.66511415  1
  In  In56  1  0.88368900  0.31958254  0.14341307  1
  In  In57  1  0.46522837  0.00333640  0.17524930  1
  In  In58  1  0.33516089  0.82362996  0.84317819  1
  In  In59  1  0.85985159  0.15685670  0.30214459  1
  In  In60  1  0.63545165  0.16699830  0.50296924  1
  In  In61  1  0.47395228  0.84093844  0.66188732  1
  In  In62  1  0.80215911  0.34689793  0.48292396  1
  In  In63  1  0.32056368  0.35502751  0.32274982  1
  In  In64  1  0.67294047  0.16542736  0.16837872  1
  In  In65  1  0.65692975  0.34493216  -0.01286758  1
  In  In66  1  0.16849264  0.66479394  0.48720325  1
  In  In67  1  0.16487438  0.81774138  0.00298573  1
  In  In68  1  0.66291432  0.81952691  0.84126647  1
  In  In69  1  0.49090981  0.49437021  0.35124954  1
  In  In70  1  0.18489189  0.32306255  0.13548961  1
  In  In71  1  0.84670281  0.66154303  0.48347772  1
  Te  Te72  1  0.07274684  0.08894839  0.10897287  1
  Te  Te73  1  0.10742226  0.05214158  0.41713301  1
  Te  Te74  1  0.08607435  0.07549605  0.74565007  1
  Te  Te75  1  0.07525784  0.38822389  0.05727687  1
  Te  Te76  1  0.10598051  0.43777730  0.40580208  1
  Te  Te77  1  0.10930828  0.44430875  0.75227263  1
  Te  Te78  1  0.13375209  0.71290487  0.12677258  1
  Te  Te79  1  0.10401224  0.75594720  0.38603831  1
  Te  Te80  1  0.05793561  0.72875898  0.76624225  1
  Te  Te81  1  0.38513623  0.09850363  0.09089736  1
  Te  Te82  1  0.37355945  0.06363327  0.41295397  1
  Te  Te83  1  0.40628708  0.07363993  0.75246885  1
  Te  Te84  1  0.38949243  0.40381789  0.06803768  1
  Te  Te85  1  0.39553178  0.41960371  0.43371010  1
  Te  Te86  1  0.42545791  0.42679003  0.75584727  1
  Te  Te87  1  0.36754662  0.76731590  0.10225763  1
  Te  Te88  1  0.40765124  0.73823932  0.40465511  1
  Te  Te89  1  0.42691774  0.73465924  0.75726296  1
  Te  Te90  1  0.77683718  0.10821305  0.07155724  1
  Te  Te91  1  0.74686027  0.09884189  0.41652923  1
  Te  Te92  1  0.74288862  0.09779189  0.76509505  1
  Te  Te93  1  0.75886207  0.41341587  0.08400965  1
  Te  Te94  1  0.76707995  0.45935835  0.38746707  1
  Te  Te95  1  0.75355232  0.43032763  0.74764985  1
  Te  Te96  1  0.78540175  0.70769176  0.11217027  1
  Te  Te97  1  0.74440409  0.74029685  0.39591355  1
  Te  Te98  1  0.75773072  0.73452247  0.75685565  1
  Te  Te99  1  0.09000862  0.26132777  0.24403947  1
  Te  Te100  1  0.07224438  0.24818326  0.58707861  1
  Te  Te101  1  0.07042678  0.25988677  0.96639917  1
  Te  Te102  1  0.01605915  0.57611272  0.24447675  1
  Te  Te103  1  0.09842208  0.58842447  0.59480761  1
  Te  Te104  1  0.10606162  0.58216934  0.93989868  1
  Te  Te105  1  0.12089602  0.88552636  0.26918400  1
  Te  Te106  1  0.10585299  0.91275273  0.57412350  1
  Te  Te107  1  0.09335559  0.91366430  0.90469771  1
  Te  Te108  1  0.39605336  0.24201013  0.24846692  1
  Te  Te109  1  0.39246430  0.24160204  0.57678563  1
  Te  Te110  1  0.42771663  0.27168419  0.90011815  1
  Te  Te111  1  0.41800097  0.57550246  0.24047349  1
  Te  Te112  1  0.42403192  0.56269421  0.59519476  1
  Te  Te113  1  0.38916966  0.60731942  0.93725585  1
  Te  Te114  1  0.36747743  0.91888917  0.25567407  1
  Te  Te115  1  0.39396628  0.89712087  0.54797701  1
  Te  Te116  1  0.38768925  0.93766660  0.93691039  1
  Te  Te117  1  0.75921932  0.26392445  0.24738294  1
  Te  Te118  1  0.73863592  0.24853027  0.58960099  1
  Te  Te119  1  0.75660271  0.25156925  0.92856168  1
  Te  Te120  1  0.76638524  0.62213922  0.26042496  1
  Te  Te121  1  0.75316223  0.59057428  0.58504895  1
  Te  Te122  1  0.73070231  0.57266279  0.91091317  1
  Te  Te123  1  0.75377952  0.90281882  0.23199386  1
  Te  Te124  1  0.74857899  0.91123447  0.58090584  1
  Te  Te125  1  0.74452330  0.91513098  0.92904203  1
  Te  Te126  1  0.26766858  0.22254118  0.06206669  1
  Te  Te127  1  0.25204889  0.25552469  0.41904972  1
  Te  Te128  1  0.23607408  0.25668523  0.76124290  1
  Te  Te129  1  0.20402533  0.58371261  0.06642374  1
  Te  Te130  1  0.25885167  0.56911939  0.41527832  1
  Te  Te131  1  0.23339416  0.59678700  0.75579417  1
  Te  Te132  1  0.25590335  0.91845711  0.06384097  1
  Te  Te133  1  0.31053315  0.92443518  0.40231091  1
  Te  Te134  1  0.25213240  0.91117133  0.74604297  1
  Te  Te135  1  0.57405586  0.25299711  0.09131358  1
  Te  Te136  1  0.55345708  0.26812318  0.42298913  1
  Te  Te137  1  0.58571070  0.25122930  0.76714210  1
  Te  Te138  1  0.58241979  0.57733464  0.09007776  1
  Te  Te139  1  0.59015868  0.58920046  0.41684404  1
  Te  Te140  1  0.54014906  0.53534745  0.76739607  1
  Te  Te141  1  0.56539921  0.91275549  0.08859141  1
  Te  Te142  1  0.56167774  0.93289921  0.42155051  1
  Te  Te143  1  0.59287137  0.91683754  0.74475859  1
  Te  Te144  1  0.96259585  0.21721515  0.07381656  1
  Te  Te145  1  0.91232858  0.24896389  0.42070815  1
  Te  Te146  1  0.91116999  0.25004050  0.75541120  1
  Te  Te147  1  0.94527550  0.57434670  0.10353630  1
  Te  Te148  1  0.94596628  0.59135740  0.39437741  1
  Te  Te149  1  0.95485244  0.61186545  0.73689403  1
  Te  Te150  1  0.91355100  0.90932770  0.08097765  1
  Te  Te151  1  0.93082325  0.93195347  0.38632727  1
  Te  Te152  1  0.94585670  0.91264030  0.74309762  1
  Te  Te153  1  0.26105418  0.07819749  0.25107918  1
  Te  Te154  1  0.24334048  0.08176694  0.54480770  1
  Te  Te155  1  0.22452756  0.11966368  0.94893646  1
  Te  Te156  1  0.22462112  0.43646954  0.23617974  1
  Te  Te157  1  0.24412738  0.44160136  0.59759112  1
  Te  Te158  1  0.25895921  0.42093431  0.93746237  1
  Te  Te159  1  0.23841301  0.76964500  0.22900060  1
  Te  Te160  1  0.25111868  0.76014285  0.57641027  1
  Te  Te161  1  0.24438011  0.72880967  0.91150962  1
  Te  Te162  1  0.58070047  0.07848282  0.25418906  1
  Te  Te163  1  0.54338331  0.07164479  0.57720693  1
  Te  Te164  1  0.58428535  0.08651985  0.91876761  1
  Te  Te165  1  0.59193983  0.41879221  0.25032823  1
  Te  Te166  1  0.55217601  0.42527445  0.57769191  1
  Te  Te167  1  0.57734358  0.43537496  0.89795942  1
  Te  Te168  1  0.58012020  0.74480462  0.25335344  1
  Te  Te169  1  0.58908078  0.74871674  0.59692663  1
  Te  Te170  1  0.56052831  0.73369017  0.91406407  1
  Te  Te171  1  0.96933865  0.07384977  0.24464775  1
  Te  Te172  1  0.93944367  0.05944113  0.58641189  1
  Te  Te173  1  0.92050946  0.08281465  0.90717481  1
  Te  Te174  1  0.91896822  0.42777205  0.23981938  1
  Te  Te175  1  0.91719012  0.40572607  0.57871271  1
  Te  Te176  1  0.93927301  0.41392015  0.94484351  1
  Te  Te177  1  0.95381492  0.72326469  0.24431259  1
  Te  Te178  1  0.93913435  0.74493839  0.57089778  1
  Te  Te179  1  0.94352528  0.76138804  0.90461239  1
