# generated using pymatgen
data_In2Te3
_symmetry_space_group_name_H-M   'P 1'
_cell_length_a   18.93059406
_cell_length_b   18.92533978
_cell_length_c   18.90513235
_cell_angle_alpha   90.11416743
_cell_angle_beta   89.98883891
_cell_angle_gamma   90.04902428
_symmetry_Int_Tables_number   1
_chemical_formula_structural   In2Te3
_chemical_formula_sum   'In72 Te108'
_cell_volume   6773.08648707
_cell_formula_units_Z   36
loop_
 _symmetry_equiv_pos_site_id
 _symmetry_equiv_pos_as_xyz
  1  'x, y, z'
loop_
 _atom_site_type_symbol
 _atom_site_label
 _atom_site_symmetry_multiplicity
 _atom_site_fract_x
 _atom_site_fract_y
 _atom_site_fract_z
 _atom_site_occupancy
  In  In0  1  0.17330962  0.16685093  0.00911057  1
  In  In1  1  0.18234414  0.36146594  0.19314011  1
  In  In2  1  0.34768821  0.84470678  0.18010645  1
  In  In3  1  0.50989161  0.17307658  -0.00703932  1
  In  In4  1  0.02576798  0.68079902  0.34236750  1
  In  In5  1  0.69144639  0.34385546  -0.03220733  1
  In  In6  1  0.82034931  0.00708908  0.81939207  1
  In  In7  1  0.29962415  0.33119651  0.66357807  1
  In  In8  1  0.17903607  0.64636667  0.82190949  1
  In  In9  1  0.83448066  0.51115412  -0.03646216  1
  In  In10  1  0.82028326  0.64859054  0.51505448  1
  In  In11  1  0.32941244  0.18289848  0.81870054  1
  In  In12  1  0.64826399  0.50710901  0.49223266  1
  In  In13  1  0.83891009  0.64630559  0.81092066  1
  In  In14  1  0.82388986  0.15306430  0.65545550  1
  In  In15  1  0.17310290  0.33657224  0.84679377  1
  In  In16  1  0.83547163  0.02148871  0.17620342  1
  In  In17  1  0.67591492  0.83662152  0.55521444  1
  In  In18  1  0.48046145  0.80111229  0.66735460  1
  In  In19  1  0.85180095  0.17537925  -0.03187446  1
  In  In20  1  0.34149163  0.01120838  0.65250057  1
  In  In21  1  0.51938606  0.15073163  0.65022452  1
  In  In22  1  0.66128525  0.84534074  0.79585239  1
  In  In23  1  0.49666947  0.87649469  0.33660252  1
  In  In24  1  0.15810649  0.67719515  0.17708644  1
  In  In25  1  0.47999127  0.31612451  0.16724763  1
  In  In26  1  0.84341752  0.33727007  0.53639719  1
  In  In27  1  0.65569030  0.01178114  0.33552267  1
  In  In28  1  0.18380273  0.80494858  -0.00833319  1
  In  In29  1  0.83144597  0.50533845  0.32611071  1
  In  In30  1  0.69061073  0.66384410  -0.02427962  1
  In  In31  1  0.84111724  0.62846630  0.19020437  1
  In  In32  1  0.14703106  0.00579159  0.48343567  1
  In  In33  1  0.00973223  0.84249984  0.16896691  1
  In  In34  1  0.00775183  0.65960715  0.67374100  1
  In  In35  1  0.34665611  0.13962320  0.47773660  1
  In  In36  1  0.81039177  0.32506376  0.16502746  1
  In  In37  1  0.32986077  0.36920325  0.01096972  1
  In  In38  1  0.20186649  0.81974373  0.65319943  1
  In  In39  1  0.62629164  0.14269160  0.17846175  1
  In  In40  1  0.83257656  0.13956291  0.35488153  1
  In  In41  1  0.65426616  0.83712720  0.13896427  1
  In  In42  1  0.17657589  0.51593646  0.64993682  1
  In  In43  1  0.00596723  0.82378429  0.50421971  1
  In  In44  1  0.65319300  0.50667209  0.18501630  1
  In  In45  1  0.14967615  0.00120758  0.19980819  1
  In  In46  1  0.64213336  0.63672174  0.66568527  1
  In  In47  1  0.81892749  0.34593591  0.80335722  1
  In  In48  1  0.51762403  0.32678636  0.81274298  1
  In  In49  1  0.85018019  0.82691835  0.00524084  1
  In  In50  1  0.01666820  0.51609435  0.16191472  1
  In  In51  1  0.00590916  0.32936313  0.66177618  1
  In  In52  1  0.51837084  0.84275364  0.00110744  1
  In  In53  1  0.84103412  0.85023320  0.35904072  1
  In  In54  1  0.45931878  0.51185104  0.63677273  1
  In  In55  1  -0.00025752  0.85552967  0.83580470  1
  In  In56  1  0.01073772  0.33757229  0.34235153  1
  In  In57  1  0.32235533  0.65904718  0.33723306  1
  In  In58  1  0.36669364  0.63483172  -0.03934851  1
  In  In59  1  0.65571664  0.30747197  0.35892605  1
  In  In60  1  0.46899894  0.34064599  0.49246161  1
  In  In61  1  0.31337845  0.49023284  0.18771272  1
  In  In62  1  0.50220644  0.67708505  0.16140385  1
  In  In63  1  -0.01453053  0.17004793  0.17667759  1
  In  In64  1  0.17097189  0.51699878  -0.00293649  1
  In  In65  1  0.16436011  -0.00806182  0.81602710  1
  In  In66  1  0.14946170  0.31325497  0.50012239  1
  In  In67  1  0.66428549  -0.00042840  0.00585357  1
  In  In68  1  -0.01549305  0.01307065  0.67286123  1
  In  In69  1  0.33289199  0.15841524  0.19494327  1
  In  In70  1  0.34760750  -0.01913486  0.00254236  1
  In  In71  1  0.32301243  0.82428705  0.50988823  1
  Te  Te72  1  0.07725963  0.08205865  0.09212794  1
  Te  Te73  1  0.07471857  0.07050237  0.37156408  1
  Te  Te74  1  0.06452247  0.08826468  0.77148951  1
  Te  Te75  1  0.09400509  0.41447983  0.07963307  1
  Te  Te76  1  0.07361876  0.42695241  0.43943851  1
  Te  Te77  1  0.09985175  0.42159793  0.74298257  1
  Te  Te78  1  0.06998002  0.74178789  0.07153185  1
  Te  Te79  1  0.11418948  0.73644647  0.44827384  1
  Te  Te80  1  0.09693885  0.76544286  0.75778344  1
  Te  Te81  1  0.41469488  0.09331182  0.08263125  1
  Te  Te82  1  0.43220995  0.04707826  0.39779791  1
  Te  Te83  1  0.42592911  0.08644205  0.75553066  1
  Te  Te84  1  0.42983125  0.44129882  0.09621494  1
  Te  Te85  1  0.40306988  0.42307855  0.39132512  1
  Te  Te86  1  0.40918609  0.40321786  0.73869077  1
  Te  Te87  1  0.40970230  0.75715744  0.06903188  1
  Te  Te88  1  0.41435563  0.76503790  0.39934492  1
  Te  Te89  1  0.40047907  0.77429174  0.78771091  1
  Te  Te90  1  0.75317451  0.10148197  0.07739600  1
  Te  Te91  1  0.72569742  0.09000294  0.44444117  1
  Te  Te92  1  0.72307365  0.05383301  0.71430549  1
  Te  Te93  1  0.75380025  0.44071533  0.08303581  1
  Te  Te94  1  0.75653569  0.40890601  0.41661597  1
  Te  Te95  1  0.72660083  0.44947344  0.75656402  1
  Te  Te96  1  0.76050207  0.73716781  0.09527817  1
  Te  Te97  1  0.74988504  0.75964499  0.43926315  1
  Te  Te98  1  0.74161247  0.73160154  0.73245669  1
  Te  Te99  1  0.09234507  0.25060426  0.24944810  1
  Te  Te100  1  0.05269510  0.22233101  0.56831194  1
  Te  Te101  1  0.08612759  0.24940214  0.92592787  1
  Te  Te102  1  0.10655654  0.56947208  0.27218234  1
  Te  Te103  1  0.10225922  0.61606375  0.56766259  1
  Te  Te104  1  0.07824526  0.59068490  0.91156894  1
  Te  Te105  1  0.07724253  0.90327482  0.28446133  1
  Te  Te106  1  0.09081647  0.91631725  0.60590885  1
  Te  Te107  1  0.09890564  0.91793606  0.93327016  1
  Te  Te108  1  0.41006709  0.25240453  0.27921160  1
  Te  Te109  1  0.39923048  0.23934903  0.59285867  1
  Te  Te110  1  0.40532536  0.26551129  0.92557124  1
  Te  Te111  1  0.42116833  0.58308806  0.24814569  1
  Te  Te112  1  0.40913167  0.61112368  0.53725481  1
  Te  Te113  1  0.47266839  0.56214278  0.89480392  1
  Te  Te114  1  0.39741128  0.95955368  0.26137135  1
  Te  Te115  1  0.42685328  0.91640175  0.57394250  1
  Te  Te116  1  0.44633150  0.93016895  0.90685113  1
  Te  Te117  1  0.74195316  0.22345559  0.25442989  1
  Te  Te118  1  0.73684340  0.26485184  0.60719476  1
  Te  Te119  1  0.74006858  0.23048104  0.88363003  1
  Te  Te120  1  0.71580733  0.60680512  0.28582097  1
  Te  Te121  1  0.75020581  0.54524600  0.60295135  1
  Te  Te122  1  0.71609672  0.55335553  0.86866257  1
  Te  Te123  1  0.74857780  0.91813802  0.24557051  1
  Te  Te124  1  0.76216027  0.93812176  0.61957414  1
  Te  Te125  1  0.74480804  0.89842544  0.92216352  1
  Te  Te126  1  0.26007489  0.26237774  0.09632493  1
  Te  Te127  1  0.24563724  0.23151729  0.42131785  1
  Te  Te128  1  0.21183747  0.23260061  0.73844083  1
  Te  Te129  1  0.26031017  0.60178946  0.08715264  1
  Te  Te130  1  0.29705362  0.56217214  0.44701116  1
  Te  Te131  1  0.27994099  0.58805753  0.73165765  1
  Te  Te132  1  0.23922966  0.91436838  0.09265156  1
  Te  Te133  1  0.24556051  0.91496344  0.42420158  1
  Te  Te134  1  0.27579001  0.91339126  0.75046730  1
  Te  Te135  1  0.60131491  0.26273508  0.07912703  1
  Te  Te136  1  0.57101220  0.23294607  0.45646959  1
  Te  Te137  1  0.60522371  0.24734784  0.72434274  1
  Te  Te138  1  0.59454538  0.59391721  0.07440056  1
  Te  Te139  1  0.59282150  0.57356989  0.37671689  1
  Te  Te140  1  0.52567441  0.59085403  0.74885959  1
  Te  Te141  1  0.56238153  0.95096412  0.10808841  1
  Te  Te142  1  0.60502753  0.90983976  0.43713603  1
  Te  Te143  1  0.56932191  0.91559376  0.70563052  1
  Te  Te144  1  0.91659849  0.26201353  0.07623659  1
  Te  Te145  1  0.90240945  0.25953647  0.41440449  1
  Te  Te146  1  0.91242079  0.24144822  0.74508144  1
  Te  Te147  1  0.92176502  0.58800313  0.06850938  1
  Te  Te148  1  0.91969929  0.59338418  0.41292507  1
  Te  Te149  1  0.92933611  0.55566965  0.74138375  1
  Te  Te150  1  0.92208465  0.93411332  0.08457169  1
  Te  Te151  1  0.90986168  0.92765430  0.46138364  1
  Te  Te152  1  0.89401687  0.90104624  0.73706622  1
  Te  Te153  1  0.22996807  0.09534147  0.28233603  1
  Te  Te154  1  0.23653656  0.08859575  0.57662167  1
  Te  Te155  1  0.26192884  0.08156441  0.91451392  1
  Te  Te156  1  0.27229016  0.40491966  0.30624501  1
  Te  Te157  1  0.25185631  0.42283389  0.55494615  1
  Te  Te158  1  0.26590759  0.44632895  0.89965520  1
  Te  Te159  1  0.24335306  0.76921966  0.26076312  1
  Te  Te160  1  0.30305586  0.71161640  0.61350431  1
  Te  Te161  1  0.28632050  0.75140341  0.89230407  1
  Te  Te162  1  0.54162178  0.10422208  0.29551629  1
  Te  Te163  1  0.58290504  0.09294461  0.53013373  1
  Te  Te164  1  0.58806618  0.08049859  0.91026243  1
  Te  Te165  1  0.58295596  0.39424978  0.25681497  1
  Te  Te166  1  0.56658762  0.41765870  0.58282511  1
  Te  Te167  1  0.56828411  0.41261410  0.92339294  1
  Te  Te168  1  0.57726960  0.77226413  0.25154737  1
  Te  Te169  1  0.57218168  0.72603431  0.56666089  1
  Te  Te170  1  0.59494748  0.75487052  0.90222816  1
  Te  Te171  1  0.94190276  0.05899896  0.28325170  1
  Te  Te172  1  0.93333223  0.10330566  0.56563395  1
  Te  Te173  1  0.92090024  0.05942986  0.91178914  1
  Te  Te174  1  0.92027520  0.41450493  0.23392722  1
  Te  Te175  1  0.94661486  0.43441714  0.57472180  1
  Te  Te176  1  0.91036278  0.40156541  0.90620334  1
  Te  Te177  1  0.91225320  0.74926966  0.25414143  1
  Te  Te178  1  0.91040461  0.74385682  0.59302991  1
  Te  Te179  1  0.91944320  0.74245948  0.90131238  1
