# generated using pymatgen
data_In2Te3
_symmetry_space_group_name_H-M   'P 1'
_cell_length_a   18.96138853
_cell_length_b   18.99078085
_cell_length_c   18.97721839
_cell_angle_alpha   90.07872446
_cell_angle_beta   89.89360066
_cell_angle_gamma   90.09660444
_symmetry_Int_Tables_number   1
_chemical_formula_structural   In2Te3
_chemical_formula_sum   'In72 Te108'
_cell_volume   6833.50852742
_cell_formula_units_Z   36
loop_
 _symmetry_equiv_pos_site_id
 _symmetry_equiv_pos_as_xyz
  1  'x, y, z'
loop_
 _atom_site_type_symbol
 _atom_site_label
 _atom_site_symmetry_multiplicity
 _atom_site_fract_x
 _atom_site_fract_y
 _atom_site_fract_z
 _atom_site_occupancy
  In  In0  1  0.34907345  0.14448035  0.82610512  1
  In  In1  1  0.80993072  0.16052410  0.66700581  1
  In  In2  1  0.33977108  0.33495127  -0.01592919  1
  In  In3  1  0.70043118  0.65131493  0.66267355  1
  In  In4  1  0.66929668  0.17781711  0.17433810  1
  In  In5  1  0.65648966  0.84259968  0.85445408  1
  In  In6  1  0.16958907  0.33987686  0.83415780  1
  In  In7  1  0.67169695  0.31973170  0.00117616  1
  In  In8  1  0.14751904  0.48632204  0.63425121  1
  In  In9  1  0.48946162  0.49788554  0.31043613  1
  In  In10  1  0.31718531  0.31827566  0.35442837  1
  In  In11  1  0.83461901  -0.01318205  0.84731540  1
  In  In12  1  0.17999541  0.51509277  0.33373560  1
  In  In13  1  0.17127106  0.17577441  0.00353486  1
  In  In14  1  0.81785231  0.50290352  0.34604737  1
  In  In15  1  0.01981284  0.35598794  0.00117592  1
  In  In16  1  0.32646054  0.49150915  0.83268366  1
  In  In17  1  0.33620950  0.80879632  0.51520792  1
  In  In18  1  0.51905011  0.00421228  0.53614908  1
  In  In19  1  0.51006854  0.69129367  0.16366648  1
  In  In20  1  0.33311349  0.16844069  0.16769043  1
  In  In21  1  0.67840423  0.50054939  0.18230777  1
  In  In22  1  -0.00246407  0.01233707  0.67171850  1
  In  In23  1  0.48605630  0.00250019  0.15133645  1
  In  In24  1  0.33043046  -0.00342792  0.34449004  1
  In  In25  1  -0.02237118  0.15217138  0.18754644  1
  In  In26  1  0.82180494  -0.00760063  0.21197725  1
  In  In27  1  0.16493002  0.17363922  0.67254849  1
  In  In28  1  0.66881695  0.67257787  0.33744956  1
  In  In29  1  0.66165317  0.83198650  0.49288446  1
  In  In30  1  0.85356953  0.80100875  -0.03165078  1
  In  In31  1  -0.00631398  0.32695492  0.33953924  1
  In  In32  1  0.51084668  0.31435324  0.46997327  1
  In  In33  1  0.74080541  0.65730973  -0.01537340  1
  In  In34  1  0.79726089  -0.00724721  0.47540855  1
  In  In35  1  0.82695147  0.33475356  0.16559543  1
  In  In36  1  0.33248245  -0.02115153  0.00299973  1
  In  In37  1  0.15091602  0.33528769  0.50819890  1
  In  In38  1  -0.01049859  -0.00242794  0.00159642  1
  In  In39  1  0.49959247  0.50145635  -0.01642038  1
  In  In40  1  0.16389854  0.00801703  0.50946696  1
  In  In41  1  -0.03286286  0.52536774  0.12591568  1
  In  In42  1  0.14850007  0.15137534  0.31669824  1
  In  In43  1  0.32887349  0.67098201  0.68029408  1
  In  In44  1  -0.01563272  0.66234835  0.34468404  1
  In  In45  1  0.84538144  0.36442625  0.77875714  1
  In  In46  1  0.49690171  0.84137575  -0.00642279  1
  In  In47  1  -0.01077022  0.51195350  0.83295359  1
  In  In48  1  0.66560157  0.15616914  0.83516413  1
  In  In49  1  0.01194255  0.15932601  0.49799430  1
  In  In50  1  0.69667202  0.50351261  0.52857065  1
  In  In51  1  0.32556927  0.83525219  0.16300902  1
  In  In52  1  0.83868141  0.82172495  0.66732594  1
  In  In53  1  0.82712278  0.16259961  -0.00784453  1
  In  In54  1  -0.01644444  0.83917480  0.51731082  1
  In  In55  1  0.51724517  0.01256797  0.83228435  1
  In  In56  1  0.51678185  0.50861921  0.67047388  1
  In  In57  1  0.53241518  0.33247812  0.83231807  1
  In  In58  1  0.83911051  0.81075899  0.32705832  1
  In  In59  1  0.16736103  0.67273025  0.15597378  1
  In  In60  1  0.14184964  0.67943044  0.82771599  1
  In  In61  1  0.14541821  0.65002236  0.50080991  1
  In  In62  1  0.51774873  0.66467281  0.48527300  1
  In  In63  1  0.32869023  0.51767257  0.15756448  1
  In  In64  1  0.11857951  0.84961514  0.28726665  1
  In  In65  1  0.18658502  -0.04933560  0.80768810  1
  In  In66  1  0.51147584  0.67545960  0.82110725  1
  In  In67  1  0.64568317  0.33275332  0.36234115  1
  In  In68  1  0.52657844  0.18967542  0.34480525  1
  In  In69  1  0.34957272  0.16600531  0.52568491  1
  In  In70  1  0.15060763  0.81496036  -0.00145000  1
  In  In71  1  0.30073493  0.50656608  0.51107371  1
  Te  Te72  1  0.07529986  0.09173690  0.08629954  1
  Te  Te73  1  0.06858007  0.05544390  0.40149330  1
  Te  Te74  1  0.09811908  0.07528745  0.76446536  1
  Te  Te75  1  0.08481720  0.44491812  0.09600268  1
  Te  Te76  1  0.08263690  0.42889686  0.41327493  1
  Te  Te77  1  0.07304946  0.41645726  0.74723610  1
  Te  Te78  1  0.05858145  0.75126756  0.09563974  1
  Te  Te79  1  0.08048053  0.76238967  0.41456065  1
  Te  Te80  1  0.02897328  0.74035617  0.75681843  1
  Te  Te81  1  0.41075064  0.09621121  0.05967060  1
  Te  Te82  1  0.42347568  0.09417588  0.41443015  1
  Te  Te83  1  0.44727171  0.09426912  0.73153471  1
  Te  Te84  1  0.42011070  0.41879778  0.08197305  1
  Te  Te85  1  0.40519506  0.42794233  0.41748280  1
  Te  Te86  1  0.43012730  0.41583782  0.75384127  1
  Te  Te87  1  0.40425774  0.74757119  0.06883838  1
  Te  Te88  1  0.43461674  0.76166627  0.41661451  1
  Te  Te89  1  0.42638532  0.76076255  0.73997532  1
  Te  Te90  1  0.76168843  0.08276970  0.09996368  1
  Te  Te91  1  0.74970534  0.09463931  0.38163870  1
  Te  Te92  1  0.74131897  0.05364590  0.75081587  1
  Te  Te93  1  0.75424135  0.42729510  0.07314912  1
  Te  Te94  1  0.76075847  0.39768763  0.43917488  1
  Te  Te95  1  0.73979134  0.40362118  0.68613207  1
  Te  Te96  1  0.76815988  0.76327467  0.08279680  1
  Te  Te97  1  0.76287831  0.73361294  0.43791744  1
  Te  Te98  1  0.74594318  0.75402918  0.76558072  1
  Te  Te99  1  0.08133688  0.25847193  0.23634934  1
  Te  Te100  1  0.06124139  0.25987105  0.60435148  1
  Te  Te101  1  0.07687066  0.24749304  0.91009562  1
  Te  Te102  1  0.07559903  0.58346541  0.24956647  1
  Te  Te103  1  0.04212568  0.58613850  0.59463139  1
  Te  Te104  1  0.07277184  0.59295834  0.92619090  1
  Te  Te105  1  0.03399922  0.93946968  0.21403328  1
  Te  Te106  1  0.08748852  0.91272297  0.59959328  1
  Te  Te107  1  0.07875247  0.91553775  0.90791334  1
  Te  Te108  1  0.41661615  0.25629508  0.25798853  1
  Te  Te109  1  0.42963959  0.27148306  0.58558790  1
  Te  Te110  1  0.43340890  0.24586155  0.90770844  1
  Te  Te111  1  0.41200028  0.60972122  0.24890939  1
  Te  Te112  1  0.41638194  0.58391297  0.58075402  1
  Te  Te113  1  0.41006247  0.59421834  0.90484116  1
  Te  Te114  1  0.41808202  0.91226311  0.25424506  1
  Te  Te115  1  0.40498710  0.92201321  0.58881761  1
  Te  Te116  1  0.41091149  0.91336693  0.89448361  1
  Te  Te117  1  0.74971823  0.26337294  0.27129562  1
  Te  Te118  1  0.70843997  0.23698246  0.58974595  1
  Te  Te119  1  0.76438466  0.26040481  0.89469824  1
  Te  Te120  1  0.76891712  0.60413397  0.24405919  1
  Te  Te121  1  0.80387146  0.53458146  0.63433415  1
  Te  Te122  1  0.79014879  0.56583431  0.88080274  1
  Te  Te123  1  0.73007528  0.89368756  0.27179937  1
  Te  Te124  1  0.74313292  0.91430321  0.59256541  1
  Te  Te125  1  0.75285152  0.91424800  0.95029756  1
  Te  Te126  1  0.25025621  0.26963921  0.09080106  1
  Te  Te127  1  0.22714015  0.21892897  0.43299588  1
  Te  Te128  1  0.26436043  0.25211022  0.75619897  1
  Te  Te129  1  0.26036282  0.60594302  0.06441636  1
  Te  Te130  1  0.26540918  0.61275390  0.41099598  1
  Te  Te131  1  0.23356338  0.56588322  0.73897367  1
  Te  Te132  1  0.22480795  0.91801993  0.08789225  1
  Te  Te133  1  0.24682774  0.90743991  0.43238397  1
  Te  Te134  1  0.28503163  0.93687147  0.70227140  1
  Te  Te135  1  0.57748901  0.24591981  0.08325558  1
  Te  Te136  1  0.64149089  0.18212782  0.45527452  1
  Te  Te137  1  0.59888248  0.24363837  0.73523108  1
  Te  Te138  1  0.57726931  0.57360488  0.09532145  1
  Te  Te139  1  0.59842320  0.55574164  0.40715438  1
  Te  Te140  1  0.61215823  0.57665850  0.76365380  1
  Te  Te141  1  0.58151617  0.91293351  0.08749585  1
  Te  Te142  1  0.58617974  0.93723708  0.42525019  1
  Te  Te143  1  0.58978804  0.91529412  0.74829302  1
  Te  Te144  1  0.91997028  0.25141861  0.07921634  1
  Te  Te145  1  0.91885369  0.25926559  0.44493477  1
  Te  Te146  1  0.91235328  0.24195626  0.73306006  1
  Te  Te147  1  0.87105174  0.58776768  0.03356619  1
  Te  Te148  1  0.91752710  0.56495597  0.43936943  1
  Te  Te149  1  0.89798124  0.62553541  0.79052801  1
  Te  Te150  1  0.91663127  0.92490800  0.11163647  1
  Te  Te151  1  0.91143008  0.91637447  0.41049882  1
  Te  Te152  1  0.92659962  0.90825520  0.75713928  1
  Te  Te153  1  0.24610140  0.06613984  0.23831989  1
  Te  Te154  1  0.26136318  0.07282233  0.60890500  1
  Te  Te155  1  0.24622658  0.07549514  0.91754070  1
  Te  Te156  1  0.25869359  0.41544104  0.25325302  1
  Te  Te157  1  0.26183960  0.38986572  0.59663794  1
  Te  Te158  1  0.23333331  0.43197376  0.93592691  1
  Te  Te159  1  0.23734460  0.76002274  0.26023322  1
  Te  Te160  1  0.22290176  0.73930087  0.59760506  1
  Te  Te161  1  0.23692078  0.77760787  0.88328192  1
  Te  Te162  1  0.57518235  0.08358660  0.24789687  1
  Te  Te163  1  0.59936223  0.11626831  0.59075799  1
  Te  Te164  1  0.59869948  0.07547352  0.93670988  1
  Te  Te165  1  0.58134177  0.39970877  0.24130151  1
  Te  Te166  1  0.57546079  0.41937752  0.56488155  1
  Te  Te167  1  0.61339932  0.43113137  0.91270859  1
  Te  Te168  1  0.59479684  0.76890217  0.25619364  1
  Te  Te169  1  0.59374551  0.73591131  0.59376711  1
  Te  Te170  1  0.59455711  0.72838996  0.93776092  1
  Te  Te171  1  0.88366330  0.10488809  0.29154588  1
  Te  Te172  1  0.90244200  0.07146402  0.56918296  1
  Te  Te173  1  0.92685707  0.09358849  0.90179080  1
  Te  Te174  1  0.91563296  0.43001862  0.24515786  1
  Te  Te175  1  0.93828702  0.47513039  0.56769836  1
  Te  Te176  1  0.90981762  0.40756539  0.91406953  1
  Te  Te177  1  0.93570506  0.74670085  0.23405033  1
  Te  Te178  1  0.91375575  0.72806533  0.58221888  1
  Te  Te179  1  0.96320802  0.72537117  0.89551921  1
