# generated using pymatgen
data_In2Te3
_symmetry_space_group_name_H-M   'P 1'
_cell_length_a   18.75031111
_cell_length_b   18.75848584
_cell_length_c   18.74863342
_cell_angle_alpha   89.96075794
_cell_angle_beta   90.09694624
_cell_angle_gamma   89.98283414
_symmetry_Int_Tables_number   1
_chemical_formula_structural   In2Te3
_chemical_formula_sum   'In72 Te108'
_cell_volume   6594.39765498
_cell_formula_units_Z   36
loop_
 _symmetry_equiv_pos_site_id
 _symmetry_equiv_pos_as_xyz
  1  'x, y, z'
loop_
 _atom_site_type_symbol
 _atom_site_label
 _atom_site_symmetry_multiplicity
 _atom_site_fract_x
 _atom_site_fract_y
 _atom_site_fract_z
 _atom_site_occupancy
  In  In0  1  0.31974378  0.49409646  0.48340564  1
  In  In1  1  0.81639113  -0.00526079  0.16655954  1
  In  In2  1  0.67246802  0.50038114  0.47976971  1
  In  In3  1  0.80295227  0.86949911  -0.01797199  1
  In  In4  1  0.50822848  -0.01007648  0.84888429  1
  In  In5  1  0.33252740  0.82480955  0.85825525  1
  In  In6  1  0.17538674  0.64435021  0.49475555  1
  In  In7  1  0.17843163  0.81754700  0.30949688  1
  In  In8  1  0.00950381  0.17120689  0.15159617  1
  In  In9  1  0.84448823  0.67105720  0.82258937  1
  In  In10  1  0.49469125  0.16642741  0.00734543  1
  In  In11  1  0.48061980  0.30307526  0.46252598  1
  In  In12  1  0.19412095  0.51057710  0.67232150  1
  In  In13  1  0.65112594  0.48551939  0.84138128  1
  In  In14  1  0.01861267  0.31656297  0.66272056  1
  In  In15  1  0.32871703  0.50077321  0.86117144  1
  In  In16  1  0.52280158  0.51731541  0.66254614  1
  In  In17  1  0.65239255  0.14800081  0.50066208  1
  In  In18  1  0.80469943  0.13076940  0.69621281  1
  In  In19  1  0.85137383  0.34605544  0.85594326  1
  In  In20  1  0.30920451  0.85335458  0.13916055  1
  In  In21  1  0.50221822  0.32499719  0.84529505  1
  In  In22  1  0.49155265  0.83061139  0.30782013  1
  In  In23  1  0.81527544  0.29707852  0.17807329  1
  In  In24  1  0.66891285  0.70149356  0.32823869  1
  In  In25  1  0.00397357  0.00302918  0.31025504  1
  In  In26  1  0.17024005  0.01696622  0.49627016  1
  In  In27  1  0.03317008  0.66164904  -0.01069368  1
  In  In28  1  0.31703302  0.34008844  0.68017271  1
  In  In29  1  0.00158943  0.18147315  0.49856793  1
  In  In30  1  0.84315717  0.49837697  0.33881898  1
  In  In31  1  0.32753697  0.16321611  0.15528024  1
  In  In32  1  0.65378872  0.82735258  0.50881577  1
  In  In33  1  0.48772925  0.15584601  0.30934645  1
  In  In34  1  0.18868318  0.33736838  0.85240614  1
  In  In35  1  0.35971556  0.17566814  0.85034232  1
  In  In36  1  -0.00881181  0.14977550  0.83753203  1
  In  In37  1  0.00977269  0.32148713  0.30584540  1
  In  In38  1  0.50555052  0.67698285  0.49672447  1
  In  In39  1  0.80941052  0.85598660  0.33206439  1
  In  In40  1  0.51209733  0.15315156  0.66959776  1
  In  In41  1  0.84686459  0.49302733  0.00349322  1
  In  In42  1  -0.01536990  0.80589334  0.51836865  1
  In  In43  1  0.32623624  0.16650055  0.48633402  1
  In  In44  1  -0.00047786  0.63480735  0.32210461  1
  In  In45  1  0.17271771  -0.00323430  0.83733116  1
  In  In46  1  0.04774699  0.48179224  0.14477742  1
  In  In47  1  0.83339301  0.68317862  0.15996496  1
  In  In48  1  0.33604232  0.33653291  0.31537899  1
  In  In49  1  0.01718311  0.82035622  0.14394248  1
  In  In50  1  0.52453894  0.85415006  0.02215107  1
  In  In51  1  0.63009854  0.50147927  0.17063726  1
  In  In52  1  0.00845252  0.83676586  0.85514095  1
  In  In53  1  0.64982349  0.01564839  0.32373144  1
  In  In54  1  0.17005775  0.82029215  0.69364745  1
  In  In55  1  0.82422022  0.34904795  0.48467139  1
  In  In56  1  0.33011781  0.01194953  0.32191911  1
  In  In57  1  0.66494945  0.32021267  -0.00335246  1
  In  In58  1  0.16410663  0.49356005  0.31457633  1
  In  In59  1  0.16774742  0.16863463  0.00143851  1
  In  In60  1  -0.00460289  -0.01555828  0.68013870  1
  In  In61  1  0.83559670  0.83474774  0.67864702  1
  In  In62  1  0.01127906  0.50589837  0.49565919  1
  In  In63  1  0.36730885  0.84891150  0.51520923  1
  In  In64  1  0.66768187  0.67650395  0.67988019  1
  In  In65  1  0.34036121  0.67653826  0.69271682  1
  In  In66  1  0.84753980  0.52095214  0.69356558  1
  In  In67  1  0.33153729  0.65521225  0.00645184  1
  In  In68  1  0.83797796  0.15114172  0.01155265  1
  In  In69  1  0.64167315  0.66931287  -0.00347508  1
  In  In70  1  0.81700555  -0.00133031  0.49706736  1
  In  In71  1  0.64967146  0.31475865  0.66177968  1
  Te  Te72  1  0.07852620  0.06876557  0.06800494  1
  Te  Te73  1  0.08552896  0.09830579  0.39824726  1
  Te  Te74  1  0.09181000  0.08614700  0.74095809  1
  Te  Te75  1  0.12348798  0.38318526  0.06493358  1
  Te  Te76  1  0.08626299  0.40496116  0.41299715  1
  Te  Te77  1  0.10149910  0.41179744  0.74778686  1
  Te  Te78  1  0.12510217  0.74079478  0.07661989  1
  Te  Te79  1  0.08161187  0.74301333  0.41314422  1
  Te  Te80  1  0.06166008  0.74254108  0.75440614  1
  Te  Te81  1  0.40888421  0.06709008  0.07712386  1
  Te  Te82  1  0.42860275  0.07305694  0.42288711  1
  Te  Te83  1  0.41606651  0.07077524  0.75487802  1
  Te  Te84  1  0.39844089  0.46785937  0.09659285  1
  Te  Te85  1  0.43225577  0.43355017  0.40122728  1
  Te  Te86  1  0.42552993  0.42493889  0.74928000  1
  Te  Te87  1  0.41756286  0.75896385  0.08253503  1
  Te  Te88  1  0.40490324  0.74817134  0.40679847  1
  Te  Te89  1  0.42859585  0.77604100  0.75486235  1
  Te  Te90  1  0.72769494  0.08740754  0.08959746  1
  Te  Te91  1  0.75868861  0.09450616  0.39630237  1
  Te  Te92  1  0.71432239  0.04490319  0.77342020  1
  Te  Te93  1  0.74445931  0.42055153  0.09204552  1
  Te  Te94  1  0.72838529  0.40286865  0.37533559  1
  Te  Te95  1  0.74522957  0.41000301  0.74646808  1
  Te  Te96  1  0.73779539  0.76317547  0.07300637  1
  Te  Te97  1  0.76583805  0.75144887  0.43750956  1
  Te  Te98  1  0.73567397  0.77017635  0.77974910  1
  Te  Te99  1  0.11201512  0.24569420  0.23128189  1
  Te  Te100  1  0.11123241  0.23626354  0.58108506  1
  Te  Te101  1  0.07274653  0.25269274  0.91295364  1
  Te  Te102  1  0.10604791  0.60326078  0.22100253  1
  Te  Te103  1  0.08084993  0.59007583  0.60222107  1
  Te  Te104  1  0.07089188  0.55303221  0.89821202  1
  Te  Te105  1  0.10246477  0.92233199  0.22631653  1
  Te  Te106  1  0.08500178  0.90800960  0.58129570  1
  Te  Te107  1  0.10586800  0.91208677  0.94461284  1
  Te  Te108  1  0.42957222  0.26416696  0.21771118  1
  Te  Te109  1  0.42265153  0.25891356  0.59764946  1
  Te  Te110  1  0.40042010  0.28287766  0.95003802  1
  Te  Te111  1  0.44992043  0.53671533  0.21968670  1
  Te  Te112  1  0.40530524  0.58019845  0.58098391  1
  Te  Te113  1  0.42750723  0.60064031  0.90536304  1
  Te  Te114  1  0.41578931  0.93340864  0.22498559  1
  Te  Te115  1  0.45586754  0.93964757  0.58590943  1
  Te  Te116  1  0.40795660  0.92611642  0.94522485  1
  Te  Te117  1  0.71239722  0.24915678  0.26739050  1
  Te  Te118  1  0.75504116  0.24099276  0.57795273  1
  Te  Te119  1  0.75755380  0.23800697  0.90788302  1
  Te  Te120  1  0.75014295  0.58754510  0.24611876  1
  Te  Te121  1  0.74409802  0.57697901  0.59189810  1
  Te  Te122  1  0.75247683  0.58073869  0.91776949  1
  Te  Te123  1  0.70413946  0.89801288  0.22607527  1
  Te  Te124  1  0.73697523  0.92108487  0.59865158  1
  Te  Te125  1  0.70428046  0.95947365  0.91427071  1
  Te  Te126  1  0.24319706  0.26908185  0.08525674  1
  Te  Te127  1  0.24621036  0.26078996  0.40612116  1
  Te  Te128  1  0.24814843  0.23072858  0.75832595  1
  Te  Te129  1  0.27576568  0.55484551  0.10614915  1
  Te  Te130  1  0.26371331  0.59244220  0.38133130  1
  Te  Te131  1  0.24098337  0.60421193  0.78220594  1
  Te  Te132  1  0.20745416  0.93191965  0.06442528  1
  Te  Te133  1  0.25068779  0.91081406  0.41596544  1
  Te  Te134  1  0.26861719  0.91995320  0.74536540  1
  Te  Te135  1  0.57909751  0.25326319  0.09546892  1
  Te  Te136  1  0.59822687  0.24247323  0.38881874  1
  Te  Te137  1  0.59588460  0.22700057  0.77539678  1
  Te  Te138  1  0.54620187  0.59104764  0.08268449  1
  Te  Te139  1  0.58266438  0.59197236  0.39692693  1
  Te  Te140  1  0.57270863  0.60158712  0.77817312  1
  Te  Te141  1  0.60854967  0.94571967  0.10851258  1
  Te  Te142  1  0.57583018  0.91157871  0.40840279  1
  Te  Te143  1  0.61276524  0.92752537  0.76316592  1
  Te  Te144  1  0.91865865  0.26818807  0.07253511  1
  Te  Te145  1  0.90884859  0.25311520  0.39978187  1
  Te  Te146  1  0.90655647  0.24765683  0.74286530  1
  Te  Te147  1  0.93129991  0.58753374  0.09208309  1
  Te  Te148  1  0.90395982  0.59826972  0.43710278  1
  Te  Te149  1  0.95119940  0.56717176  0.79167704  1
  Te  Te150  1  0.91407795  0.91571485  0.07946236  1
  Te  Te151  1  0.92923576  0.92237066  0.42017116  1
  Te  Te152  1  0.90144409  0.92655940  0.78337028  1
  Te  Te153  1  0.23351106  0.09932291  0.25228883  1
  Te  Te154  1  0.26495445  0.08012989  0.58931767  1
  Te  Te155  1  0.26720429  0.07988571  0.92596058  1
  Te  Te156  1  0.25819756  0.42441779  0.21925715  1
  Te  Te157  1  0.23326933  0.40331756  0.56827973  1
  Te  Te158  1  0.22992269  0.43857595  0.95853862  1
  Te  Te159  1  0.28080621  0.74234467  0.23562010  1
  Te  Te160  1  0.25415995  0.74838806  0.57684287  1
  Te  Te161  1  0.23215709  0.74257774  0.93184726  1
  Te  Te162  1  0.56884549  0.07371681  0.21109509  1
  Te  Te163  1  0.57318438  0.04658955  0.57978801  1
  Te  Te164  1  0.59598239  0.07693775  0.93857546  1
  Te  Te165  1  0.53816957  0.41450119  0.24777599  1
  Te  Te166  1  0.57770248  0.41037118  0.56458003  1
  Te  Te167  1  0.56137044  0.42537124  0.94639865  1
  Te  Te168  1  0.56718293  0.73266231  0.22565496  1
  Te  Te169  1  0.55940701  0.76197064  0.61111426  1
  Te  Te170  1  0.57738370  0.77079708  0.91047111  1
  Te  Te171  1  0.90563694  0.09539593  0.24037362  1
  Te  Te172  1  0.91810954  0.08009609  0.58399706  1
  Te  Te173  1  0.91070574  0.05810816  0.92029558  1
  Te  Te174  1  0.92556465  0.42668365  0.23243670  1
  Te  Te175  1  0.91729766  0.41831214  0.58750314  1
  Te  Te176  1  0.95714779  0.42696019  0.92528117  1
  Te  Te177  1  0.91965176  0.76261382  0.25900195  1
  Te  Te178  1  0.91363044  0.72340890  0.61816817  1
  Te  Te179  1  0.90733621  0.75022892  0.94097516  1
