# generated using pymatgen
data_In2Te3
_symmetry_space_group_name_H-M   'P 1'
_cell_length_a   18.95241235
_cell_length_b   18.93990222
_cell_length_c   18.96971863
_cell_angle_alpha   90.00610189
_cell_angle_beta   90.31800164
_cell_angle_gamma   89.95866420
_symmetry_Int_Tables_number   1
_chemical_formula_structural   In2Te3
_chemical_formula_sum   'In72 Te108'
_cell_volume   6809.20350672
_cell_formula_units_Z   36
loop_
 _symmetry_equiv_pos_site_id
 _symmetry_equiv_pos_as_xyz
  1  'x, y, z'
loop_
 _atom_site_type_symbol
 _atom_site_label
 _atom_site_symmetry_multiplicity
 _atom_site_fract_x
 _atom_site_fract_y
 _atom_site_fract_z
 _atom_site_occupancy
  In  In0  1  0.84745178  0.33929037  0.48903647  1
  In  In1  1  0.33602082  0.66870740  0.31692802  1
  In  In2  1  0.32803924  0.80790923  0.83574971  1
  In  In3  1  -0.01671636  -0.01681497  0.65369374  1
  In  In4  1  0.32509774  -0.01253776  0.02078309  1
  In  In5  1  0.81156622  0.68449020  0.19793699  1
  In  In6  1  0.50565301  0.67606648  0.13884833  1
  In  In7  1  0.66241351  0.35138303  0.79252708  1
  In  In8  1  0.50793179  0.84446753  -0.00653418  1
  In  In9  1  0.14674844  -0.00276534  0.17160721  1
  In  In10  1  0.39030380  0.19027160  0.40475675  1
  In  In11  1  -0.01360210  0.67146531  0.02548986  1
  In  In12  1  0.85429054  0.17113794  0.01835518  1
  In  In13  1  0.66552581  0.65040302  0.65016819  1
  In  In14  1  0.67524802  0.83607682  0.85570900  1
  In  In15  1  0.84145771  0.03349177  0.19736732  1
  In  In16  1  0.48304019  0.36480148  0.48289290  1
  In  In17  1  0.82609148  0.41200646  0.87670372  1
  In  In18  1  0.33770496  0.14708167  0.83199400  1
  In  In19  1  0.14183409  0.34179741  0.82489663  1
  In  In20  1  0.65980950  0.17555779  0.48692686  1
  In  In21  1  -0.00569438  0.14463142  0.86062438  1
  In  In22  1  -0.00191855  0.57507221  0.36100584  1
  In  In23  1  0.19226433  0.83374723  0.32309751  1
  In  In24  1  0.49938347  0.35524407  0.18719300  1
  In  In25  1  0.16296563  0.19640283  0.31144922  1
  In  In26  1  0.35616217  0.64717999  0.65899175  1
  In  In27  1  0.51829503  0.01292467  0.83572474  1
  In  In28  1  0.50930971  0.49354801  0.00968282  1
  In  In29  1  0.32929165  0.18448351  0.17083496  1
  In  In30  1  0.51369683  0.17885711  -0.02076888  1
  In  In31  1  0.14917900  0.17066148  0.64988588  1
  In  In32  1  0.47676298  0.84010319  0.32401859  1
  In  In33  1  0.31677442  0.30955544  -0.01956131  1
  In  In34  1  0.67278016  0.32205808  0.00648197  1
  In  In35  1  0.12965923  -0.02226043  0.86204316  1
  In  In36  1  -0.00233838  0.80841323  0.19560928  1
  In  In37  1  0.81947574  0.62254964  0.83049047  1
  In  In38  1  0.14510736  0.63263006  0.86885489  1
  In  In39  1  -0.00229621  0.82431691  0.47896706  1
  In  In40  1  0.16282047  0.01367507  0.48737929  1
  In  In41  1  0.81894604  0.84017545  0.33262145  1
  In  In42  1  0.85746993  0.80937518  0.66482280  1
  In  In43  1  0.66423386  0.49551780  0.50171842  1
  In  In44  1  0.17175956  0.36087410  0.47852342  1
  In  In45  1  0.48877529  0.83815910  0.66715467  1
  In  In46  1  0.51433491  0.50310302  0.65965816  1
  In  In47  1  0.64730675  0.66769505  0.36225455  1
  In  In48  1  0.50891109  0.01672963  0.21257056  1
  In  In49  1  0.84403775  0.34471649  0.13335953  1
  In  In50  1  0.34629122  0.48586403  0.83195596  1
  In  In51  1  -0.06715933  0.37993213  0.68242728  1
  In  In52  1  0.32953229  -0.02031328  0.68261323  1
  In  In53  1  0.67692489  0.32888627  0.29561421  1
  In  In54  1  0.33671283  0.31158895  0.63976285  1
  In  In55  1  0.65284533  0.85623121  0.14243727  1
  In  In56  1  0.32820983  0.49723706  0.18066168  1
  In  In57  1  0.66101267  0.85159164  0.50299169  1
  In  In58  1  0.66383785  0.09955940  0.68358998  1
  In  In59  1  0.32606724  0.64750202  0.01290865  1
  In  In60  1  0.01284874  0.80119122  0.85061799  1
  In  In61  1  0.20543402  0.64426226  0.49446034  1
  In  In62  1  -0.01493991  0.33989938  0.33199637  1
  In  In63  1  0.16180001  0.49509275  0.66702029  1
  In  In64  1  0.83100091  0.84383673  0.01593626  1
  In  In65  1  -0.00556299  0.49479942  0.16560657  1
  In  In66  1  0.12299055  0.79344737  0.68986834  1
  In  In67  1  0.85166126  0.16815770  0.66418804  1
  In  In68  1  0.81163218  0.02442579  0.48828546  1
  In  In69  1  0.16317816  0.16043097  0.03625164  1
  In  In70  1  0.00518759  0.21714933  0.47563478  1
  In  In71  1  0.31817382  0.83802618  0.50070938  1
  Te  Te72  1  0.05387534  0.07923594  0.08982881  1
  Te  Te73  1  0.07717925  0.10236012  0.39947056  1
  Te  Te74  1  0.07894086  0.07307368  0.74356139  1
  Te  Te75  1  0.06481353  0.42340211  0.05652889  1
  Te  Te76  1  0.08080666  0.44260604  0.39051583  1
  Te  Te77  1  0.05110692  0.44440001  0.75973230  1
  Te  Te78  1  0.09028809  0.73113636  0.11133868  1
  Te  Te79  1  0.11711568  0.74735873  0.42219292  1
  Te  Te80  1  0.03997586  0.67952230  0.75887164  1
  Te  Te81  1  0.40280280  0.11029816  0.06148280  1
  Te  Te82  1  0.46654378  0.07019051  0.35380348  1
  Te  Te83  1  0.42975292  0.08490010  0.73126893  1
  Te  Te84  1  0.40495994  0.39993195  0.07057804  1
  Te  Te85  1  0.37792893  0.42618510  0.39017241  1
  Te  Te86  1  0.41998726  0.40379286  0.73022009  1
  Te  Te87  1  0.40444445  0.76673132  0.07230388  1
  Te  Te88  1  0.41082223  0.74707079  0.42477361  1
  Te  Te89  1  0.43424286  0.73124281  0.75989350  1
  Te  Te90  1  0.74983061  0.10998031  0.10687965  1
  Te  Te91  1  0.71835307  0.08078999  0.38563996  1
  Te  Te92  1  0.79103301  0.06342956  0.74622435  1
  Te  Te93  1  0.74054123  0.43533736  0.07438614  1
  Te  Te94  1  0.74714246  0.41376106  0.40462819  1
  Te  Te95  1  0.78718712  0.40628742  0.72776983  1
  Te  Te96  1  0.73490797  0.74608707  0.08016366  1
  Te  Te97  1  0.75234835  0.75099567  0.43470286  1
  Te  Te98  1  0.74923931  0.74342524  0.74846546  1
  Te  Te99  1  0.06415563  0.26918942  0.22700295  1
  Te  Te100  1  0.08322672  0.29007402  0.58634309  1
  Te  Te101  1  0.08995638  0.24218176  0.92608478  1
  Te  Te102  1  0.08750526  0.57652592  0.24725158  1
  Te  Te103  1  0.09685557  0.58556795  0.57177202  1
  Te  Te104  1  0.04274669  0.55472206  0.94544259  1
  Te  Te105  1  0.07290821  0.91504657  0.27517750  1
  Te  Te106  1  0.09368116  0.91080443  0.57708218  1
  Te  Te107  1  0.06712155  0.88719375  0.95751762  1
  Te  Te108  1  0.41359274  0.25970018  0.26963362  1
  Te  Te109  1  0.42771670  0.23429109  0.54901298  1
  Te  Te110  1  0.42416094  0.25967267  0.88590165  1
  Te  Te111  1  0.43683315  0.58524512  0.23915566  1
  Te  Te112  1  0.43493160  0.57737131  0.55705571  1
  Te  Te113  1  0.42477092  0.58290596  0.91762304  1
  Te  Te114  1  0.40292668  0.91641788  0.22182009  1
  Te  Te115  1  0.41842875  0.93048819  0.56894881  1
  Te  Te116  1  0.40336874  0.92597584  0.89815395  1
  Te  Te117  1  0.75666740  0.24290786  0.20419716  1
  Te  Te118  1  0.76084551  0.25196102  0.57637668  1
  Te  Te119  1  0.78513827  0.26663222  0.92111046  1
  Te  Te120  1  0.72696120  0.58747523  0.26875691  1
  Te  Te121  1  0.76808992  0.57664153  0.57257836  1
  Te  Te122  1  0.75669614  0.53330775  0.92919607  1
  Te  Te123  1  0.73393570  0.93029990  0.24626585  1
  Te  Te124  1  0.77359896  0.91436946  0.58496219  1
  Te  Te125  1  0.74330621  0.93344140  0.94047921  1
  Te  Te126  1  0.23180688  0.27946274  0.10249562  1
  Te  Te127  1  0.24518458  0.23673165  0.43243425  1
  Te  Te128  1  0.24495989  0.24837257  0.75052773  1
  Te  Te129  1  0.23848555  0.55135517  0.07819229  1
  Te  Te130  1  0.27195142  0.55607377  0.39426693  1
  Te  Te131  1  0.25138504  0.58864733  0.76070471  1
  Te  Te132  1  0.21622459  0.90896270  0.07537693  1
  Te  Te133  1  0.26657838  0.94237946  0.40346368  1
  Te  Te134  1  0.22485814  0.90307988  0.76336351  1
  Te  Te135  1  0.57179293  0.25314979  0.09696632  1
  Te  Te136  1  0.58413404  0.27888994  0.40592973  1
  Te  Te137  1  0.61005624  0.21820194  0.76055183  1
  Te  Te138  1  0.60175622  0.58151252  0.08104792  1
  Te  Te139  1  0.55698230  0.57765889  0.43810678  1
  Te  Te140  1  0.60121514  0.57194759  0.75493659  1
  Te  Te141  1  0.56290987  0.95810101  0.07648355  1
  Te  Te142  1  0.57349169  0.91802714  0.40473780  1
  Te  Te143  1  0.59200815  0.91360829  0.74801546  1
  Te  Te144  1  0.95169784  0.24440958  0.10631051  1
  Te  Te145  1  0.88219523  0.22669529  0.37932377  1
  Te  Te146  1  0.94052075  0.24652479  0.75725302  1
  Te  Te147  1  0.88938956  0.59084531  0.10661267  1
  Te  Te148  1  0.88582484  0.55892652  0.45281091  1
  Te  Te149  1  0.92622329  0.57307000  0.74561977  1
  Te  Te150  1  0.90733944  0.91005036  0.12765088  1
  Te  Te151  1  0.90922108  0.93029497  0.41538291  1
  Te  Te152  1  0.92779933  0.90025766  0.76612173  1
  Te  Te153  1  0.24667676  0.08548930  0.24857214  1
  Te  Te154  1  0.25392738  0.07982383  0.59030453  1
  Te  Te155  1  0.23356037  0.07854578  0.91828536  1
  Te  Te156  1  0.27351023  0.40779595  0.28365092  1
  Te  Te157  1  0.26600675  0.42970239  0.57687767  1
  Te  Te158  1  0.23687699  0.42133190  0.91389225  1
  Te  Te159  1  0.24474301  0.73856195  0.22486646  1
  Te  Te160  1  0.25640804  0.75386103  0.61053327  1
  Te  Te161  1  0.23070268  0.74164514  0.92987272  1
  Te  Te162  1  0.59432969  0.11539453  0.28100361  1
  Te  Te163  1  0.59152159  0.06887955  0.56228000  1
  Te  Te164  1  0.61411542  0.10707857  0.89876783  1
  Te  Te165  1  0.59692554  0.44506825  0.24978128  1
  Te  Te166  1  0.59042922  0.39323562  0.58767227  1
  Te  Te167  1  0.58361983  0.40148960  0.90830560  1
  Te  Te168  1  0.58531222  0.76074789  0.24536765  1
  Te  Te169  1  0.57557352  0.75125864  0.57872808  1
  Te  Te170  1  0.58542626  0.74322798  0.92363704  1
  Te  Te171  1  0.92485257  0.10473243  0.29424750  1
  Te  Te172  1  0.94089113  0.09691454  0.56027345  1
  Te  Te173  1  0.92524863  0.05749749  0.95407500  1
  Te  Te174  1  0.88959561  0.42788807  0.25397245  1
  Te  Te175  1  0.93745747  0.44458264  0.54678551  1
  Te  Te176  1  0.95293914  0.41865760  0.95583634  1
  Te  Te177  1  0.92089634  0.72576649  0.29777297  1
  Te  Te178  1  0.93613398  0.73003365  0.57081987  1
  Te  Te179  1  0.88898484  0.73638380  0.91943322  1
