# generated using pymatgen
data_In2Te3
_symmetry_space_group_name_H-M   'P 1'
_cell_length_a   18.84717309
_cell_length_b   18.83794055
_cell_length_c   18.86213688
_cell_angle_alpha   89.92775116
_cell_angle_beta   90.13828897
_cell_angle_gamma   89.90783507
_symmetry_Int_Tables_number   1
_chemical_formula_structural   In2Te3
_chemical_formula_sum   'In72 Te108'
_cell_volume   6696.81588144
_cell_formula_units_Z   36
loop_
 _symmetry_equiv_pos_site_id
 _symmetry_equiv_pos_as_xyz
  1  'x, y, z'
loop_
 _atom_site_type_symbol
 _atom_site_label
 _atom_site_symmetry_multiplicity
 _atom_site_fract_x
 _atom_site_fract_y
 _atom_site_fract_z
 _atom_site_occupancy
  In  In0  1  -0.02071512  -0.00963047  0.67582762  1
  In  In1  1  0.31220475  0.01706613  0.30399028  1
  In  In2  1  0.00559211  0.65514142  0.30281537  1
  In  In3  1  0.33284810  0.14216723  0.83833513  1
  In  In4  1  -0.01354521  0.34916058  0.65925948  1
  In  In5  1  -0.00445811  0.17320973  0.48008709  1
  In  In6  1  0.51750132  0.34027631  0.82114572  1
  In  In7  1  0.52961702  0.84455468  0.67866869  1
  In  In8  1  -0.01783505  0.81288544  0.52387448  1
  In  In9  1  0.53617342  -0.04693345  0.80411454  1
  In  In10  1  0.17814361  0.33638470  0.87461845  1
  In  In11  1  0.52213197  0.35207158  0.50873322  1
  In  In12  1  0.17359521  0.36753815  0.15809240  1
  In  In13  1  0.81690762  0.81957933  0.35404465  1
  In  In14  1  0.14067729  0.16977807  0.65825902  1
  In  In15  1  -0.01455643  0.49726519  0.49078796  1
  In  In16  1  0.17272041  0.49963472  0.66340703  1
  In  In17  1  0.49340606  0.49127393  -0.00747047  1
  In  In18  1  0.64750971  0.19849026  0.17969814  1
  In  In19  1  0.85464112  -0.00826715  0.83266789  1
  In  In20  1  0.00031231  -0.01837322  0.35073212  1
  In  In21  1  -0.00538540  0.33744760  0.34176365  1
  In  In22  1  0.33041640  0.49958836  0.48270777  1
  In  In23  1  0.67340652  0.81597042  0.51921831  1
  In  In24  1  0.00954736  0.01918201  0.00975238  1
  In  In25  1  0.51250437  0.17759446  0.65811165  1
  In  In26  1  0.15543053  0.66741187  0.85164467  1
  In  In27  1  0.02160642  0.17594226  0.86386138  1
  In  In28  1  0.49087637  0.00336622  0.18589616  1
  In  In29  1  0.70533534  0.52355804  0.83836831  1
  In  In30  1  0.50434343  0.00482009  0.49493138  1
  In  In31  1  0.66880717  0.16790484  0.50109368  1
  In  In32  1  0.85620847  0.62823847  0.14808657  1
  In  In33  1  0.81574492  0.18337548  0.33865725  1
  In  In34  1  0.17410659  0.63980713  0.13481446  1
  In  In35  1  0.52242772  0.77850231  0.36291408  1
  In  In36  1  0.67808699  0.65537830  0.65470013  1
  In  In37  1  -0.01271198  0.81987039  0.82855313  1
  In  In38  1  0.15223286  0.01285499  0.50562618  1
  In  In39  1  0.69387010  0.83202899  0.14740951  1
  In  In40  1  -0.02103915  0.50213773  0.83206200  1
  In  In41  1  0.83750646  0.35143606  0.15309003  1
  In  In42  1  0.34141623  0.34870928  0.00805131  1
  In  In43  1  0.33909192  0.47881319  0.84140399  1
  In  In44  1  0.66399078  0.49963312  0.15921996  1
  In  In45  1  0.34301410  0.66163874  0.63975397  1
  In  In46  1  0.19123080  0.82694175  0.33905489  1
  In  In47  1  0.31821251  0.31831539  0.34528332  1
  In  In48  1  -0.02902119  0.66081419  0.68355430  1
  In  In49  1  0.81580691  0.50316229  0.34814148  1
  In  In50  1  0.52735050  0.66233524  0.83470622  1
  In  In51  1  0.31621677  0.01181927  0.65675094  1
  In  In52  1  0.51590923  0.17325854  0.01187604  1
  In  In53  1  0.17854898  0.65682286  0.48134488  1
  In  In54  1  0.18486043  -0.01431790  0.85651177  1
  In  In55  1  0.67840734  0.01260852  0.00051435  1
  In  In56  1  0.49003213  0.64251321  0.18250294  1
  In  In57  1  0.03145425  0.81092482  0.17250075  1
  In  In58  1  0.82104613  0.17274194  0.65831123  1
  In  In59  1  0.32875371  0.81688596  0.84789962  1
  In  In60  1  0.85842357  0.80702076  0.00502611  1
  In  In61  1  0.50123914  0.81736703  -0.01199055  1
  In  In62  1  0.33561640  0.31862636  0.65964796  1
  In  In63  1  0.49870442  0.35837912  0.19574393  1
  In  In64  1  0.31592121  -0.00559687  0.01933705  1
  In  In65  1  0.66082487  0.18721366  0.82735302  1
  In  In66  1  0.00987297  0.18914527  0.16951730  1
  In  In67  1  0.83012375  0.00878846  0.17283959  1
  In  In68  1  0.36412733  0.81000254  0.47863292  1
  In  In69  1  0.83456729  0.32704631  0.84635551  1
  In  In70  1  0.33589764  0.84039054  0.16437168  1
  In  In71  1  0.49153818  0.17831253  0.32691664  1
  Te  Te72  1  0.10133988  0.08181785  0.11155803  1
  Te  Te73  1  0.09443283  0.09648363  0.39268150  1
  Te  Te74  1  0.08771411  0.06781990  0.76134030  1
  Te  Te75  1  0.05433238  0.44938855  0.11114190  1
  Te  Te76  1  0.08889809  0.42008037  0.42149649  1
  Te  Te77  1  0.09460355  0.40999670  0.76002376  1
  Te  Te78  1  0.06803000  0.71912682  0.06511205  1
  Te  Te79  1  0.07306316  0.75498930  0.40561514  1
  Te  Te80  1  0.08646202  0.74562965  0.74015342  1
  Te  Te81  1  0.41347030  0.09285395  0.08854790  1
  Te  Te82  1  0.40588505  0.08329904  0.40824662  1
  Te  Te83  1  0.43097956  0.07497409  0.74114988  1
  Te  Te84  1  0.40334075  0.44611175  0.10962779  1
  Te  Te85  1  0.42905532  0.41315330  0.40506678  1
  Te  Te86  1  0.42543781  0.42053665  0.72908262  1
  Te  Te87  1  0.41476274  0.73848183  0.08105924  1
  Te  Te88  1  0.40383839  0.68196348  0.39667492  1
  Te  Te89  1  0.42353388  0.74790075  0.74929082  1
  Te  Te90  1  0.74500855  0.10934666  0.09626223  1
  Te  Te91  1  0.75457978  0.07870516  0.42046510  1
  Te  Te92  1  0.75239412  0.08474521  0.76130534  1
  Te  Te93  1  0.75999411  0.44130009  0.06340263  1
  Te  Te94  1  0.70828222  0.45060976  0.43581351  1
  Te  Te95  1  0.76855168  0.41990365  0.75029029  1
  Te  Te96  1  0.75054306  0.71608800  0.06655623  1
  Te  Te97  1  0.72140007  0.72051218  0.41210977  1
  Te  Te98  1  0.70831393  0.73599859  0.77676052  1
  Te  Te99  1  0.10156498  0.26979317  0.25804808  1
  Te  Te100  1  0.07843800  0.27111090  0.56438163  1
  Te  Te101  1  0.07310601  0.27640532  0.95886615  1
  Te  Te102  1  0.08722064  0.55563021  0.22885521  1
  Te  Te103  1  0.08145661  0.59366469  0.58445761  1
  Te  Te104  1  0.06596623  0.57796599  0.92791080  1
  Te  Te105  1  0.10066735  0.91835837  0.25427862  1
  Te  Te106  1  0.08024059  0.91139490  0.59245573  1
  Te  Te107  1  0.07028928  0.90916694  0.92149059  1
  Te  Te108  1  0.40066972  0.24752275  0.22900839  1
  Te  Te109  1  0.42235633  0.24550725  0.55774133  1
  Te  Te110  1  0.41970528  0.25600989  0.90368541  1
  Te  Te111  1  0.38684413  0.59230541  0.27357513  1
  Te  Te112  1  0.42516627  0.55595357  0.58261424  1
  Te  Te113  1  0.41397066  0.59280090  0.91066177  1
  Te  Te114  1  0.41810254  0.90488970  0.27598618  1
  Te  Te115  1  0.41682746  0.91482349  0.58621259  1
  Te  Te116  1  0.41530030  0.92696655  0.91052215  1
  Te  Te117  1  0.74125309  0.28872153  0.25765547  1
  Te  Te118  1  0.75045061  0.26905804  0.57318614  1
  Te  Te119  1  0.74142574  0.25023317  0.93129964  1
  Te  Te120  1  0.74686292  0.59639065  0.24760551  1
  Te  Te121  1  0.73137046  0.56073879  0.54922003  1
  Te  Te122  1  0.78171874  0.61746233  0.92376019  1
  Te  Te123  1  0.74332949  0.92099967  0.26113680  1
  Te  Te124  1  0.75248949  0.90435973  0.60510580  1
  Te  Te125  1  0.76989919  0.91221832  0.93272862  1
  Te  Te126  1  0.24524447  0.26377693  0.07772497  1
  Te  Te127  1  0.25743984  0.21503552  0.42811568  1
  Te  Te128  1  0.24058956  0.24479879  0.75883803  1
  Te  Te129  1  0.27374398  0.54880352  0.07427017  1
  Te  Te130  1  0.22955119  0.55664326  0.38562461  1
  Te  Te131  1  0.25820517  0.58598684  0.75583688  1
  Te  Te132  1  0.22996861  0.88700540  0.07024009  1
  Te  Te133  1  0.25681587  0.92770012  0.43310987  1
  Te  Te134  1  0.25100551  0.90590876  0.74535554  1
  Te  Te135  1  0.57884583  0.29159286  0.07962200  1
  Te  Te136  1  0.59070843  0.25994550  0.40692258  1
  Te  Te137  1  0.60928359  0.27959385  0.71606953  1
  Te  Te138  1  0.57884739  0.59179216  0.06784376  1
  Te  Te139  1  0.56879814  0.64671118  0.41066717  1
  Te  Te140  1  0.58891138  0.56172365  0.74302349  1
  Te  Te141  1  0.57544634  0.92697088  0.08090726  1
  Te  Te142  1  0.58786314  0.90520188  0.42338383  1
  Te  Te143  1  0.66454722  0.89621416  0.73136359  1
  Te  Te144  1  0.91827179  0.25362238  0.07535294  1
  Te  Te145  1  0.89063605  0.27515794  0.43507840  1
  Te  Te146  1  0.93575966  0.23401096  0.74824790  1
  Te  Te147  1  0.93955617  0.54248549  0.05904940  1
  Te  Te148  1  0.91222458  0.60500232  0.41135121  1
  Te  Te149  1  0.87776825  0.55450682  0.73397551  1
  Te  Te150  1  0.92562417  0.91933453  0.09463888  1
  Te  Te151  1  0.89968006  0.91391738  0.44230030  1
  Te  Te152  1  0.88732780  0.88071715  0.72917040  1
  Te  Te153  1  0.23360965  0.07784704  0.19807969  1
  Te  Te154  1  0.25440002  0.12075775  0.56429235  1
  Te  Te155  1  0.23068205  0.10307257  0.94151033  1
  Te  Te156  1  0.25962351  0.43002004  0.26460821  1
  Te  Te157  1  0.24513316  0.40403655  0.57106767  1
  Te  Te158  1  0.23243737  0.45872065  0.95267207  1
  Te  Te159  1  0.24902970  0.73428261  0.23669242  1
  Te  Te160  1  0.24969150  0.75847260  0.57070321  1
  Te  Te161  1  0.23894686  0.75027957  0.94300704  1
  Te  Te162  1  0.59481275  0.08289714  0.26443174  1
  Te  Te163  1  0.59865380  0.06881142  0.59648177  1
  Te  Te164  1  0.57314144  0.07723529  0.90718173  1
  Te  Te165  1  0.57966675  0.45392451  0.27227426  1
  Te  Te166  1  0.61265506  0.45718595  0.56347778  1
  Te  Te167  1  0.60313663  0.42682428  0.90931650  1
  Te  Te168  1  0.58241990  0.76061780  0.22097374  1
  Te  Te169  1  0.56179500  0.72883480  0.58265006  1
  Te  Te170  1  0.61320312  0.76721363  0.90052417  1
  Te  Te171  1  0.92265183  0.08980298  0.26433152  1
  Te  Te172  1  0.91439293  0.08425871  0.57481896  1
  Te  Te173  1  0.90671845  0.09819885  0.92972268  1
  Te  Te174  1  0.91526379  0.43384995  0.25587048  1
  Te  Te175  1  0.89115205  0.43719641  0.58789587  1
  Te  Te176  1  0.90777793  0.42213216  0.93669018  1
  Te  Te177  1  0.90258461  0.75827927  0.23817181  1
  Te  Te178  1  0.88144307  0.72497925  0.58460161  1
  Te  Te179  1  0.90133487  0.71383352  0.89383235  1
