# generated using pymatgen
data_In2Te3
_symmetry_space_group_name_H-M   'P 1'
_cell_length_a   18.94975851
_cell_length_b   18.95842430
_cell_length_c   18.95196067
_cell_angle_alpha   89.97129611
_cell_angle_beta   89.94849419
_cell_angle_gamma   89.99918304
_symmetry_Int_Tables_number   1
_chemical_formula_structural   In2Te3
_chemical_formula_sum   'In72 Te108'
_cell_volume   6808.63158100
_cell_formula_units_Z   36
loop_
 _symmetry_equiv_pos_site_id
 _symmetry_equiv_pos_as_xyz
  1  'x, y, z'
loop_
 _atom_site_type_symbol
 _atom_site_label
 _atom_site_symmetry_multiplicity
 _atom_site_fract_x
 _atom_site_fract_y
 _atom_site_fract_z
 _atom_site_occupancy
  In  In0  1  0.83001779  0.34807701  0.48438205  1
  In  In1  1  0.32443265  0.19090264  0.51732426  1
  In  In2  1  0.69580707  0.66338370  -0.00138603  1
  In  In3  1  0.34328764  0.32156968  0.33631283  1
  In  In4  1  0.50529557  0.48322248  0.65428424  1
  In  In5  1  0.31661216  0.64362411  0.66980393  1
  In  In6  1  0.68857508  0.16239407  0.17697595  1
  In  In7  1  0.82770571  0.49769729  0.33043065  1
  In  In8  1  0.30380556  -0.02897582  0.00817491  1
  In  In9  1  0.14456565  0.16752062  0.65608000  1
  In  In10  1  0.67053302  0.69923710  0.34755446  1
  In  In11  1  0.00690058  0.17426762  0.84177234  1
  In  In12  1  0.14984136  0.35381961  0.17272713  1
  In  In13  1  0.84174391  0.83227221  0.33038663  1
  In  In14  1  0.32453942  0.51982282  0.13774216  1
  In  In15  1  -0.01411327  0.68757223  0.68056400  1
  In  In16  1  0.14701457  0.13856464  0.00694349  1
  In  In17  1  0.65026721  0.01556371  -0.00281506  1
  In  In18  1  0.82668953  0.20199339  -0.03078443  1
  In  In19  1  0.49920323  0.00699623  0.84897118  1
  In  In20  1  0.52602507  0.18965377  0.01192270  1
  In  In21  1  0.66597606  0.16396810  0.48785439  1
  In  In22  1  -0.01553727  0.18384157  0.51171036  1
  In  In23  1  0.83242130  0.50078619  0.66161643  1
  In  In24  1  0.65109675  0.64841669  0.65329628  1
  In  In25  1  0.16615594  -0.03785137  0.83202922  1
  In  In26  1  0.02423978  0.68097206  0.00205757  1
  In  In27  1  0.33865649  0.34456887  0.01968083  1
  In  In28  1  0.65618922  0.82864229  0.83280192  1
  In  In29  1  0.14026975  0.00263240  0.51942915  1
  In  In30  1  0.49430250  0.01360368  0.17543839  1
  In  In31  1  0.84913025  0.16622135  0.34578159  1
  In  In32  1  0.51254928  0.01164146  0.48055041  1
  In  In33  1  0.68086952  0.48145776  0.16548702  1
  In  In34  1  0.49760387  0.48427234  0.33372933  1
  In  In35  1  0.85091141  -0.01242147  0.19035725  1
  In  In36  1  0.15627115  -0.03130617  0.18073058  1
  In  In37  1  0.67376624  0.32933041  0.66094897  1
  In  In38  1  0.82201840  0.63702626  0.82615349  1
  In  In39  1  0.49239623  0.84916205  0.32979342  1
  In  In40  1  0.17241098  0.32023515  0.84431979  1
  In  In41  1  0.50212440  0.83903768  0.66726635  1
  In  In42  1  0.25132404  0.63048899  0.33748134  1
  In  In43  1  0.35629981  0.15776631  0.82132508  1
  In  In44  1  0.33235300  0.35698922  0.65751319  1
  In  In45  1  0.17554622  0.16899784  0.32802808  1
  In  In46  1  0.29592657  0.69423107  -0.04025700  1
  In  In47  1  0.85128964  -0.00513945  0.49999350  1
  In  In48  1  0.51347616  0.49227403  -0.02288058  1
  In  In49  1  0.84938185  0.17619583  0.70019004  1
  In  In50  1  0.52128746  0.33898633  0.81749860  1
  In  In51  1  0.84935402  0.84403125  0.01678215  1
  In  In52  1  0.35536492  -0.02360008  0.34384727  1
  In  In53  1  0.84199711  0.00810696  0.82718042  1
  In  In54  1  0.01241842  0.82615395  0.84981836  1
  In  In55  1  -0.00088271  0.53289460  0.16591922  1
  In  In56  1  0.32663432  0.82158978  0.51000284  1
  In  In57  1  0.83246070  0.84560863  0.65467902  1
  In  In58  1  0.02208563  0.64831210  0.34405530  1
  In  In59  1  0.01836623  0.49441473  0.48863310  1
  In  In60  1  0.49187256  0.83598980  0.00694561  1
  In  In61  1  0.50561905  0.67493182  0.50503466  1
  In  In62  1  0.51624375  0.18908627  0.33863709  1
  In  In63  1  0.48278613  0.65677962  0.16992497  1
  In  In64  1  0.34024189  0.15386228  0.14982348  1
  In  In65  1  0.15221434  0.81708901  0.33082822  1
  In  In66  1  0.83603056  0.32329304  0.16572934  1
  In  In67  1  0.15584804  0.50713535  0.00923346  1
  In  In68  1  0.84585267  0.67838936  0.15589820  1
  In  In69  1  0.16399601  0.83860661  0.65913642  1
  In  In70  1  0.15289007  0.49420143  0.67808321  1
  In  In71  1  0.48775583  0.64313719  0.81933892  1
  Te  Te72  1  0.07683340  0.07782819  0.11953979  1
  Te  Te73  1  0.07691085  0.09955970  0.42304527  1
  Te  Te74  1  0.08588912  0.07445686  0.75877590  1
  Te  Te75  1  0.05297688  0.41906517  0.07672569  1
  Te  Te76  1  0.10562092  0.46349429  0.37168660  1
  Te  Te77  1  0.07631805  0.39158711  0.75704202  1
  Te  Te78  1  0.06334779  0.79337546  0.08657380  1
  Te  Te79  1  0.09318520  0.73555881  0.43767651  1
  Te  Te80  1  0.10850108  0.73640407  0.77138472  1
  Te  Te81  1  0.42261309  0.07413060  0.04968440  1
  Te  Te82  1  0.40009948  0.10708969  0.40797644  1
  Te  Te83  1  0.42990578  0.06736253  0.73467150  1
  Te  Te84  1  0.43918411  0.42801694  0.09459709  1
  Te  Te85  1  0.42147863  0.40230827  0.42943036  1
  Te  Te86  1  0.41211133  0.43008087  0.76297848  1
  Te  Te87  1  0.39951359  0.73573779  0.07057026  1
  Te  Te88  1  0.41192929  0.74676004  0.41051580  1
  Te  Te89  1  0.40890459  0.74559607  0.74212661  1
  Te  Te90  1  0.76120609  0.06799807  0.08335313  1
  Te  Te91  1  0.75343459  0.06822837  0.40764556  1
  Te  Te92  1  0.74484886  0.09026481  0.75717794  1
  Te  Te93  1  0.77945500  0.42371932  0.06956898  1
  Te  Te94  1  0.72890643  0.42076338  0.40684450  1
  Te  Te95  1  0.76626683  0.40194506  0.75488622  1
  Te  Te96  1  0.74073858  0.77108872  0.09514708  1
  Te  Te97  1  0.77379583  0.75275470  0.43557394  1
  Te  Te98  1  0.74328101  0.74101188  0.74565785  1
  Te  Te99  1  0.08144879  0.25067989  0.25021132  1
  Te  Te100  1  0.09044948  0.26921921  0.56712813  1
  Te  Te101  1  0.07775900  0.25949965  0.94643891  1
  Te  Te102  1  0.11729938  0.57988696  0.24788955  1
  Te  Te103  1  0.06949366  0.59122025  0.59392867  1
  Te  Te104  1  0.08158481  0.58436759  0.90869224  1
  Te  Te105  1  0.06532089  0.93070291  0.29342512  1
  Te  Te106  1  0.05609528  0.90321150  0.58491072  1
  Te  Te107  1  0.07038856  0.92882223  0.93694651  1
  Te  Te108  1  0.42815308  0.24722858  0.22833215  1
  Te  Te109  1  0.42809371  0.26209808  0.59545507  1
  Te  Te110  1  0.41702350  0.26081554  0.91966325  1
  Te  Te111  1  0.39217039  0.58214893  0.26700825  1
  Te  Te112  1  0.41415420  0.57570344  0.57417747  1
  Te  Te113  1  0.40123849  0.58300228  0.92618877  1
  Te  Te114  1  0.39952629  0.90432437  0.21847283  1
  Te  Te115  1  0.42119742  0.92193653  0.56967914  1
  Te  Te116  1  0.40051205  0.90606191  0.90959643  1
  Te  Te117  1  0.75142057  0.25888414  0.27498917  1
  Te  Te118  1  0.77326123  0.23870506  0.57585645  1
  Te  Te119  1  0.75354704  0.28718195  0.86422911  1
  Te  Te120  1  0.74618329  0.60144587  0.24376907  1
  Te  Te121  1  0.74616978  0.57584182  0.56968493  1
  Te  Te122  1  0.73741988  0.55442497  0.91192872  1
  Te  Te123  1  0.74440427  0.90735498  0.24927495  1
  Te  Te124  1  0.74711957  0.94374609  0.59042964  1
  Te  Te125  1  0.74441391  0.91410387  0.92130737  1
  Te  Te126  1  0.24079129  0.24642698  0.08397497  1
  Te  Te127  1  0.23110075  0.27000582  0.42722883  1
  Te  Te128  1  0.25751754  0.24461502  0.74168631  1
  Te  Te129  1  0.22933325  0.62140977  0.07730013  1
  Te  Te130  1  0.22379680  0.52652625  0.43760994  1
  Te  Te131  1  0.24205606  0.56789428  0.76929598  1
  Te  Te132  1  0.21780029  0.87564824  0.08138802  1
  Te  Te133  1  0.24250588  0.92215985  0.42903393  1
  Te  Te134  1  0.26518010  0.90684406  0.74038566  1
  Te  Te135  1  0.62320134  0.26323732  0.09059827  1
  Te  Te136  1  0.57735079  0.27246435  0.44074720  1
  Te  Te137  1  0.55940189  0.24644051  0.70988344  1
  Te  Te138  1  0.58787024  0.58551199  0.08388999  1
  Te  Te139  1  0.58466186  0.59038057  0.40815592  1
  Te  Te140  1  0.59457560  0.55691333  0.75941331  1
  Te  Te141  1  0.58307175  0.91961517  0.09315235  1
  Te  Te142  1  0.59397325  0.91120618  0.41342356  1
  Te  Te143  1  0.59073727  0.93243925  0.74740576  1
  Te  Te144  1  0.90950922  0.21857342  0.09236587  1
  Te  Te145  1  0.93600815  0.27805482  0.40116250  1
  Te  Te146  1  0.95103819  0.27396805  0.74715464  1
  Te  Te147  1  0.91275741  0.58963067  0.05394964  1
  Te  Te148  1  0.91104066  0.58190092  0.42353216  1
  Te  Te149  1  0.93467379  0.56572909  0.75617232  1
  Te  Te150  1  0.94797364  0.89593838  0.11508462  1
  Te  Te151  1  0.93692621  0.92385333  0.40119276  1
  Te  Te152  1  0.92958534  0.91137286  0.75238041  1
  Te  Te153  1  0.26456294  0.06658395  0.24659028  1
  Te  Te154  1  0.25102842  0.07997048  0.59112231  1
  Te  Te155  1  0.25271346  0.08438133  0.91136927  1
  Te  Te156  1  0.27307725  0.41345713  0.23318082  1
  Te  Te157  1  0.23610336  0.42833948  0.57130610  1
  Te  Te158  1  0.25129000  0.42235399  0.92532402  1
  Te  Te159  1  0.26067543  0.75153344  0.25819206  1
  Te  Te160  1  0.23098602  0.72570938  0.57510925  1
  Te  Te161  1  0.20707691  0.78430832  0.88353306  1
  Te  Te162  1  0.59271676  0.07983540  0.26559760  1
  Te  Te163  1  0.58076972  0.08991896  0.58246865  1
  Te  Te164  1  0.59765141  0.11743022  0.89981835  1
  Te  Te165  1  0.58802600  0.40543837  0.24818683  1
  Te  Te166  1  0.61613831  0.43287060  0.57190661  1
  Te  Te167  1  0.60621252  0.38901231  0.92732057  1
  Te  Te168  1  0.57296730  0.75383342  0.24190817  1
  Te  Te169  1  0.60051500  0.76934761  0.57547554  1
  Te  Te170  1  0.57214189  0.73532699  0.91807647  1
  Te  Te171  1  0.92797258  0.10591161  0.23544616  1
  Te  Te172  1  0.92298144  0.08221215  0.60375229  1
  Te  Te173  1  0.92043063  0.08482591  0.93030058  1
  Te  Te174  1  0.92482964  0.42526260  0.24218095  1
  Te  Te175  1  0.92738210  0.41303807  0.58007597  1
  Te  Te176  1  0.86326691  0.34816785  0.94472806  1
  Te  Te177  1  0.93926104  0.74095818  0.25404407  1
  Te  Te178  1  0.90146359  0.74358222  0.57426935  1
  Te  Te179  1  0.89494315  0.74460396  0.91052076  1
