# generated using pymatgen
data_In2Te3
_symmetry_space_group_name_H-M   'P 1'
_cell_length_a   18.99043510
_cell_length_b   18.97697232
_cell_length_c   18.97747078
_cell_angle_alpha   90.00576499
_cell_angle_beta   90.10750337
_cell_angle_gamma   89.92309721
_symmetry_Int_Tables_number   1
_chemical_formula_structural   In2Te3
_chemical_formula_sum   'In72 Te108'
_cell_volume   6839.10092902
_cell_formula_units_Z   36
loop_
 _symmetry_equiv_pos_site_id
 _symmetry_equiv_pos_as_xyz
  1  'x, y, z'
loop_
 _atom_site_type_symbol
 _atom_site_label
 _atom_site_symmetry_multiplicity
 _atom_site_fract_x
 _atom_site_fract_y
 _atom_site_fract_z
 _atom_site_occupancy
  In  In0  1  0.65892516  -0.00415269  0.64828826  1
  In  In1  1  0.85123661  0.50103930  0.32822854  1
  In  In2  1  0.83785315  0.67495170  0.50549882  1
  In  In3  1  0.03503691  0.13991854  0.80243804  1
  In  In4  1  0.66904569  0.51317600  0.49984263  1
  In  In5  1  0.14612822  0.50355585  -0.00478513  1
  In  In6  1  0.16531577  0.67340634  0.19823621  1
  In  In7  1  0.30522472  0.49005476  0.82307208  1
  In  In8  1  0.16294375  0.68552053  0.45632520  1
  In  In9  1  0.32399785  0.15155686  0.49059998  1
  In  In10  1  0.83637986  0.17253640  0.65131139  1
  In  In11  1  0.33861405  0.00555056  0.00187177  1
  In  In12  1  0.48327634  0.16090644  0.67729717  1
  In  In13  1  0.64912876  0.36196591  0.01229501  1
  In  In14  1  0.16298101  0.81984233  0.66037538  1
  In  In15  1  0.31363168  0.32474466  0.66024245  1
  In  In16  1  0.86016754  0.83117169  -0.03340843  1
  In  In17  1  0.86627414  0.32130424  0.18113741  1
  In  In18  1  0.16397500  0.01040671  0.51700115  1
  In  In19  1  0.83539198  0.66208281  0.13582653  1
  In  In20  1  0.48386262  0.00282579  0.49192222  1
  In  In21  1  0.49584123  0.65825949  0.53280543  1
  In  In22  1  0.82800023  0.14844985  -0.02537042  1
  In  In23  1  0.82561830  0.33697477  0.50454582  1
  In  In24  1  0.34147077  0.67965593  0.32149725  1
  In  In25  1  0.86210041  0.51897157  -0.01041496  1
  In  In26  1  0.51526623  0.67701620  0.86091020  1
  In  In27  1  0.09832927  0.18346290  0.18011051  1
  In  In28  1  0.50555507  0.32144195  0.45614393  1
  In  In29  1  0.17361437  0.48968044  0.65234982  1
  In  In30  1  0.83095164  0.16204838  0.33362879  1
  In  In31  1  0.00547279  0.34675930  -0.00774249  1
  In  In32  1  0.31544150  0.84047248  0.83096708  1
  In  In33  1  0.82850655  0.81840778  0.32206974  1
  In  In34  1  0.29328563  0.14032093  0.18443234  1
  In  In35  1  -0.00611116  -0.00211646  0.31743472  1
  In  In36  1  0.49432710  0.85393211  0.66079549  1
  In  In37  1  0.84824759  0.00543209  0.15293161  1
  In  In38  1  0.67802660  0.48275782  0.17696998  1
  In  In39  1  0.15181761  0.15231266  -0.00935640  1
  In  In40  1  0.68079051  0.69509810  0.66362914  1
  In  In41  1  0.68121109  0.70446885  0.00938444  1
  In  In42  1  0.81746614  0.34254191  0.83390146  1
  In  In43  1  0.33157746  0.85184638  0.48233581  1
  In  In44  1  0.84526054  0.67558617  0.82261010  1
  In  In45  1  0.51834391  0.48116374  0.65888183  1
  In  In46  1  -0.00225870  0.83907491  0.17830102  1
  In  In47  1  0.33080681  0.90195545  0.20463643  1
  In  In48  1  0.30572044  0.67810612  -0.01016476  1
  In  In49  1  0.49349295  0.50703064  0.02487730  1
  In  In50  1  0.31948123  0.31863665  0.34412142  1
  In  In51  1  0.49713432  0.30880046  0.84544143  1
  In  In52  1  0.49942494  0.82017664  0.01581262  1
  In  In53  1  0.13345654  0.85370748  -0.01552671  1
  In  In54  1  0.01774649  0.48734126  0.49852230  1
  In  In55  1  0.49381005  0.33969825  0.19125494  1
  In  In56  1  0.68682068  0.50245853  0.80953019  1
  In  In57  1  0.16891604  0.48320883  0.34253460  1
  In  In58  1  0.67187742  -0.01195874  0.00630551  1
  In  In59  1  0.65951432  0.85777583  0.19949598  1
  In  In60  1  0.48141838  0.17051549  0.01903882  1
  In  In61  1  0.65567168  0.14620415  0.82757096  1
  In  In62  1  0.33088809  0.64800259  0.67694626  1
  In  In63  1  -0.01267421  0.18503767  0.51161851  1
  In  In64  1  0.84229332  0.00658911  0.50459055  1
  In  In65  1  -0.01184525  0.66470876  0.66313174  1
  In  In66  1  0.34934149  0.48877563  0.16896238  1
  In  In67  1  0.01306414  0.32542287  0.66942414  1
  In  In68  1  0.88062141  -0.01980916  0.80663803  1
  In  In69  1  0.51753742  0.69200772  0.18691802  1
  In  In70  1  0.31101173  0.15969061  0.80596697  1
  In  In71  1  0.63411423  0.14582260  0.25907238  1
  Te  Te72  1  0.09004900  0.06542906  0.09280098  1
  Te  Te73  1  0.05840899  0.07788239  0.42763327  1
  Te  Te74  1  0.09369151  0.01416339  0.75070466  1
  Te  Te75  1  0.08478524  0.41353808  0.09439966  1
  Te  Te76  1  0.08906534  0.38357198  0.42059799  1
  Te  Te77  1  0.08934986  0.42146680  0.74958063  1
  Te  Te78  1  0.08884349  0.75268497  0.09299422  1
  Te  Te79  1  0.08215431  0.79840171  0.41476379  1
  Te  Te80  1  0.05419771  0.76971373  0.75236961  1
  Te  Te81  1  0.41409349  0.07429095  0.11391414  1
  Te  Te82  1  0.41287524  0.08746580  0.39353822  1
  Te  Te83  1  0.42619874  0.07359103  0.77861896  1
  Te  Te84  1  0.41043758  0.39160122  0.06902681  1
  Te  Te85  1  0.40974281  0.41761810  0.40333164  1
  Te  Te86  1  0.42119382  0.41061937  0.75397438  1
  Te  Te87  1  0.40396325  0.73563148  0.09376486  1
  Te  Te88  1  0.42597868  0.74802636  0.42650676  1
  Te  Te89  1  0.41791976  0.74643036  0.75546744  1
  Te  Te90  1  0.74197814  0.09426686  0.08795325  1
  Te  Te91  1  0.74620773  0.09856563  0.43686553  1
  Te  Te92  1  0.76723576  0.07787103  0.75204654  1
  Te  Te93  1  0.77506031  0.42268899  0.07575229  1
  Te  Te94  1  0.74864756  0.42174078  0.40538834  1
  Te  Te95  1  0.73916705  0.39831100  0.72311288  1
  Te  Te96  1  0.76449496  0.79631846  0.09426067  1
  Te  Te97  1  0.74378501  0.74614836  0.41742860  1
  Te  Te98  1  0.75290276  0.77361928  0.76375119  1
  Te  Te99  1  0.10153351  0.25362442  0.30828900  1
  Te  Te100  1  0.10023317  0.22953507  0.59759229  1
  Te  Te101  1  0.08063372  0.24810946  0.89815039  1
  Te  Te102  1  0.08233566  0.58361065  0.27779335  1
  Te  Te103  1  0.09819390  0.60377312  0.56891660  1
  Te  Te104  1  0.04466945  0.59320451  0.93890712  1
  Te  Te105  1  0.09499653  0.94226816  0.22364007  1
  Te  Te106  1  0.08770681  0.88047877  0.54328530  1
  Te  Te107  1  0.06662732  0.92370176  0.87174166  1
  Te  Te108  1  0.39895976  0.23564186  0.24452614  1
  Te  Te109  1  0.41830822  0.25463301  0.57550578  1
  Te  Te110  1  0.38952087  0.23702274  0.92061460  1
  Te  Te111  1  0.43497526  0.58130573  0.25235620  1
  Te  Te112  1  0.40267274  0.54972747  0.58721926  1
  Te  Te113  1  0.40732566  0.58457270  0.91619400  1
  Te  Te114  1  0.45599849  0.89442492  0.28531996  1
  Te  Te115  1  0.38967034  0.93960835  0.59306340  1
  Te  Te116  1  0.42032648  0.90696309  0.91937195  1
  Te  Te117  1  0.74740931  0.25204404  0.24027832  1
  Te  Te118  1  0.74051765  0.22537166  0.55226583  1
  Te  Te119  1  0.72374995  0.25542886  0.92353915  1
  Te  Te120  1  0.75743434  0.59085532  0.24528367  1
  Te  Te121  1  0.75932752  0.58356121  0.59875834  1
  Te  Te122  1  0.73962612  0.59101757  0.92362426  1
  Te  Te123  1  0.76398201  0.94655131  0.26343324  1
  Te  Te124  1  0.75293071  0.91349462  0.57474243  1
  Te  Te125  1  0.76745204  0.93340221  0.90368149  1
  Te  Te126  1  0.21699358  0.23866395  0.09887230  1
  Te  Te127  1  0.22274031  0.21527036  0.39683963  1
  Te  Te128  1  0.22979331  0.27565563  0.76897148  1
  Te  Te129  1  0.25399263  0.58760543  0.10061594  1
  Te  Te130  1  0.26332361  0.58466604  0.40970015  1
  Te  Te131  1  0.21821958  0.59555671  0.76165765  1
  Te  Te132  1  0.25050567  0.90428566  0.06941287  1
  Te  Te133  1  0.25029302  0.95191099  0.40861334  1
  Te  Te134  1  0.23631986  0.92530106  0.73801373  1
  Te  Te135  1  0.58096592  0.25591115  0.09565882  1
  Te  Te136  1  0.58144303  0.22977543  0.36730151  1
  Te  Te137  1  0.59079900  0.25154267  0.74074691  1
  Te  Te138  1  0.59830060  0.59829615  0.08703319  1
  Te  Te139  1  0.57185795  0.59349996  0.42666985  1
  Te  Te140  1  0.57756359  0.59978298  0.74439747  1
  Te  Te141  1  0.56883574  0.92559521  0.09825909  1
  Te  Te142  1  0.56729438  0.91991294  0.39965371  1
  Te  Te143  1  0.57424947  0.93540506  0.75156989  1
  Te  Te144  1  0.91234269  0.24627487  0.05804478  1
  Te  Te145  1  0.91472323  0.26564692  0.40542264  1
  Te  Te146  1  0.91245932  0.24379404  0.76287147  1
  Te  Te147  1  0.95323271  0.58754225  0.08384142  1
  Te  Te148  1  0.93184700  0.58782810  0.42368638  1
  Te  Te149  1  0.90494820  0.57178935  0.73986254  1
  Te  Te150  1  0.93523413  0.92070266  0.06333650  1
  Te  Te151  1  0.91307424  0.90934951  0.40895162  1
  Te  Te152  1  0.92424712  0.85661522  0.73682824  1
  Te  Te153  1  0.24664671  0.01827182  0.25676069  1
  Te  Te154  1  0.23049138  0.11503983  0.59949800  1
  Te  Te155  1  0.24008225  0.06563399  0.90460011  1
  Te  Te156  1  0.24746524  0.40401147  0.23833964  1
  Te  Te157  1  0.24597040  0.40501168  0.55860061  1
  Te  Te158  1  0.24729998  0.41632364  0.93326191  1
  Te  Te159  1  0.24935322  0.78256755  0.26128330  1
  Te  Te160  1  0.26949057  0.74231324  0.57520447  1
  Te  Te161  1  0.21281967  0.75141592  0.89810760  1
  Te  Te162  1  0.55232532  0.02033841  0.28361031  1
  Te  Te163  1  0.57276827  0.09513392  0.57430667  1
  Te  Te164  1  0.57280092  0.08093116  0.93512438  1
  Te  Te165  1  0.57915893  0.42942893  0.26862922  1
  Te  Te166  1  0.59396343  0.39660869  0.56237952  1
  Te  Te167  1  0.57404759  0.43567505  0.90265788  1
  Te  Te168  1  0.61189224  0.74779079  0.28457548  1
  Te  Te169  1  0.58785011  0.77365133  0.57372979  1
  Te  Te170  1  0.60556951  0.78806504  0.90889125  1
  Te  Te171  1  0.92927800  0.10726843  0.23107420  1
  Te  Te172  1  0.93790810  0.07130039  0.60337085  1
  Te  Te173  1  0.94173028  0.07536127  0.90844864  1
  Te  Te174  1  0.94543094  0.42365867  0.24628593  1
  Te  Te175  1  0.92024810  0.41741880  0.59078420  1
  Te  Te176  1  0.92804861  0.42949573  0.88830886  1
  Te  Te177  1  0.92218347  0.72783015  0.24621703  1
  Te  Te178  1  0.90783092  0.77151068  0.59514269  1
  Te  Te179  1  0.94834537  0.71788296  0.92457700  1
