# generated using pymatgen
data_In2Te3
_symmetry_space_group_name_H-M   'P 1'
_cell_length_a   18.93525455
_cell_length_b   18.95310967
_cell_length_c   18.93288517
_cell_angle_alpha   89.83404813
_cell_angle_beta   90.09476227
_cell_angle_gamma   90.07651707
_symmetry_Int_Tables_number   1
_chemical_formula_structural   In2Te3
_chemical_formula_sum   'In72 Te108'
_cell_volume   6794.62705324
_cell_formula_units_Z   36
loop_
 _symmetry_equiv_pos_site_id
 _symmetry_equiv_pos_as_xyz
  1  'x, y, z'
loop_
 _atom_site_type_symbol
 _atom_site_label
 _atom_site_symmetry_multiplicity
 _atom_site_fract_x
 _atom_site_fract_y
 _atom_site_fract_z
 _atom_site_occupancy
  In  In0  1  0.83934372  0.47422281  0.32089959  1
  In  In1  1  0.52763917  0.02604024  0.87105672  1
  In  In2  1  0.66293810  0.84099218  0.48861900  1
  In  In3  1  0.52785818  0.32179463  0.14474049  1
  In  In4  1  0.81581547  0.69951358  0.50340272  1
  In  In5  1  0.33338867  0.83993858  0.83823718  1
  In  In6  1  -0.00733539  0.80990649  0.51095723  1
  In  In7  1  0.47335457  0.68030680  0.85452024  1
  In  In8  1  0.68571228  0.66414099  0.01179526  1
  In  In9  1  0.81978463  0.48117785  0.68793300  1
  In  In10  1  0.31763617  0.00509042  0.32206784  1
  In  In11  1  0.15654504  0.16270108  0.30815089  1
  In  In12  1  0.65696241  0.85935187  0.83421805  1
  In  In13  1  0.53560507  0.85619096  0.29348843  1
  In  In14  1  0.33429516  0.49983893  0.18404374  1
  In  In15  1  0.01160454  0.88748686  0.14201880  1
  In  In16  1  0.17684756  0.46459508  0.70464107  1
  In  In17  1  0.01200260  0.47424732  0.86344322  1
  In  In18  1  0.00788827  0.30623491  -0.01318141  1
  In  In19  1  0.49370284  0.48674912  0.66674576  1
  In  In20  1  0.52117031  0.33351795  0.51962431  1
  In  In21  1  0.18508026  0.46710100  -0.01519851  1
  In  In22  1  -0.01404416  0.66882352  -0.00395463  1
  In  In23  1  -0.01161723  -0.00591405  0.32188881  1
  In  In24  1  0.67649421  0.16002219  0.47392599  1
  In  In25  1  0.00479331  0.15896857  0.83523678  1
  In  In26  1  0.14138399  0.00005265  0.84945117  1
  In  In27  1  0.15570719  -0.01216524  0.50877884  1
  In  In28  1  0.34052196  0.83051485  0.15585212  1
  In  In29  1  0.67288977  0.00340334  0.65978280  1
  In  In30  1  0.17464392  0.21535205  0.71681728  1
  In  In31  1  0.82471943  0.67112066  0.83450838  1
  In  In32  1  0.64469042  0.46945606  0.81836146  1
  In  In33  1  -0.02591630  0.48571767  0.47497271  1
  In  In34  1  -0.00551774  0.30055378  0.30186795  1
  In  In35  1  0.83175469  0.32870511  0.51948863  1
  In  In36  1  0.34474346  0.68740424  0.33823697  1
  In  In37  1  0.15126038  0.84934427  -0.02378443  1
  In  In38  1  0.84465816  0.16177214  0.68237129  1
  In  In39  1  0.82931033  0.66907567  0.15091769  1
  In  In40  1  0.33084865  0.03607627  0.68687912  1
  In  In41  1  0.84396442  0.90074281  0.71868897  1
  In  In42  1  0.00303307  0.13668953  0.13159555  1
  In  In43  1  0.68059961  0.32873802  0.33274514  1
  In  In44  1  0.81898686  0.86276274  0.30040569  1
  In  In45  1  0.16419796  0.66191162  0.48081971  1
  In  In46  1  0.65642041  0.66802134  0.65706886  1
  In  In47  1  0.83986680  0.47288751  0.00164031  1
  In  In48  1  0.00955382  0.68345846  0.32916970  1
  In  In49  1  0.35447644  0.15984059  0.49195498  1
  In  In50  1  0.79080974  0.87055524  0.01773889  1
  In  In51  1  0.17829076  0.68365245  0.81806503  1
  In  In52  1  0.47782216  0.31506703  0.86906981  1
  In  In53  1  0.48986167  -0.01447409  0.49410361  1
  In  In54  1  0.76158358  0.08738188  0.28455774  1
  In  In55  1  0.52320551  0.84599321  0.04958945  1
  In  In56  1  0.17842021  0.48628559  0.33969972  1
  In  In57  1  0.50652665  0.66039131  0.50989849  1
  In  In58  1  0.33993570  0.18966357  0.11038062  1
  In  In59  1  0.49193216  0.50523622  -0.02082623  1
  In  In60  1  0.32724919  0.01052125  -0.01646497  1
  In  In61  1  0.50212775  0.16958934  0.69386093  1
  In  In62  1  -0.01406267  0.17722645  0.51503517  1
  In  In63  1  0.15296036  0.82736738  0.65805360  1
  In  In64  1  0.69373923  0.25877408  -0.01461303  1
  In  In65  1  0.34099098  0.81088358  0.51243883  1
  In  In66  1  0.35863043  0.33802772  0.31810479  1
  In  In67  1  0.03369614  0.64440683  0.68348443  1
  In  In68  1  0.16922411  0.65679746  0.17324099  1
  In  In69  1  0.50515113  0.51598504  0.35643490  1
  In  In70  1  0.67675407  0.49147328  0.14686472  1
  In  In71  1  0.18904691  0.33375697  0.50790842  1
  Te  Te72  1  0.08434549  0.01669855  0.10128933  1
  Te  Te73  1  0.07962132  0.08978960  0.41794511  1
  Te  Te74  1  0.09467432  0.08708208  0.73255302  1
  Te  Te75  1  0.06789213  0.42172157  0.05879352  1
  Te  Te76  1  0.07400853  0.39082145  0.40706972  1
  Te  Te77  1  0.08018885  0.37779108  0.77360041  1
  Te  Te78  1  0.08122768  0.75010919  0.08553281  1
  Te  Te79  1  0.09920938  0.77740628  0.40786663  1
  Te  Te80  1  0.06266557  0.76934143  0.76736224  1
  Te  Te81  1  0.42715778  0.07589286  0.06963759  1
  Te  Te82  1  0.43150231  0.08147106  0.38965448  1
  Te  Te83  1  0.41271738  0.09990351  0.79581710  1
  Te  Te84  1  0.42642311  0.42328121  0.09078891  1
  Te  Te85  1  0.42066603  0.41490896  0.43145265  1
  Te  Te86  1  0.41457194  0.40226917  0.76145058  1
  Te  Te87  1  0.42591492  0.74106089  0.07799796  1
  Te  Te88  1  0.44413352  0.78105965  0.40331102  1
  Te  Te89  1  0.40962804  0.75578842  0.74681243  1
  Te  Te90  1  0.73508351  0.04964922  0.11120601  1
  Te  Te91  1  0.78100581  0.06867288  0.43177386  1
  Te  Te92  1  0.72647862  0.10352492  0.75676991  1
  Te  Te93  1  0.74563237  0.37918301  0.07515754  1
  Te  Te94  1  0.74936650  0.42252745  0.43096170  1
  Te  Te95  1  0.73879150  0.37800188  0.75382050  1
  Te  Te96  1  0.71728556  0.76975991  0.12103819  1
  Te  Te97  1  0.74059228  0.76120731  0.38536073  1
  Te  Te98  1  0.74349659  0.76428741  0.74627814  1
  Te  Te99  1  0.09103187  0.24441103  0.19898142  1
  Te  Te100  1  0.09162387  0.25582947  0.59330305  1
  Te  Te101  1  0.10609922  0.20542161  0.93728672  1
  Te  Te102  1  0.07824982  0.56779478  0.25738790  1
  Te  Te103  1  0.07579081  0.56721988  0.55901455  1
  Te  Te104  1  0.09113222  0.59471287  0.91587241  1
  Te  Te105  1  0.10336070  0.93651884  0.24919371  1
  Te  Te106  1  0.05039343  0.92207808  0.59694130  1
  Te  Te107  1  0.03650964  0.92418005  0.92076650  1
  Te  Te108  1  0.43031361  0.24207804  0.23043858  1
  Te  Te109  1  0.41616893  0.25136000  0.59401679  1
  Te  Te110  1  0.39963406  0.23887917  0.97344973  1
  Te  Te111  1  0.42905793  0.59754851  0.25130231  1
  Te  Te112  1  0.41354988  0.58338768  0.59047164  1
  Te  Te113  1  0.38544184  0.56970129  0.89950188  1
  Te  Te114  1  0.42091072  0.93452601  0.23217904  1
  Te  Te115  1  0.39374504  0.92780220  0.59589333  1
  Te  Te116  1  0.43553092  0.91014533  0.92713345  1
  Te  Te117  1  0.73464015  0.23551562  0.23055615  1
  Te  Te118  1  0.73798216  0.23515965  0.58965252  1
  Te  Te119  1  0.77878549  0.18497708  0.88589099  1
  Te  Te120  1  0.75358018  0.57631775  0.24623451  1
  Te  Te121  1  0.76121041  0.58234445  0.58995112  1
  Te  Te122  1  0.74782036  0.56377072  0.91243375  1
  Te  Te123  1  0.71783990  0.94660968  0.22622010  1
  Te  Te124  1  0.76061721  0.90480913  0.58648615  1
  Te  Te125  1  0.75108176  0.95496247  0.89966624  1
  Te  Te126  1  0.27246019  0.30480418  0.03782394  1
  Te  Te127  1  0.25737771  0.24479301  0.40231632  1
  Te  Te128  1  0.29313331  0.28566561  0.76921999  1
  Te  Te129  1  0.25133718  0.57290147  0.07995498  1
  Te  Te130  1  0.27185579  0.57746826  0.41581114  1
  Te  Te131  1  0.25818077  0.56759494  0.77313557  1
  Te  Te132  1  0.24711007  0.91851182  0.07332319  1
  Te  Te133  1  0.25942122  0.91268012  0.42805605  1
  Te  Te134  1  0.23904163  0.92163317  0.74741362  1
  Te  Te135  1  0.58289553  0.20134461  0.07246155  1
  Te  Te136  1  0.57365187  0.24855237  0.40589852  1
  Te  Te137  1  0.57632752  0.27485184  0.76371206  1
  Te  Te138  1  0.57675414  0.58372813  0.08015808  1
  Te  Te139  1  0.60475707  0.60134266  0.42044970  1
  Te  Te140  1  0.57918940  0.59670805  0.76723328  1
  Te  Te141  1  0.62460222  0.95185711  0.06117409  1
  Te  Te142  1  0.60151990  0.94653269  0.39885886  1
  Te  Te143  1  0.56327581  0.94171342  0.74802145  1
  Te  Te144  1  0.90438294  0.22097260  0.05707375  1
  Te  Te145  1  0.90041581  0.24791431  0.41136367  1
  Te  Te146  1  0.93753742  0.25613094  0.74652303  1
  Te  Te147  1  0.92243039  0.56635001  0.08896199  1
  Te  Te148  1  0.90602374  0.60787950  0.41256303  1
  Te  Te149  1  0.92306073  0.57282674  0.77165074  1
  Te  Te150  1  0.87972709  0.94989680  0.10683866  1
  Te  Te151  1  0.91287655  0.90090578  0.41420287  1
  Te  Te152  1  0.89252440  0.99357494  0.82293977  1
  Te  Te153  1  0.26315472  0.10380047  0.22132272  1
  Te  Te154  1  0.24486064  0.09433805  0.57464925  1
  Te  Te155  1  0.23121678  0.10081637  0.91342610  1
  Te  Te156  1  0.24053497  0.39284399  0.23821301  1
  Te  Te157  1  0.25860519  0.43448303  0.58611023  1
  Te  Te158  1  0.24658688  0.36560464  0.89564863  1
  Te  Te159  1  0.24375750  0.76161655  0.25337953  1
  Te  Te160  1  0.24444061  0.72542106  0.59446902  1
  Te  Te161  1  0.25521676  0.74898576  0.93167225  1
  Te  Te162  1  0.62601696  0.13052262  0.23484967  1
  Te  Te163  1  0.56879248  0.08691729  0.57710179  1
  Te  Te164  1  0.60690767  0.14084229  0.92655386  1
  Te  Te165  1  0.58179456  0.42242575  0.25394109  1
  Te  Te166  1  0.60472470  0.42941683  0.59117248  1
  Te  Te167  1  0.59226429  0.39676864  0.94051887  1
  Te  Te168  1  0.58810924  0.75277404  0.20728883  1
  Te  Te169  1  0.57128234  0.77409475  0.58966454  1
  Te  Te170  1  0.59614302  0.75397555  0.92590834  1
  Te  Te171  1  0.91526123  0.10156178  0.24952379  1
  Te  Te172  1  0.90545492  0.07373069  0.58089128  1
  Te  Te173  1  0.90463658  0.10812582  0.93832554  1
  Te  Te174  1  0.90371726  0.38641557  0.22563903  1
  Te  Te175  1  0.92737812  0.41390102  0.60078404  1
  Te  Te176  1  0.89794317  0.38013878  0.90030571  1
  Te  Te177  1  0.91919664  0.76081138  0.23465239  1
  Te  Te178  1  0.92067176  0.72451868  0.61145535  1
  Te  Te179  1  0.87891819  0.76236996  0.94266078  1
