# generated using pymatgen
data_In2Te3
_symmetry_space_group_name_H-M   'P 1'
_cell_length_a   19.01854460
_cell_length_b   19.01408227
_cell_length_c   19.00652642
_cell_angle_alpha   90.12861309
_cell_angle_beta   90.09514461
_cell_angle_gamma   89.90845598
_symmetry_Int_Tables_number   1
_chemical_formula_structural   In2Te3
_chemical_formula_sum   'In72 Te108'
_cell_volume   6873.10782480
_cell_formula_units_Z   36
loop_
 _symmetry_equiv_pos_site_id
 _symmetry_equiv_pos_as_xyz
  1  'x, y, z'
loop_
 _atom_site_type_symbol
 _atom_site_label
 _atom_site_symmetry_multiplicity
 _atom_site_fract_x
 _atom_site_fract_y
 _atom_site_fract_z
 _atom_site_occupancy
  In  In0  1  0.66889597  0.33353595  0.67314254  1
  In  In1  1  -0.01828590  0.35061726  0.63496483  1
  In  In2  1  0.65282516  0.47953668  0.19135268  1
  In  In3  1  0.65971706  0.67895073  0.01349756  1
  In  In4  1  0.16268092  0.17185594  0.32393189  1
  In  In5  1  0.47153861  0.16852599  0.33725290  1
  In  In6  1  0.65264141  0.82138883  0.84387817  1
  In  In7  1  0.33230306  0.32759517  0.01069476  1
  In  In8  1  0.04165983  0.02664461  0.69062316  1
  In  In9  1  0.86335539  0.80759971  0.03674459  1
  In  In10  1  0.28494232  0.83773637  0.50361957  1
  In  In11  1  0.65589016  0.17462564  0.81825037  1
  In  In12  1  0.50506130  0.66501717  0.50681486  1
  In  In13  1  0.16328294  0.47677954  0.02297106  1
  In  In14  1  -0.00362676  0.66398449  0.01298837  1
  In  In15  1  0.89919158  0.62981961  0.48937243  1
  In  In16  1  0.32828177  0.37029156  0.66650001  1
  In  In17  1  0.03137969  0.84282860  0.18207976  1
  In  In18  1  0.66132374  0.01520358  0.67304112  1
  In  In19  1  0.66228678  0.66229237  0.64016474  1
  In  In20  1  0.82310364  0.32332275  0.16733974  1
  In  In21  1  0.31389543  0.01622456  0.00583330  1
  In  In22  1  0.65771816  0.48866609  0.85397809  1
  In  In23  1  0.48748065  0.35576271  0.48767055  1
  In  In24  1  0.32127124  0.65203553  0.32708564  1
  In  In25  1  0.86054751  0.50202958  -0.01799312  1
  In  In26  1  0.18579145  0.67631404  0.83523973  1
  In  In27  1  0.65117692  0.15129468  0.51309182  1
  In  In28  1  0.04032846  0.81240494  0.48348800  1
  In  In29  1  0.80925432  0.16432187  0.68128483  1
  In  In30  1  0.00300790  0.31595633  0.32286382  1
  In  In31  1  0.36152426  0.54418201  0.85951898  1
  In  In32  1  0.68837027  0.49918749  0.46509501  1
  In  In33  1  0.50123419  0.83170428  0.00404964  1
  In  In34  1  0.64004065  0.82610772  0.48979120  1
  In  In35  1  0.30541467  0.47831969  0.18253699  1
  In  In36  1  0.66902629  0.00137751  -0.00677369  1
  In  In37  1  0.16228708  0.66240377  0.17066398  1
  In  In38  1  0.33164579  0.50757844  0.44590786  1
  In  In39  1  0.17504718  0.32535990  0.84197902  1
  In  In40  1  0.15198394  0.52237715  0.63156422  1
  In  In41  1  0.33114445  0.85566354  0.15191171  1
  In  In42  1  0.84881320  0.85801908  0.67754727  1
  In  In43  1  0.15221986  0.31998634  0.47209379  1
  In  In44  1  0.32974696  0.17426722  0.85210552  1
  In  In45  1  0.31586885  0.69922092  0.65921483  1
  In  In46  1  0.03732612  0.00037737  -0.01066361  1
  In  In47  1  0.50862859  0.00619025  0.15790610  1
  In  In48  1  0.52993690  0.65150995  0.17245736  1
  In  In49  1  0.00486118  0.50271866  0.82465905  1
  In  In50  1  0.00673151  0.15032641  0.17602444  1
  In  In51  1  0.65881625  0.17859339  0.16851507  1
  In  In52  1  0.85537298  0.80600198  0.32661145  1
  In  In53  1  0.84055651  0.16613811  0.03027720  1
  In  In54  1  0.31132262  0.17279224  0.15809095  1
  In  In55  1  0.28887995  -0.01227516  0.67804216  1
  In  In56  1  0.83883611  0.17319874  0.30971167  1
  In  In57  1  0.32544164  0.83524433  0.82918390  1
  In  In58  1  0.49812760  0.03497388  0.84338218  1
  In  In59  1  -0.01217622  0.16378784  0.52250912  1
  In  In60  1  0.65078947  0.31925072  0.01311147  1
  In  In61  1  0.84313665  -0.02512179  0.48395800  1
  In  In62  1  0.49706756  0.50728784  0.66720611  1
  In  In63  1  0.67990055  -0.03197048  0.33730499  1
  In  In64  1  0.68813678  0.65343896  0.32749014  1
  In  In65  1  0.86381095  -0.01504984  0.87751403  1
  In  In66  1  0.16255604  0.00143904  0.48968210  1
  In  In67  1  0.32808949  0.17548037  0.50612721  1
  In  In68  1  0.85215121  0.67314059  0.82140147  1
  In  In69  1  0.00183606  0.66222549  0.66067217  1
  In  In70  1  0.48664244  0.83823927  0.33209892  1
  In  In71  1  0.84870754  0.33639953  0.84357566  1
  Te  Te72  1  0.10643554  0.08312660  0.09201838  1
  Te  Te73  1  0.06819130  0.09348861  0.41571876  1
  Te  Te74  1  0.10775585  0.11305262  0.78995228  1
  Te  Te75  1  0.10116426  0.43967679  0.15499902  1
  Te  Te76  1  0.06238981  0.41889787  0.41297439  1
  Te  Te77  1  0.09186316  0.42022368  0.73133264  1
  Te  Te78  1  0.09779713  0.75874501  0.07072061  1
  Te  Te79  1  0.09355240  0.70818120  0.39420928  1
  Te  Te80  1  0.07168300  0.73611306  0.76492303  1
  Te  Te81  1  0.42101464  0.09539202  0.07576824  1
  Te  Te82  1  0.39070678  0.07843431  0.41666090  1
  Te  Te83  1  0.39336964  0.08055324  0.74739222  1
  Te  Te84  1  0.40833990  0.41473672  0.10106418  1
  Te  Te85  1  0.41935015  0.41498985  0.36951656  1
  Te  Te86  1  0.41957461  0.43117805  0.77018552  1
  Te  Te87  1  0.42977090  0.74958137  0.10620504  1
  Te  Te88  1  0.40777140  0.74744552  0.42391255  1
  Te  Te89  1  0.41587513  0.74834766  0.75131448  1
  Te  Te90  1  0.74871191  0.07233293  0.10219170  1
  Te  Te91  1  0.75509691  0.08034814  0.41958245  1
  Te  Te92  1  0.76303877  0.05478142  0.78402193  1
  Te  Te93  1  0.76046434  0.41115107  0.05791526  1
  Te  Te94  1  0.80792369  0.43196322  0.40778556  1
  Te  Te95  1  0.75701707  0.42198768  0.75847431  1
  Te  Te96  1  0.76464429  0.72463588  0.10530748  1
  Te  Te97  1  0.75110323  0.75091199  0.42645583  1
  Te  Te98  1  0.74830618  0.75684048  0.73757804  1
  Te  Te99  1  0.12660353  0.29032551  0.23655054  1
  Te  Te100  1  0.08861371  0.25185610  0.59171977  1
  Te  Te101  1  0.08674327  0.22407639  0.89561713  1
  Te  Te102  1  0.05964676  0.62078797  0.27011495  1
  Te  Te103  1  0.03430346  0.56868726  0.54722493  1
  Te  Te104  1  0.09056761  0.57823133  0.92351293  1
  Te  Te105  1  0.11491158  0.91514625  0.27656169  1
  Te  Te106  1  0.07438672  0.92450853  0.58552856  1
  Te  Te107  1  0.13589176  0.93695597  0.89611530  1
  Te  Te108  1  0.41742532  0.24982894  0.22765410  1
  Te  Te109  1  0.41409707  0.27201475  0.58761446  1
  Te  Te110  1  0.42713229  0.25612684  0.92309697  1
  Te  Te111  1  0.41575396  0.57721994  0.23658669  1
  Te  Te112  1  0.40143792  0.57496320  0.57143944  1
  Te  Te113  1  0.46825938  0.57932145  0.94937817  1
  Te  Te114  1  0.40953987  0.93996372  0.25077291  1
  Te  Te115  1  0.37698680  0.91412684  0.58612992  1
  Te  Te116  1  0.41873410  0.93033709  0.92323341  1
  Te  Te117  1  0.72812317  0.26833343  0.27114040  1
  Te  Te118  1  0.74914383  0.25184027  0.57417425  1
  Te  Te119  1  0.76178315  0.23665776  0.91667762  1
  Te  Te120  1  0.75988883  0.57678423  0.22086864  1
  Te  Te121  1  0.76567970  0.58885718  0.56207789  1
  Te  Te122  1  0.75570685  0.60166852  0.91381519  1
  Te  Te123  1  0.76516965  0.89248203  0.24802948  1
  Te  Te124  1  0.73656605  0.91329640  0.58146609  1
  Te  Te125  1  0.75696927  0.88581421  0.93283258  1
  Te  Te126  1  0.22493508  0.24332187  0.06087055  1
  Te  Te127  1  0.26693686  0.25919651  0.39613426  1
  Te  Te128  1  0.26238057  0.25714185  0.73967997  1
  Te  Te129  1  0.25546062  0.58175497  0.08119102  1
  Te  Te130  1  0.22011264  0.60433423  0.42522803  1
  Te  Te131  1  0.25103224  0.57677858  0.73504456  1
  Te  Te132  1  0.22894466  0.91065476  0.06191290  1
  Te  Te133  1  0.22423951  0.90973000  0.38673658  1
  Te  Te134  1  0.20655948  0.89212754  0.75818874  1
  Te  Te135  1  0.56127826  0.27833010  0.12191798  1
  Te  Te136  1  0.57048047  0.24537180  0.42473220  1
  Te  Te137  1  0.56707116  0.24426084  0.72704612  1
  Te  Te138  1  0.58659672  0.55454934  0.06674254  1
  Te  Te139  1  0.57261319  0.57965991  0.40190746  1
  Te  Te140  1  0.59469980  0.58545962  0.75076614  1
  Te  Te141  1  0.60039906  0.90606379  0.09028537  1
  Te  Te142  1  0.56054479  0.93575311  0.42597837  1
  Te  Te143  1  0.57824570  0.92699654  0.76805894  1
  Te  Te144  1  0.94274859  0.25794316  0.09265216  1
  Te  Te145  1  0.90813473  0.24498024  0.42350974  1
  Te  Te146  1  0.91756590  0.25228174  0.73805470  1
  Te  Te147  1  0.93157433  0.56207740  0.09395025  1
  Te  Te148  1  0.85601354  0.57115841  0.36076598  1
  Te  Te149  1  0.90459755  0.56517655  0.73046398  1
  Te  Te150  1  0.94151568  0.92494579  0.08504899  1
  Te  Te151  1  0.94667169  0.90209081  0.40337887  1
  Te  Te152  1  0.94905098  0.92719738  0.76622697  1
  Te  Te153  1  0.22682447  0.07636670  0.23162679  1
  Te  Te154  1  0.22871662  0.09539325  0.58736590  1
  Te  Te155  1  0.22811684  0.06437703  0.88774098  1
  Te  Te156  1  0.19088278  0.45084635  0.27324571  1
  Te  Te157  1  0.24444142  0.42295227  0.55098545  1
  Te  Te158  1  0.25626370  0.43660684  0.90800531  1
  Te  Te159  1  0.25530962  0.75860620  0.24358433  1
  Te  Te160  1  0.20205173  0.74326468  0.57920829  1
  Te  Te161  1  0.28258977  0.73480178  0.92668053  1
  Te  Te162  1  0.59267297  0.07823597  0.26300456  1
  Te  Te163  1  0.55619342  0.08033071  0.59725805  1
  Te  Te164  1  0.58503941  0.11385454  0.93949542  1
  Te  Te165  1  0.57019425  0.43912216  0.30161448  1
  Te  Te166  1  0.59469144  0.43496912  0.57438999  1
  Te  Te167  1  0.57615307  0.37829291  0.90176911  1
  Te  Te168  1  0.59228141  0.75681969  0.26225535  1
  Te  Te169  1  0.55963725  0.76863108  0.60364490  1
  Te  Te170  1  0.55478317  0.72545129  0.90803316  1
  Te  Te171  1  0.91863694  0.06570673  0.25424301  1
  Te  Te172  1  0.89806675  0.06690095  0.59737934  1
  Te  Te173  1  0.93772284  0.10423212  0.93056624  1
  Te  Te174  1  0.92249024  0.40560567  0.23558073  1
  Te  Te175  1  0.88083528  0.39556836  0.54186914  1
  Te  Te176  1  0.95887723  0.39927721  0.92642843  1
  Te  Te177  1  0.94940243  0.73018785  0.23879457  1
  Te  Te178  1  0.91343117  0.76275373  0.57799478  1
  Te  Te179  1  0.93487077  0.76092324  0.91015735  1
