# generated using pymatgen
data_In2Te3
_symmetry_space_group_name_H-M   'P 1'
_cell_length_a   18.75943921
_cell_length_b   18.76144417
_cell_length_c   18.76179923
_cell_angle_alpha   89.97277564
_cell_angle_beta   89.88473079
_cell_angle_gamma   89.99220856
_symmetry_Int_Tables_number   1
_chemical_formula_structural   In2Te3
_chemical_formula_sum   'In72 Te108'
_cell_volume   6603.27933353
_cell_formula_units_Z   36
loop_
 _symmetry_equiv_pos_site_id
 _symmetry_equiv_pos_as_xyz
  1  'x, y, z'
loop_
 _atom_site_type_symbol
 _atom_site_label
 _atom_site_symmetry_multiplicity
 _atom_site_fract_x
 _atom_site_fract_y
 _atom_site_fract_z
 _atom_site_occupancy
  In  In0  1  -0.01461674  0.19362580  0.14400507  1
  In  In1  1  0.17815807  0.82953215  0.01888065  1
  In  In2  1  0.83549327  0.32753893  0.85449892  1
  In  In3  1  0.48701552  0.66854412  0.15393615  1
  In  In4  1  0.50128473  -0.01158102  0.16377648  1
  In  In5  1  0.16630104  0.66157564  0.82177529  1
  In  In6  1  0.47649649  0.48475748  0.01516842  1
  In  In7  1  0.49452023  0.17834084  0.01067857  1
  In  In8  1  0.33453109  0.83532414  0.82928660  1
  In  In9  1  0.79427602  0.53954322  0.65139871  1
  In  In10  1  0.66878730  0.33874137  0.32543771  1
  In  In11  1  0.84829137  0.17668018  -0.00372744  1
  In  In12  1  0.67555185  0.52650169  0.85346511  1
  In  In13  1  0.14601993  0.66930608  0.48080646  1
  In  In14  1  0.00152666  0.15456288  0.87136766  1
  In  In15  1  0.83015508  0.51049895  0.34132833  1
  In  In16  1  0.50810957  0.68755205  0.52775182  1
  In  In17  1  0.17712049  0.34887865  0.16385648  1
  In  In18  1  0.00639781  0.50901332  0.15314318  1
  In  In19  1  0.18429220  0.49685687  0.67564509  1
  In  In20  1  0.33808676  0.66342208  0.68705780  1
  In  In21  1  0.35020778  0.85022949  0.49429533  1
  In  In22  1  0.33474352  0.67091437  0.30329562  1
  In  In23  1  0.65023230  0.00617267  0.34044269  1
  In  In24  1  0.81398612  0.82698239  -0.01545120  1
  In  In25  1  0.83158645  0.00092650  0.17358492  1
  In  In26  1  -0.00415544  0.01200510  -0.03133176  1
  In  In27  1  0.01463734  0.15508780  0.50987144  1
  In  In28  1  0.22618087  0.49860618  0.01525444  1
  In  In29  1  0.19618061  0.01359337  0.16387642  1
  In  In30  1  0.81149709  0.15766265  0.68561710  1
  In  In31  1  -0.02593207  0.67170414  -0.00357178  1
  In  In32  1  -0.01281797  0.50328854  0.82072876  1
  In  In33  1  0.49853103  0.52478357  0.33792579  1
  In  In34  1  0.65618829  -0.02109315  -0.00641912  1
  In  In35  1  0.51229740  0.66012122  0.85228513  1
  In  In36  1  0.67977998  0.14888336  0.82466158  1
  In  In37  1  0.68133660  0.48425147  0.13312625  1
  In  In38  1  0.50089900  0.00021844  0.51546769  1
  In  In39  1  0.33553271  0.32006451  0.30389425  1
  In  In40  1  0.84870160  0.34545746  0.49209532  1
  In  In41  1  0.16818523  0.19418746  0.01450112  1
  In  In42  1  -0.00496560  0.65366955  0.31272624  1
  In  In43  1  0.33587602  0.18509690  0.49240600  1
  In  In44  1  0.66980314  0.81062802  0.14928494  1
  In  In45  1  0.65693205  0.66774531  0.32972585  1
  In  In46  1  0.66091934  0.84022889  0.51452552  1
  In  In47  1  -0.00305004  0.48451803  0.47893616  1
  In  In48  1  0.18795121  0.83468363  0.66883964  1
  In  In49  1  0.18804266  -0.00009960  0.49065266  1
  In  In50  1  0.02378323  0.33955925  0.32065282  1
  In  In51  1  -0.02543836  -0.01171773  0.68199526  1
  In  In52  1  0.33903578  -0.00291801  0.32714260  1
  In  In53  1  0.50902681  0.33815871  0.84209531  1
  In  In54  1  0.35522197  -0.00129015  -0.02079052  1
  In  In55  1  0.35518191  0.14343478  0.82364646  1
  In  In56  1  0.51007072  0.33394114  0.51144056  1
  In  In57  1  0.00540537  0.82510011  0.16367593  1
  In  In58  1  0.80181329  0.82015608  0.69290099  1
  In  In59  1  0.79962202  0.16882116  0.33686633  1
  In  In60  1  0.65193818  0.18658043  0.16222448  1
  In  In61  1  0.65357147  0.33524308  0.68220912  1
  In  In62  1  0.84876417  0.81472200  0.33759190  1
  In  In63  1  0.34427449  0.33436923  0.68754649  1
  In  In64  1  0.00658986  -0.00939443  0.34174985  1
  In  In65  1  0.15427920  -0.01025394  0.82963188  1
  In  In66  1  -0.01690212  0.65920141  0.67949869  1
  In  In67  1  0.33490741  0.51749169  0.50182703  1
  In  In68  1  0.01728022  0.34399083  0.68058472  1
  In  In69  1  0.64915468  0.16451225  0.50161894  1
  In  In70  1  0.18358893  0.17395458  0.65346135  1
  In  In71  1  -0.00202486  0.81841090  0.50659282  1
  Te  Te72  1  0.07565755  0.07639460  0.08394397  1
  Te  Te73  1  0.10411325  0.09231817  0.40269054  1
  Te  Te74  1  0.07982247  0.08940627  0.73868249  1
  Te  Te75  1  0.09585869  0.42581104  0.06070695  1
  Te  Te76  1  0.10873297  0.41326921  0.41650358  1
  Te  Te77  1  0.11270897  0.40912693  0.78147379  1
  Te  Te78  1  0.08998025  0.72361697  0.08743752  1
  Te  Te79  1  0.07550141  0.76463984  0.38530980  1
  Te  Te80  1  0.07898438  0.76095722  0.74522149  1
  Te  Te81  1  0.40512525  0.08741722  0.09444713  1
  Te  Te82  1  0.42588675  0.08818031  0.41514638  1
  Te  Te83  1  0.43632243  0.05536633  0.73754805  1
  Te  Te84  1  0.39277306  0.38551731  0.09393540  1
  Te  Te85  1  0.41847477  0.41701905  0.41617758  1
  Te  Te86  1  0.43692153  0.42990488  0.75115825  1
  Te  Te87  1  0.37594248  0.72952921  0.07589651  1
  Te  Te88  1  0.41837242  0.73831711  0.41554320  1
  Te  Te89  1  0.43819678  0.75718220  0.74896466  1
  Te  Te90  1  0.74043393  0.08243125  0.08233526  1
  Te  Te91  1  0.75237478  0.06605359  0.43642478  1
  Te  Te92  1  0.72737905  0.04178670  0.72974247  1
  Te  Te93  1  0.77688311  0.39101069  0.07080128  1
  Te  Te94  1  0.73637236  0.42778523  0.43036762  1
  Te  Te95  1  0.76016610  0.41708234  0.75379840  1
  Te  Te96  1  0.74680849  0.71456177  0.06297998  1
  Te  Te97  1  0.75042514  0.74057671  0.42811553  1
  Te  Te98  1  0.71146504  0.73032199  0.78170940  1
  Te  Te99  1  0.09869395  0.23636375  0.23660793  1
  Te  Te100  1  0.09536908  0.26947641  0.57188277  1
  Te  Te101  1  0.06943240  0.26879370  0.93394798  1
  Te  Te102  1  0.09624176  0.56119905  0.25870606  1
  Te  Te103  1  0.08441170  0.57975062  0.59318931  1
  Te  Te104  1  0.07765179  0.58391726  0.91705867  1
  Te  Te105  1  0.09696241  0.91966920  0.24047726  1
  Te  Te106  1  0.08732790  0.92388759  0.58169924  1
  Te  Te107  1  0.07999444  0.89196834  0.91884873  1
  Te  Te108  1  0.44245303  0.28687543  0.20445118  1
  Te  Te109  1  0.42927164  0.23955192  0.60055067  1
  Te  Te110  1  0.40247648  0.25546910  0.91579514  1
  Te  Te111  1  0.40408153  0.55592944  0.22357453  1
  Te  Te112  1  0.43180108  0.57584266  0.60219992  1
  Te  Te113  1  0.40844388  0.58084253  0.92486531  1
  Te  Te114  1  0.41889036  0.89965789  0.24940076  1
  Te  Te115  1  0.43061421  0.90251689  0.60458812  1
  Te  Te116  1  0.44528913  0.89343166  0.91726587  1
  Te  Te117  1  0.76517496  0.26811060  0.22789038  1
  Te  Te118  1  0.75291987  0.25785389  0.57687207  1
  Te  Te119  1  0.72829544  0.24880372  0.93007451  1
  Te  Te120  1  0.74416187  0.58294360  0.23869691  1
  Te  Te121  1  0.72137916  0.61910255  0.55334028  1
  Te  Te122  1  0.75286245  0.62260013  0.93428385  1
  Te  Te123  1  0.74302169  0.90712492  0.25552799  1
  Te  Te124  1  0.74875749  0.92570958  0.60031848  1
  Te  Te125  1  0.71878700  0.89304675  0.88685102  1
  Te  Te126  1  0.27875594  0.26817811  0.08365595  1
  Te  Te127  1  0.24449819  0.25777679  0.40350346  1
  Te  Te128  1  0.24942486  0.24388440  0.77011760  1
  Te  Te129  1  0.27349935  0.61501723  0.10105216  1
  Te  Te130  1  0.24473021  0.58631367  0.39988758  1
  Te  Te131  1  0.27562863  0.55987243  0.78165979  1
  Te  Te132  1  0.28415644  0.91332253  0.08866822  1
  Te  Te133  1  0.24172384  0.89251556  0.39794986  1
  Te  Te134  1  0.26871638  0.94196550  0.74059294  1
  Te  Te135  1  0.56654955  0.28508394  0.08880977  1
  Te  Te136  1  0.57094144  0.24721978  0.39946734  1
  Te  Te137  1  0.57080936  0.22936578  0.75202753  1
  Te  Te138  1  0.58162501  0.58456833  0.06941604  1
  Te  Te139  1  0.59301435  0.58387353  0.44299092  1
  Te  Te140  1  0.58553397  0.57979781  0.74929777  1
  Te  Te141  1  0.56176903  0.88308018  0.06893788  1
  Te  Te142  1  0.56545300  0.90340544  0.41269064  1
  Te  Te143  1  0.53037604  0.96071995  0.80436116  1
  Te  Te144  1  0.90542474  0.29841232  0.07075066  1
  Te  Te145  1  0.92510554  0.24294331  0.40877320  1
  Te  Te146  1  0.92436536  0.24444699  0.75088107  1
  Te  Te147  1  0.89710734  0.56887170  0.07185018  1
  Te  Te148  1  0.91327817  0.60110878  0.43299099  1
  Te  Te149  1  0.87708026  0.59739355  0.76795821  1
  Te  Te150  1  0.91328756  0.91532927  0.07689190  1
  Te  Te151  1  0.90642611  0.91947818  0.43281877  1
  Te  Te152  1  0.91332099  0.88852212  0.77159814  1
  Te  Te153  1  0.26983579  0.10529101  0.25209678  1
  Te  Te154  1  0.27832803  0.07530723  0.58626357  1
  Te  Te155  1  0.23483610  0.08015411  0.92366730  1
  Te  Te156  1  0.25705446  0.43644486  0.25232515  1
  Te  Te157  1  0.26052877  0.40694254  0.57910250  1
  Te  Te158  1  0.23672523  0.41660289  0.89598248  1
  Te  Te159  1  0.24380849  0.73159307  0.20260180  1
  Te  Te160  1  0.25334947  0.73334788  0.57450341  1
  Te  Te161  1  0.25591526  0.74051483  0.91881081  1
  Te  Te162  1  0.56613685  0.09717373  0.25246158  1
  Te  Te163  1  0.59213733  0.07673890  0.60558628  1
  Te  Te164  1  0.56778584  0.08089937  0.91774477  1
  Te  Te165  1  0.58438595  0.43596732  0.24453222  1
  Te  Te166  1  0.59097009  0.42971262  0.58824489  1
  Te  Te167  1  0.59698318  0.42230644  0.93282757  1
  Te  Te168  1  0.56549878  0.75938674  0.25080936  1
  Te  Te169  1  0.60208069  0.75427960  0.62265371  1
  Te  Te170  1  0.62129544  0.75412205  0.90099410  1
  Te  Te171  1  0.92144041  0.09167169  0.25507645  1
  Te  Te172  1  0.90466404  0.08190302  0.58311973  1
  Te  Te173  1  0.87542950  0.06618314  0.89177388  1
  Te  Te174  1  0.91718976  0.42251206  0.25217928  1
  Te  Te175  1  0.91549311  0.43022790  0.60495589  1
  Te  Te176  1  0.90557538  0.43639772  0.92738310  1
  Te  Te177  1  0.89800446  0.73137939  0.22116576  1
  Te  Te178  1  0.89453101  0.74631519  0.59115752  1
  Te  Te179  1  0.91804781  0.76632719  0.89473971  1
