# generated using pymatgen
data_In2Te3
_symmetry_space_group_name_H-M   'P 1'
_cell_length_a   18.91412326
_cell_length_b   18.92824081
_cell_length_c   18.92218804
_cell_angle_alpha   90.23157239
_cell_angle_beta   90.01630632
_cell_angle_gamma   90.04845783
_symmetry_Int_Tables_number   1
_chemical_formula_structural   In2Te3
_chemical_formula_sum   'In72 Te108'
_cell_volume   6774.29493544
_cell_formula_units_Z   36
loop_
 _symmetry_equiv_pos_site_id
 _symmetry_equiv_pos_as_xyz
  1  'x, y, z'
loop_
 _atom_site_type_symbol
 _atom_site_label
 _atom_site_symmetry_multiplicity
 _atom_site_fract_x
 _atom_site_fract_y
 _atom_site_fract_z
 _atom_site_occupancy
  In  In0  1  0.81582741  0.34016805  0.85313799  1
  In  In1  1  0.15152952  0.00295284  0.16140841  1
  In  In2  1  0.34511082  0.84598807  0.83017907  1
  In  In3  1  0.15658440  0.33886300  0.16536196  1
  In  In4  1  0.34503493  0.64025343  0.00910224  1
  In  In5  1  0.00744126  0.16118961  0.53194559  1
  In  In6  1  0.51159731  0.64121040  0.15989430  1
  In  In7  1  0.18897378  0.00800105  0.52329686  1
  In  In8  1  0.65198914  0.17529643  0.16631690  1
  In  In9  1  0.66522389  0.83000667  0.49226620  1
  In  In10  1  0.65045208  0.35855969  0.32067708  1
  In  In11  1  0.83926443  0.01008765  0.83874442  1
  In  In12  1  0.50178267  0.33235175  0.84187880  1
  In  In13  1  0.01313440  0.49674182  0.84280812  1
  In  In14  1  0.80612071  0.39303143  0.14477570  1
  In  In15  1  0.63848835  0.29921744  0.70381391  1
  In  In16  1  0.84117204  -0.01388368  0.17230660  1
  In  In17  1  0.02764408  0.36782340  0.67072864  1
  In  In18  1  -0.00588863  0.67243661  -0.02396097  1
  In  In19  1  -0.02453841  0.81811421  0.17565826  1
  In  In20  1  0.04517693  0.51998032  0.49200092  1
  In  In21  1  0.02395559  0.00931052  -0.01992260  1
  In  In22  1  0.81899363  0.15086040  0.33532833  1
  In  In23  1  0.48307005  0.17766255  -0.01106318  1
  In  In24  1  0.33805651  0.03060177  -0.04174433  1
  In  In25  1  0.85091914  0.69855928  0.80950669  1
  In  In26  1  0.01807202  0.16336469  0.83172437  1
  In  In27  1  0.16855380  0.83132846  0.32172641  1
  In  In28  1  0.63981951  0.51571548  0.49867673  1
  In  In29  1  0.65171445  0.18246620  0.84623535  1
  In  In30  1  0.31901422  0.81155943  0.51088212  1
  In  In31  1  0.49385192  0.15527227  0.34464854  1
  In  In32  1  0.85528361  0.16275117  0.69236414  1
  In  In33  1  0.47577898  0.32055138  0.52317053  1
  In  In34  1  -0.00367368  0.32062850  -0.01086722  1
  In  In35  1  -0.00758607  -0.01672667  0.65863682  1
  In  In36  1  0.48422420  0.66145420  0.83683809  1
  In  In37  1  0.15805788  0.68403909  0.81709307  1
  In  In38  1  0.33200785  0.49165282  0.85186587  1
  In  In39  1  0.81350241  0.32925483  0.48617741  1
  In  In40  1  0.18711545  0.52289525  0.36573308  1
  In  In41  1  0.50741589  0.83225501  0.66395067  1
  In  In42  1  0.34064258  0.83082560  0.16816493  1
  In  In43  1  0.49088072  -0.00870447  0.49456654  1
  In  In44  1  0.18183377  0.51300762  0.66615210  1
  In  In45  1  0.31759701  0.17517612  0.18336152  1
  In  In46  1  0.50304923  0.00130146  0.18354379  1
  In  In47  1  0.00223843  0.83084125  0.49884885  1
  In  In48  1  0.16747838  0.14543604  0.34876643  1
  In  In49  1  0.84326790  0.68335280  0.51202122  1
  In  In50  1  0.16465289  0.32141772  0.50199464  1
  In  In51  1  0.15690104  0.84034951  -0.01879668  1
  In  In52  1  -0.02625046  0.33302021  0.30692576  1
  In  In53  1  0.66320761  -0.01711690  0.64461998  1
  In  In54  1  0.48775482  0.48548346  0.30184236  1
  In  In55  1  0.31518009  0.31962227  0.69424418  1
  In  In56  1  0.34337957  0.33394185  0.32145610  1
  In  In57  1  0.31114840  0.02582461  0.72161735  1
  In  In58  1  0.64471612  0.50345955  0.84469469  1
  In  In59  1  -0.01073888  0.67246222  0.33257715  1
  In  In60  1  0.18676621  0.64935491  0.14842869  1
  In  In61  1  0.50353766  0.52197528  0.65218989  1
  In  In62  1  0.48139649  0.67388710  0.47926734  1
  In  In63  1  -0.00926543  0.52769210  0.14081285  1
  In  In64  1  0.67731931  0.68119306  -0.02418946  1
  In  In65  1  0.82955835  0.81879783  0.33761849  1
  In  In66  1  -0.00574649  0.16127609  0.13917947  1
  In  In67  1  0.67139092  0.83699196  0.82500773  1
  In  In68  1  0.67002288  0.80433605  0.15044108  1
  In  In69  1  0.83996858  0.49225328  0.65425638  1
  In  In70  1  0.67346356  0.15677873  0.50103545  1
  In  In71  1  0.67686557  0.00337565  0.02042996  1
  Te  Te72  1  0.11183736  0.10742562  0.05901961  1
  Te  Te73  1  0.07414064  0.06477029  0.43502379  1
  Te  Te74  1  0.07959908  0.08190895  0.72723437  1
  Te  Te75  1  0.07676603  0.42492505  0.06983461  1
  Te  Te76  1  0.08147695  0.39958681  0.40023055  1
  Te  Te77  1  0.12522160  0.42007581  0.77428013  1
  Te  Te78  1  0.08815400  0.75159927  0.09316919  1
  Te  Te79  1  0.09449725  0.73951873  0.41741243  1
  Te  Te80  1  0.06214715  0.72855381  0.71555451  1
  Te  Te81  1  0.40862450  0.08152158  0.09113233  1
  Te  Te82  1  0.39772587  0.08271359  0.42505443  1
  Te  Te83  1  0.41002125  0.10083348  0.80331265  1
  Te  Te84  1  0.43878925  0.46132927  0.15737138  1
  Te  Te85  1  0.41795960  0.41745196  0.42428712  1
  Te  Te86  1  0.42701221  0.42422581  0.74083309  1
  Te  Te87  1  0.42890550  0.74517590  0.07939462  1
  Te  Te88  1  0.41578920  0.78121830  0.40261992  1
  Te  Te89  1  0.40767879  0.74177373  0.73434515  1
  Te  Te90  1  0.76580070  0.09678066  0.09915592  1
  Te  Te91  1  0.75156884  0.05876730  0.42592468  1
  Te  Te92  1  0.73558573  0.08552994  0.74849727  1
  Te  Te93  1  0.71771437  0.46002957  0.04322833  1
  Te  Te94  1  0.74338353  0.43960519  0.41251340  1
  Te  Te95  1  0.73907085  0.41872078  0.74556704  1
  Te  Te96  1  0.77417616  0.75776592  0.05723730  1
  Te  Te97  1  0.73824547  0.72227545  0.40957626  1
  Te  Te98  1  0.75333950  0.76960038  0.72167343  1
  Te  Te99  1  0.08544975  0.23183323  0.25211945  1
  Te  Te100  1  0.10172956  0.24508599  0.61728020  1
  Te  Te101  1  0.10201114  0.26020150  0.90537962  1
  Te  Te102  1  0.08826522  0.58297255  0.25570829  1
  Te  Te103  1  0.08401649  0.61150603  0.60536187  1
  Te  Te104  1  0.10678250  0.58657409  0.92272905  1
  Te  Te105  1  0.06510133  0.91720039  0.25216230  1
  Te  Te106  1  0.10341823  0.90295541  0.58996816  1
  Te  Te107  1  0.09610980  0.92766642  0.88121190  1
  Te  Te108  1  0.43891612  0.24944719  0.23909576  1
  Te  Te109  1  0.38490656  0.23033831  0.59576685  1
  Te  Te110  1  0.38586579  0.27840775  0.92487311  1
  Te  Te111  1  0.39459672  0.58807204  0.24138495  1
  Te  Te112  1  0.39986103  0.58255497  0.56602219  1
  Te  Te113  1  0.44620399  0.55301225  0.93492118  1
  Te  Te114  1  0.42141686  0.90885855  0.26450589  1
  Te  Te115  1  0.40301482  0.91424178  0.59252679  1
  Te  Te116  1  0.42415088  0.91671631  0.93093827  1
  Te  Te117  1  0.75064820  0.26109458  0.25657139  1
  Te  Te118  1  0.75691605  0.24856888  0.60163305  1
  Te  Te119  1  0.75351576  0.23802191  0.93625622  1
  Te  Te120  1  0.71252988  0.49822057  0.21284334  1
  Te  Te121  1  0.74573211  0.58686253  0.58440032  1
  Te  Te122  1  0.75996853  0.59653050  0.88038733  1
  Te  Te123  1  0.74188385  0.90487621  0.24794251  1
  Te  Te124  1  0.76086543  0.88524376  0.59333408  1
  Te  Te125  1  0.75684591  0.91590551  0.92543181  1
  Te  Te126  1  0.26077714  0.26957985  0.08535326  1
  Te  Te127  1  0.26211662  0.24326583  0.41536466  1
  Te  Te128  1  0.25893162  0.23865504  0.80328690  1
  Te  Te129  1  0.25400732  0.54234580  0.07253833  1
  Te  Te130  1  0.26825692  0.60128822  0.46080439  1
  Te  Te131  1  0.26979258  0.59466867  0.75930797  1
  Te  Te132  1  0.24663225  0.91718537  0.07886768  1
  Te  Te133  1  0.25012009  0.91503989  0.41756145  1
  Te  Te134  1  0.24256961  0.89623041  0.73927152  1
  Te  Te135  1  0.57749389  0.25800283  0.07031425  1
  Te  Te136  1  0.58758532  0.25888888  0.42503072  1
  Te  Te137  1  0.52395159  0.20728429  0.75318613  1
  Te  Te138  1  0.61559945  0.57834146  0.06689500  1
  Te  Te139  1  0.56878994  0.58625740  0.38772006  1
  Te  Te140  1  0.59147291  0.60426001  0.74381096  1
  Te  Te141  1  0.57881304  0.91100262  0.08755351  1
  Te  Te142  1  0.57940559  0.91289070  0.40755561  1
  Te  Te143  1  0.57342996  0.93267563  0.75659729  1
  Te  Te144  1  0.90562336  0.27705685  0.10263505  1
  Te  Te145  1  0.92259856  0.23926418  0.42347005  1
  Te  Te146  1  0.92455034  0.28393976  0.75466262  1
  Te  Te147  1  0.89494554  0.60533986  0.06173332  1
  Te  Te148  1  0.91924491  0.57855051  0.42861433  1
  Te  Te149  1  0.92584502  0.57473605  0.74764566  1
  Te  Te150  1  0.93503897  0.92165808  0.07204613  1
  Te  Te151  1  0.91797249  0.91036951  0.40951483  1
  Te  Te152  1  0.91352867  0.91042233  0.76079790  1
  Te  Te153  1  0.25463426  0.05958777  0.25856102  1
  Te  Te154  1  0.26275487  0.10666370  0.60547379  1
  Te  Te155  1  0.24886574  0.09177972  0.85575035  1
  Te  Te156  1  0.24123213  0.42590071  0.25885024  1
  Te  Te157  1  0.25656595  0.41201205  0.58128921  1
  Te  Te158  1  0.29030798  0.39763336  0.95591423  1
  Te  Te159  1  0.26051282  0.73145033  0.25359890  1
  Te  Te160  1  0.22717162  0.70825781  0.56430895  1
  Te  Te161  1  0.26051855  0.74257113  0.92601653  1
  Te  Te162  1  0.60223448  0.07808668  0.27109515  1
  Te  Te163  1  0.56955746  0.08757576  0.58607244  1
  Te  Te164  1  0.58103911  0.07589139  0.92874896  1
  Te  Te165  1  0.58431424  0.41639047  0.19576434  1
  Te  Te166  1  0.59209198  0.40218196  0.59157577  1
  Te  Te167  1  0.60368098  0.39206076  0.93480447  1
  Te  Te168  1  0.58997942  0.73007960  0.24731490  1
  Te  Te169  1  0.58196740  0.73464726  0.57720096  1
  Te  Te170  1  0.56782172  0.76405341  0.91113847  1
  Te  Te171  1  0.92858470  0.08328726  0.25180551  1
  Te  Te172  1  0.89414210  0.07087944  0.57830992  1
  Te  Te173  1  0.91650605  0.10573029  0.92818668  1
  Te  Te174  1  0.90694151  0.45276138  0.24681675  1
  Te  Te175  1  0.92888067  0.40836651  0.56162718  1
  Te  Te176  1  0.90849327  0.43166306  0.93153198  1
  Te  Te177  1  0.88095258  0.71491451  0.23611305  1
  Te  Te178  1  0.93917822  0.74768110  0.60699290  1
  Te  Te179  1  0.94353734  0.78058041  0.89104442  1
