# generated using pymatgen
data_In2Te3
_symmetry_space_group_name_H-M   'P 1'
_cell_length_a   18.82993104
_cell_length_b   18.84106740
_cell_length_c   18.82055483
_cell_angle_alpha   89.98894339
_cell_angle_beta   89.95918436
_cell_angle_gamma   90.06555942
_symmetry_Int_Tables_number   1
_chemical_formula_structural   In2Te3
_chemical_formula_sum   'In72 Te108'
_cell_volume   6677.07497061
_cell_formula_units_Z   36
loop_
 _symmetry_equiv_pos_site_id
 _symmetry_equiv_pos_as_xyz
  1  'x, y, z'
loop_
 _atom_site_type_symbol
 _atom_site_label
 _atom_site_symmetry_multiplicity
 _atom_site_fract_x
 _atom_site_fract_y
 _atom_site_fract_z
 _atom_site_occupancy
  In  In0  1  0.49495275  0.17723970  0.68754886  1
  In  In1  1  0.49493549  0.33915029  0.49371451  1
  In  In2  1  0.82918951  0.34471914  0.13420989  1
  In  In3  1  0.29431617  0.17505980  0.15962790  1
  In  In4  1  -0.00633795  0.84104289  0.48567546  1
  In  In5  1  0.49611099  0.16531132  -0.01548634  1
  In  In6  1  0.83230846  0.33932311  0.51046813  1
  In  In7  1  0.49654483  0.17907420  0.35857452  1
  In  In8  1  0.49037997  -0.00697172  0.52722666  1
  In  In9  1  -0.01042851  0.64135871  0.66378880  1
  In  In10  1  0.81942459  0.50372001  0.67928001  1
  In  In11  1  -0.01142940  0.48396166  0.15197419  1
  In  In12  1  0.84874488  0.17177957  0.34442617  1
  In  In13  1  0.84213287  0.67043357  0.82108144  1
  In  In14  1  0.33999513  0.67067598  0.66041457  1
  In  In15  1  0.65784533  0.15466065  0.14767122  1
  In  In16  1  0.35502240  0.83052740  0.49842747  1
  In  In17  1  0.82999639  0.84419812  0.66426294  1
  In  In18  1  0.16866454  0.84224311  -0.00295649  1
  In  In19  1  0.16449848  0.82466660  0.32364068  1
  In  In20  1  0.17404548  0.01646305  0.50627284  1
  In  In21  1  0.65923807  0.49071479  0.82798839  1
  In  In22  1  0.49295971  -0.01659868  0.16665196  1
  In  In23  1  0.32102843  0.32371866  0.32981214  1
  In  In24  1  0.50353700  0.64933831  0.17275879  1
  In  In25  1  0.67458261  0.66319757  0.01093485  1
  In  In26  1  0.66391643  0.52850354  0.50612336  1
  In  In27  1  0.18489770  0.85153907  0.67038243  1
  In  In28  1  0.48465547  0.51211271  0.69383689  1
  In  In29  1  0.66490643  0.67993146  0.34446208  1
  In  In30  1  0.02909027  0.29857343  0.66601635  1
  In  In31  1  0.34627670  0.83241913  0.82241854  1
  In  In32  1  0.65387990  0.33236114  0.31870413  1
  In  In33  1  0.68533518  -0.01081514  0.33223981  1
  In  In34  1  0.48286223  0.34609831  0.81830283  1
  In  In35  1  0.64500518  0.84431655  0.83894078  1
  In  In36  1  0.50292382  0.34424034  0.14916144  1
  In  In37  1  0.49844924  0.00611089  0.83987155  1
  In  In38  1  0.15207447  0.32659914  0.12735380  1
  In  In39  1  0.34589723  0.49620799  0.13430534  1
  In  In40  1  0.84470507  0.67823352  0.15637909  1
  In  In41  1  0.15211432  0.48241071  0.67762595  1
  In  In42  1  0.67042895  0.47484043  0.15403935  1
  In  In43  1  0.82844658  -0.00237189  0.14975730  1
  In  In44  1  0.00314930  0.64930322  0.00083168  1
  In  In45  1  0.33528966  0.15848980  0.53006117  1
  In  In46  1  0.15237424  0.65621887  0.83871323  1
  In  In47  1  0.00274581  0.49367552  0.49636683  1
  In  In48  1  0.02357864  0.00923457  0.35312581  1
  In  In49  1  0.68232417  0.33543343  0.66555537  1
  In  In50  1  0.00596475  0.17171641  0.14450279  1
  In  In51  1  0.35554576  0.81996990  0.16073154  1
  In  In52  1  0.00693008  0.04320829  0.67856585  1
  In  In53  1  0.85399815  0.00895782  0.51702137  1
  In  In54  1  0.00115780  0.18743457  0.84649034  1
  In  In55  1  -0.02739344  0.83986744  0.15803474  1
  In  In56  1  0.17172080  0.48697002  0.34704815  1
  In  In57  1  0.19980065  0.65421677  0.15086723  1
  In  In58  1  0.30429719  0.48323920  0.51627090  1
  In  In59  1  0.84763226  0.49911636  0.31665568  1
  In  In60  1  0.31063756  0.03451745  -0.02989225  1
  In  In61  1  0.00191478  0.64044782  0.34019531  1
  In  In62  1  0.51100643  0.81485052  0.01019891  1
  In  In63  1  0.50537862  0.81708429  0.33486136  1
  In  In64  1  0.84076297  0.03085177  0.83922763  1
  In  In65  1  0.67814458  0.01116257  -0.00494107  1
  In  In66  1  0.15638816  0.14684467  0.34697380  1
  In  In67  1  0.16927653  0.03376164  0.15281172  1
  In  In68  1  0.01077337  0.83467298  0.85173696  1
  In  In69  1  0.67900792  0.02423716  0.68456829  1
  In  In70  1  0.62700212  0.79261612  0.52469926  1
  In  In71  1  0.32544156  0.48336360  0.87506282  1
  Te  Te72  1  0.09347672  0.10153361  0.04647866  1
  Te  Te73  1  0.05822855  0.10892137  0.45978561  1
  Te  Te74  1  0.10661339  0.11409726  0.76274822  1
  Te  Te75  1  0.08087693  0.43063605  0.04810543  1
  Te  Te76  1  0.07427453  0.39772270  0.41054653  1
  Te  Te77  1  0.08835898  0.38689920  0.77569405  1
  Te  Te78  1  0.08600046  0.74797579  0.09368529  1
  Te  Te79  1  0.08678562  0.73803907  0.42207904  1
  Te  Te80  1  0.07576202  0.74995982  0.73965308  1
  Te  Te81  1  0.41289539  0.08613285  0.08662153  1
  Te  Te82  1  0.40872801  0.07490060  0.42429548  1
  Te  Te83  1  0.39860724  0.08106288  0.75388158  1
  Te  Te84  1  0.41040496  0.39580376  0.04664207  1
  Te  Te85  1  0.40413356  0.42370202  0.40820463  1
  Te  Te86  1  0.37417530  0.41976530  0.74186138  1
  Te  Te87  1  0.40571037  0.71493686  0.06118991  1
  Te  Te88  1  0.43361486  0.72726828  0.42692969  1
  Te  Te89  1  0.43949700  0.74255058  0.74742446  1
  Te  Te90  1  0.77477011  0.11028047  0.06051917  1
  Te  Te91  1  0.75177982  0.08804995  0.42596737  1
  Te  Te92  1  0.75540516  0.12321614  0.76283649  1
  Te  Te93  1  0.73822532  0.40985120  0.03340978  1
  Te  Te94  1  0.74182015  0.42282620  0.40701010  1
  Te  Te95  1  0.76926398  0.39661080  0.77462408  1
  Te  Te96  1  0.76012753  0.76569624  0.07358499  1
  Te  Te97  1  0.74233250  0.76117643  0.43925346  1
  Te  Te98  1  0.74011446  0.75790885  0.75078425  1
  Te  Te99  1  0.09472520  0.24315888  0.24600131  1
  Te  Te100  1  0.13232333  0.25000565  0.57380880  1
  Te  Te101  1  0.09389825  0.29405743  0.90255728  1
  Te  Te102  1  0.08695107  0.57671446  0.23095014  1
  Te  Te103  1  0.09830227  0.58291044  0.57557529  1
  Te  Te104  1  0.07709168  0.55331555  0.91498673  1
  Te  Te105  1  0.08591573  0.92365012  0.23618598  1
  Te  Te106  1  0.06947107  0.92474079  0.58860755  1
  Te  Te107  1  0.10010854  0.93781418  0.90730088  1
  Te  Te108  1  0.42214148  0.24522382  0.24142513  1
  Te  Te109  1  0.40995972  0.27133752  0.60014500  1
  Te  Te110  1  0.40167567  0.24469609  0.89906825  1
  Te  Te111  1  0.39739741  0.57846094  0.24553175  1
  Te  Te112  1  0.41675236  0.57309677  0.57201496  1
  Te  Te113  1  0.38283404  0.59889655  0.94411273  1
  Te  Te114  1  0.40649291  0.91444797  0.27016894  1
  Te  Te115  1  0.39656090  0.91657059  0.61044619  1
  Te  Te116  1  0.42080428  0.91804894  0.93960527  1
  Te  Te117  1  0.75072782  0.24584787  0.23871094  1
  Te  Te118  1  0.75278919  0.23699107  0.58107784  1
  Te  Te119  1  0.79678027  0.27145925  0.95158046  1
  Te  Te120  1  0.74451919  0.58085046  0.23815591  1
  Te  Te121  1  0.75828034  0.60302916  0.59032083  1
  Te  Te122  1  0.75451629  0.58201139  0.90894043  1
  Te  Te123  1  0.75537786  0.90354613  0.23663497  1
  Te  Te124  1  0.73672067  0.92642284  0.57702044  1
  Te  Te125  1  0.75914964  0.91709143  0.90779238  1
  Te  Te126  1  0.26040599  0.26300679  0.04558883  1
  Te  Te127  1  0.24546120  0.24189422  0.43071258  1
  Te  Te128  1  0.30627612  0.20502002  0.78158865  1
  Te  Te129  1  0.24877053  0.56610696  0.04117342  1
  Te  Te130  1  0.24681279  0.58467624  0.42466749  1
  Te  Te131  1  0.24987349  0.57998715  0.74766339  1
  Te  Te132  1  0.26225178  0.92065960  0.09080920  1
  Te  Te133  1  0.24384303  0.91182888  0.42079079  1
  Te  Te134  1  0.23712367  0.92661888  0.78579565  1
  Te  Te135  1  0.59303577  0.25915463  0.05890076  1
  Te  Te136  1  0.60539825  0.24960063  0.43789407  1
  Te  Te137  1  0.59658339  0.25829433  0.76757713  1
  Te  Te138  1  0.57570918  0.56240942  0.07085001  1
  Te  Te139  1  0.56896828  0.58974889  0.41206730  1
  Te  Te140  1  0.60351805  0.59333299  0.73202132  1
  Te  Te141  1  0.60094274  0.91480187  0.08486686  1
  Te  Te142  1  0.58152646  0.91795487  0.42457505  1
  Te  Te143  1  0.57187986  0.92503920  0.73328042  1
  Te  Te144  1  0.93629076  0.27257732  0.05190142  1
  Te  Te145  1  0.92863877  0.26889023  0.42077987  1
  Te  Te146  1  0.91239790  0.23843819  0.73619089  1
  Te  Te147  1  0.89236533  0.56537540  0.06685336  1
  Te  Te148  1  0.89526710  0.58400831  0.43403598  1
  Te  Te149  1  0.93209909  0.55618724  0.77480918  1
  Te  Te150  1  0.92910454  0.93762121  0.05823040  1
  Te  Te151  1  0.90335319  0.92569900  0.39743125  1
  Te  Te152  1  0.92552047  0.92533969  0.75089837  1
  Te  Te153  1  0.26339230  0.07224381  0.26824652  1
  Te  Te154  1  0.24405064  0.08202971  0.61784901  1
  Te  Te155  1  0.22545048  0.12134676  0.88530757  1
  Te  Te156  1  0.24431892  0.40879409  0.22904584  1
  Te  Te157  1  0.21661688  0.37989393  0.58508098  1
  Te  Te158  1  0.22909603  0.37549870  0.90750841  1
  Te  Te159  1  0.27063781  0.73657930  0.25880172  1
  Te  Te160  1  0.24152471  0.74953750  0.57570113  1
  Te  Te161  1  0.25068423  0.74778897  0.91057496  1
  Te  Te162  1  0.57738696  0.08392944  0.25824119  1
  Te  Te163  1  0.58121623  0.09767877  0.58935138  1
  Te  Te164  1  0.60406785  0.10048391  0.89735238  1
  Te  Te165  1  0.56146729  0.43505055  0.25693136  1
  Te  Te166  1  0.57903594  0.42273914  0.59337097  1
  Te  Te167  1  0.55432430  0.43279166  0.91526336  1
  Te  Te168  1  0.59571822  0.75582725  0.22921145  1
  Te  Te169  1  0.55701675  0.71929874  0.62934337  1
  Te  Te170  1  0.57742269  0.72596698  0.90695909  1
  Te  Te171  1  0.92979010  0.08229273  0.24741331  1
  Te  Te172  1  0.90416892  0.12000429  0.60303177  1
  Te  Te173  1  0.94184092  0.08116946  0.93524133  1
  Te  Te174  1  0.92611373  0.38802190  0.25193190  1
  Te  Te175  1  0.92825199  0.41520959  0.60641461  1
  Te  Te176  1  0.89187066  0.37955885  0.94366789  1
  Te  Te177  1  0.91854964  0.74798968  0.27014202  1
  Te  Te178  1  0.91649938  0.74944173  0.58167901  1
  Te  Te179  1  0.91217821  0.75085786  0.93091849  1
