# generated using pymatgen
data_In2Te3
_symmetry_space_group_name_H-M   'P 1'
_cell_length_a   18.95050319
_cell_length_b   18.94192754
_cell_length_c   18.93007801
_cell_angle_alpha   90.14559055
_cell_angle_beta   89.98554124
_cell_angle_gamma   89.92603766
_symmetry_Int_Tables_number   1
_chemical_formula_structural   In2Te3
_chemical_formula_sum   'In72 Te108'
_cell_volume   6795.09515408
_cell_formula_units_Z   36
loop_
 _symmetry_equiv_pos_site_id
 _symmetry_equiv_pos_as_xyz
  1  'x, y, z'
loop_
 _atom_site_type_symbol
 _atom_site_label
 _atom_site_symmetry_multiplicity
 _atom_site_fract_x
 _atom_site_fract_y
 _atom_site_fract_z
 _atom_site_occupancy
  In  In0  1  0.15179077  0.18381650  0.64815891  1
  In  In1  1  0.34134628  0.50904798  0.81917013  1
  In  In2  1  0.64865272  0.17654583  0.83789999  1
  In  In3  1  0.32115105  0.84234516  0.49954006  1
  In  In4  1  0.66810022  0.83428825  0.85594072  1
  In  In5  1  0.84405828  0.15176786  0.64739781  1
  In  In6  1  0.82221718  0.15982273  0.35974894  1
  In  In7  1  0.68329592  0.52000394  0.17162455  1
  In  In8  1  0.67964443  0.01109487  0.68489285  1
  In  In9  1  0.87376854  0.63891701  0.48158537  1
  In  In10  1  0.02658199  0.66290460  0.64339471  1
  In  In11  1  0.66578989  0.67593323  0.68425448  1
  In  In12  1  0.17635282  0.16030606  0.34706306  1
  In  In13  1  0.49285681  0.49016825  0.33292384  1
  In  In14  1  0.16237192  -0.00088688  0.50132975  1
  In  In15  1  0.81302708  0.84244271  0.01258259  1
  In  In16  1  0.33121149  0.34332403  -0.00396038  1
  In  In17  1  0.48924080  0.31393490  0.82287392  1
  In  In18  1  0.47729190  0.66897231  0.83083929  1
  In  In19  1  0.16124666  0.83177995  0.34078433  1
  In  In20  1  0.64893863  0.35123917  0.01545727  1
  In  In21  1  0.17409247  0.81419746  -0.03337900  1
  In  In22  1  0.17705218  0.17362387  0.01606523  1
  In  In23  1  0.47321329  0.68586734  0.47215996  1
  In  In24  1  0.01027813  0.16155363  0.18694155  1
  In  In25  1  0.65674549  0.83415696  0.15866258  1
  In  In26  1  0.82628760  0.33015092  0.81686696  1
  In  In27  1  0.16144413  0.01189338  0.82927597  1
  In  In28  1  0.47995686  0.30969125  0.17881883  1
  In  In29  1  0.32125628  0.48598217  0.48930578  1
  In  In30  1  0.51660764  -0.00443646  0.51385266  1
  In  In31  1  0.01199623  0.49435237  0.82318740  1
  In  In32  1  0.68770086  0.68681946  0.32195609  1
  In  In33  1  0.84732419  0.46940977  0.65993189  1
  In  In34  1  0.48080302  0.00165116  0.81887830  1
  In  In35  1  0.30781936  0.50216868  0.17111341  1
  In  In36  1  0.32211343  0.85387403  0.17866307  1
  In  In37  1  -0.02345540  0.85261243  0.48136342  1
  In  In38  1  0.67001017  0.33590662  0.35305674  1
  In  In39  1  0.81980645  0.51394761  -0.01949007  1
  In  In40  1  0.01469519  0.83972943  0.18798380  1
  In  In41  1  -0.00922553  0.86717350  0.78736075  1
  In  In42  1  0.32515401  0.15979627  0.81610310  1
  In  In43  1  -0.00221071  0.68258883  0.00416882  1
  In  In44  1  0.48648953  0.65353723  0.15962331  1
  In  In45  1  0.48519109  0.80452465  0.66763967  1
  In  In46  1  0.85078598  0.15800648  -0.00601907  1
  In  In47  1  0.82325425  -0.00058920  0.17024390  1
  In  In48  1  0.17104229  0.48147034  0.63968170  1
  In  In49  1  0.50222117  0.47150588  0.66249736  1
  In  In50  1  -0.00251531  0.15320811  0.83096996  1
  In  In51  1  0.67169872  0.17172243  0.18921394  1
  In  In52  1  0.34567050  0.66680903  0.66803626  1
  In  In53  1  0.46771017  0.11271806  0.02187474  1
  In  In54  1  0.15925200  -0.00607962  0.16444660  1
  In  In55  1  0.48637058  0.85747763  0.00868015  1
  In  In56  1  0.32619463  0.16426299  0.49630976  1
  In  In57  1  0.68497373  0.51494519  0.49095302  1
  In  In58  1  0.18605894  0.83257228  0.68361444  1
  In  In59  1  0.68847648  0.85027420  0.50891203  1
  In  In60  1  0.47947231  0.15470486  0.32031440  1
  In  In61  1  0.83664595  0.66149466  0.84530880  1
  In  In62  1  0.17195758  0.52148294  0.33570745  1
  In  In63  1  0.67938411  -0.01076063  0.33474660  1
  In  In64  1  0.85886485  0.31233738  0.50898571  1
  In  In65  1  0.16248897  0.50746019  -0.00211422  1
  In  In66  1  0.85900488  0.68326258  0.17259788  1
  In  In67  1  0.00209188  0.30798328  0.00901966  1
  In  In68  1  0.49223118  0.31082796  0.50428737  1
  In  In69  1  0.49549532  0.50448029  -0.02499069  1
  In  In70  1  0.02395521  0.48724300  0.18603487  1
  In  In71  1  0.02411482  0.34204469  0.34564344  1
  Te  Te72  1  0.07133128  0.08055335  0.07344900  1
  Te  Te73  1  0.07659804  0.10342843  0.44136438  1
  Te  Te74  1  0.07331323  0.07589998  0.72423717  1
  Te  Te75  1  0.09656909  0.40044471  0.08366877  1
  Te  Te76  1  0.08361012  0.44707379  0.43267877  1
  Te  Te77  1  0.09032879  0.40218847  0.73821301  1
  Te  Te78  1  0.09566685  0.75697093  0.09022378  1
  Te  Te79  1  0.05347494  0.75022088  0.40410026  1
  Te  Te80  1  0.08150673  0.74939062  0.75669698  1
  Te  Te81  1  0.38375907  0.06515291  0.13567288  1
  Te  Te82  1  0.41351248  0.06340920  0.42058877  1
  Te  Te83  1  0.43680095  0.11247955  0.73017863  1
  Te  Te84  1  0.43167369  0.42583261  0.08961652  1
  Te  Te85  1  0.40818531  0.38973215  0.40551394  1
  Te  Te86  1  0.39443727  0.39429376  0.73349614  1
  Te  Te87  1  0.40382731  0.75555237  0.08725706  1
  Te  Te88  1  0.40841253  0.78815018  0.39294112  1
  Te  Te89  1  0.37695184  0.77586311  0.77921461  1
  Te  Te90  1  0.74319217  0.09090540  0.08130307  1
  Te  Te91  1  0.74485862  0.06571809  0.44550208  1
  Te  Te92  1  0.76339943  0.10301948  0.77134646  1
  Te  Te93  1  0.76267595  0.41993497  0.08879219  1
  Te  Te94  1  0.77627713  0.41409641  0.42555951  1
  Te  Te95  1  0.74532571  0.43657823  0.75810509  1
  Te  Te96  1  0.74477268  0.72847891  0.08573135  1
  Te  Te97  1  0.77099039  0.74749784  0.43213219  1
  Te  Te98  1  0.76313933  0.76341401  0.75767517  1
  Te  Te99  1  0.10736940  0.25750319  0.24921795  1
  Te  Te100  1  0.04668440  0.28745316  0.61925826  1
  Te  Te101  1  0.09364179  0.24458956  0.90768957  1
  Te  Te102  1  0.07760202  0.60261956  0.25513330  1
  Te  Te103  1  0.08973601  0.56905108  0.54758573  1
  Te  Te104  1  0.08205572  0.60004711  0.90746497  1
  Te  Te105  1  0.07445777  0.94372745  0.27995818  1
  Te  Te106  1  0.09295486  0.88813687  0.57537779  1
  Te  Te107  1  0.07440791  0.91445074  0.90619706  1
  Te  Te108  1  0.37925119  0.24571569  0.26125889  1
  Te  Te109  1  0.42113884  0.22092083  0.59660858  1
  Te  Te110  1  0.42012001  0.23452490  0.93297773  1
  Te  Te111  1  0.40078266  0.58799180  0.26581434  1
  Te  Te112  1  0.43259333  0.57648311  0.57404399  1
  Te  Te113  1  0.38634403  0.59959587  0.93367223  1
  Te  Te114  1  0.44129578  0.94124572  0.19394078  1
  Te  Te115  1  0.41332222  0.91606905  0.59548158  1
  Te  Te116  1  0.39847322  0.93734534  0.92125482  1
  Te  Te117  1  0.76719175  0.26329309  0.26030281  1
  Te  Te118  1  0.75428752  0.25355097  0.59229294  1
  Te  Te119  1  0.75055444  0.26318904  0.93299042  1
  Te  Te120  1  0.78217690  0.57517123  0.27289615  1
  Te  Te121  1  0.76157862  0.59167720  0.59677032  1
  Te  Te122  1  0.72294143  0.59182567  0.90530907  1
  Te  Te123  1  0.76215578  0.88972060  0.25489948  1
  Te  Te124  1  0.76964404  0.90792349  0.62102868  1
  Te  Te125  1  0.76067222  0.93367690  0.91028055  1
  Te  Te126  1  0.26669871  0.25847073  0.09564017  1
  Te  Te127  1  0.22064530  0.26068385  0.45147857  1
  Te  Te128  1  0.23223224  0.25178296  0.75222160  1
  Te  Te129  1  0.23986930  0.59662469  0.08396950  1
  Te  Te130  1  0.26749712  0.60105841  0.41882256  1
  Te  Te131  1  0.23912307  0.58207226  0.73494324  1
  Te  Te132  1  0.23988466  0.91374839  0.06388579  1
  Te  Te133  1  0.25569015  0.93665518  0.39981987  1
  Te  Te134  1  0.26089989  0.94221723  0.74517447  1
  Te  Te135  1  0.57609047  0.23543365  0.08516289  1
  Te  Te136  1  0.58192745  0.22897643  0.41068218  1
  Te  Te137  1  0.59903955  0.26832380  0.73634841  1
  Te  Te138  1  0.58739021  0.58118686  0.07146497  1
  Te  Te139  1  0.59035643  0.59100034  0.39806486  1
  Te  Te140  1  0.56928442  0.57893742  0.74926082  1
  Te  Te141  1  0.59418604  0.93543819  0.07427815  1
  Te  Te142  1  0.58290132  0.90108555  0.41278166  1
  Te  Te143  1  0.57793282  0.89923142  0.74357651  1
  Te  Te144  1  0.90832310  0.24333769  0.10760462  1
  Te  Te145  1  0.94611228  0.22904086  0.41669151  1
  Te  Te146  1  0.92989937  0.25509002  0.73592982  1
  Te  Te147  1  0.92364686  0.57400235  0.08031390  1
  Te  Te148  1  0.91003014  0.55661637  0.36571566  1
  Te  Te149  1  0.92335302  0.58863177  0.74064964  1
  Te  Te150  1  0.92160990  0.91393938  0.09222761  1
  Te  Te151  1  0.87220502  0.95934025  0.46727831  1
  Te  Te152  1  0.91670707  0.94949321  0.69089320  1
  Te  Te153  1  0.25090228  0.08272802  0.24131915  1
  Te  Te154  1  0.25085054  0.07681789  0.59567128  1
  Te  Te155  1  0.25734080  0.08063059  0.92660864  1
  Te  Te156  1  0.24426964  0.41291085  0.26487687  1
  Te  Te157  1  0.24771131  0.37924357  0.56075871  1
  Te  Te158  1  0.24508568  0.42194782  0.90139264  1
  Te  Te159  1  0.24244295  0.75323169  0.24748955  1
  Te  Te160  1  0.24681442  0.73552925  0.57671895  1
  Te  Te161  1  0.26771263  0.73949391  0.88452117  1
  Te  Te162  1  0.58194891  0.06581723  0.24741826  1
  Te  Te163  1  0.60309701  0.08792311  0.58624785  1
  Te  Te164  1  0.57409932  0.07217862  0.91729572  1
  Te  Te165  1  0.59117482  0.41341523  0.24125785  1
  Te  Te166  1  0.59618975  0.41239523  0.55995072  1
  Te  Te167  1  0.58418083  0.41372118  0.89407294  1
  Te  Te168  1  0.56989560  0.74754436  0.24771657  1
  Te  Te169  1  0.58706075  0.73737857  0.56751020  1
  Te  Te170  1  0.56364145  0.75011127  0.92517610  1
  Te  Te171  1  0.91108177  0.07679777  0.26580295  1
  Te  Te172  1  0.93194201  0.05572023  0.57252264  1
  Te  Te173  1  0.91999568  0.05815516  0.91298371  1
  Te  Te174  1  0.92159027  0.41641659  0.26604703  1
  Te  Te175  1  0.95174693  0.41379072  0.57078149  1
  Te  Te176  1  0.92367733  0.40998618  0.91989263  1
  Te  Te177  1  0.93041849  0.75761843  0.27863545  1
  Te  Te178  1  0.91849033  0.74652746  0.58015946  1
  Te  Te179  1  0.91476199  0.77303092  0.91542414  1
