# generated using pymatgen
data_In2Te3
_symmetry_space_group_name_H-M   'P 1'
_cell_length_a   18.90884053
_cell_length_b   18.91860441
_cell_length_c   18.92319610
_cell_angle_alpha   89.97674720
_cell_angle_beta   89.98117138
_cell_angle_gamma   90.00581732
_symmetry_Int_Tables_number   1
_chemical_formula_structural   In2Te3
_chemical_formula_sum   'In72 Te108'
_cell_volume   6769.37267067
_cell_formula_units_Z   36
loop_
 _symmetry_equiv_pos_site_id
 _symmetry_equiv_pos_as_xyz
  1  'x, y, z'
loop_
 _atom_site_type_symbol
 _atom_site_label
 _atom_site_symmetry_multiplicity
 _atom_site_fract_x
 _atom_site_fract_y
 _atom_site_fract_z
 _atom_site_occupancy
  In  In0  1  -0.00697287  0.82056792  0.82759359  1
  In  In1  1  0.01348091  0.17059257  0.15321324  1
  In  In2  1  0.03274885  0.18316535  0.83639409  1
  In  In3  1  0.79067503  0.65410248  0.85638433  1
  In  In4  1  0.66866970  0.32144964  0.31142483  1
  In  In5  1  0.16636368  0.82512966  0.01250905  1
  In  In6  1  0.32802340  0.83226774  0.48441688  1
  In  In7  1  0.15968659  0.14043674  0.30925761  1
  In  In8  1  0.50676305  0.50410980  0.67277544  1
  In  In9  1  0.16702468  0.65494648  0.49506387  1
  In  In10  1  0.84102065  -0.01656036  0.83217937  1
  In  In11  1  0.82016872  0.84547490  0.00278422  1
  In  In12  1  0.50172531  0.82366422  0.31963064  1
  In  In13  1  -0.01152735  0.53100075  0.51114973  1
  In  In14  1  0.01454368  0.64609241  0.00246027  1
  In  In15  1  0.17211224  -0.00191754  0.84833352  1
  In  In16  1  0.84661108  0.15883644  0.67444792  1
  In  In17  1  0.84588897  0.35111398  0.48118107  1
  In  In18  1  0.32190315  0.64458396  0.70730537  1
  In  In19  1  0.14768527  0.84602784  0.64171819  1
  In  In20  1  0.65379469  0.82938198  0.49538126  1
  In  In21  1  0.03501605  0.47820758  0.13674862  1
  In  In22  1  0.52772960  0.34561911  0.86576188  1
  In  In23  1  0.01128360  0.47984941  0.83195995  1
  In  In24  1  0.30665051  0.34340337  0.00503304  1
  In  In25  1  0.48623392  0.33477893  0.51124340  1
  In  In26  1  0.34450584  0.31921993  0.67214654  1
  In  In27  1  0.34892744  0.65808835  -0.00217461  1
  In  In28  1  0.35746877  0.00246253  0.69607442  1
  In  In29  1  0.16384741  0.82386921  0.32362602  1
  In  In30  1  -0.00838054  0.17063315  0.49394763  1
  In  In31  1  0.62332194  0.54466795  0.48003290  1
  In  In32  1  0.51943597  0.65454133  0.84882019  1
  In  In33  1  0.66758189  0.68644498  0.65909872  1
  In  In34  1  0.31439689  0.14272460  0.48478732  1
  In  In35  1  -0.00151447  0.67131609  0.66296138  1
  In  In36  1  -0.00011389  -0.02038291  0.34056429  1
  In  In37  1  0.64972238  0.14925017  0.16388187  1
  In  In38  1  0.33397265  0.51740464  0.49306247  1
  In  In39  1  -0.01795627  0.02856455  0.00214145  1
  In  In40  1  0.82577721  0.34289255  0.17424266  1
  In  In41  1  0.82046747  0.49461951  0.30199504  1
  In  In42  1  0.82162611  0.69985009  0.50128207  1
  In  In43  1  0.34972987  0.33052555  0.31394599  1
  In  In44  1  0.63995808  0.85913125  0.80020443  1
  In  In45  1  0.35217566  0.82607850  0.84873611  1
  In  In46  1  0.17848379  0.67424937  0.17076894  1
  In  In47  1  0.68431642  0.32188683  0.68273395  1
  In  In48  1  0.18829698  0.18021630  -0.01267209  1
  In  In49  1  0.65642695  0.14566033  0.48986862  1
  In  In50  1  0.81097794  0.17271274  0.01611058  1
  In  In51  1  0.82462073  -0.00174014  0.18593885  1
  In  In52  1  0.17407296  0.32484246  0.82618043  1
  In  In53  1  0.85529843  0.32818125  0.84482684  1
  In  In54  1  0.50175225  0.17318834  0.00447207  1
  In  In55  1  -0.00571482  0.68985764  0.32737058  1
  In  In56  1  0.16615323  0.14403630  0.66713172  1
  In  In57  1  0.49414636  -0.01614260  0.50350556  1
  In  In58  1  0.01652194  0.30888781  0.34951864  1
  In  In59  1  0.35492648  0.53014316  0.17292637  1
  In  In60  1  0.33538063  -0.00188891  0.01751021  1
  In  In61  1  0.50654535  0.33886038  0.15323940  1
  In  In62  1  0.33830925  -0.01393409  0.32276240  1
  In  In63  1  0.50281704  0.83046235  0.02188273  1
  In  In64  1  0.64545924  0.51551709  0.14788409  1
  In  In65  1  0.66181246  0.15779652  0.82752865  1
  In  In66  1  0.19038977  0.33753648  0.52143686  1
  In  In67  1  0.84084013  0.67269230  0.17311690  1
  In  In68  1  0.17615306  0.48749333  0.33389328  1
  In  In69  1  0.65784463  0.83008953  0.16734159  1
  In  In70  1  0.80856460  -0.01304089  0.48567770  1
  In  In71  1  0.82887180  0.49847297  0.67662356  1
  Te  Te72  1  0.10485682  0.07985726  0.07216894  1
  Te  Te73  1  0.09021912  0.07765231  0.42573440  1
  Te  Te74  1  0.06771282  0.05882164  0.75039180  1
  Te  Te75  1  0.11280916  0.40122526  0.04248933  1
  Te  Te76  1  0.08398913  0.42158810  0.43757088  1
  Te  Te77  1  0.08714674  0.39972235  0.73453277  1
  Te  Te78  1  0.06661572  0.75002134  0.10064148  1
  Te  Te79  1  0.07454772  0.75834344  0.43585136  1
  Te  Te80  1  0.09988084  0.74793308  0.74839215  1
  Te  Te81  1  0.41872583  0.09254703  0.09664856  1
  Te  Te82  1  0.42669710  0.08224795  0.40586633  1
  Te  Te83  1  0.46043576  0.06335440  0.78205875  1
  Te  Te84  1  0.41308293  0.42877630  0.07621548  1
  Te  Te85  1  0.42117609  0.42628357  0.40792317  1
  Te  Te86  1  0.43044248  0.40720974  0.76052507  1
  Te  Te87  1  0.39568683  0.75916494  0.09341904  1
  Te  Te88  1  0.43091985  0.74321749  0.42536775  1
  Te  Te89  1  0.43203331  0.73932903  0.75416685  1
  Te  Te90  1  0.73681765  0.05697562  0.07607302  1
  Te  Te91  1  0.74210407  0.08032387  0.39270263  1
  Te  Te92  1  0.74763533  0.06703724  0.74042696  1
  Te  Te93  1  0.75126529  0.43142671  0.08497196  1
  Te  Te94  1  0.73525736  0.42719118  0.41026622  1
  Te  Te95  1  0.74742078  0.42047072  0.77762830  1
  Te  Te96  1  0.74285885  0.73953443  0.07744069  1
  Te  Te97  1  0.72204670  0.73570515  0.40237836  1
  Te  Te98  1  0.75498686  0.76194448  0.75617972  1
  Te  Te99  1  0.10396150  0.26246373  0.23582990  1
  Te  Te100  1  0.08806598  0.24628209  0.58610738  1
  Te  Te101  1  0.07487881  0.28163888  0.94809289  1
  Te  Te102  1  0.08129044  0.58168975  0.25863300  1
  Te  Te103  1  0.10018680  0.57254956  0.60488344  1
  Te  Te104  1  0.09282358  0.58904921  0.89215884  1
  Te  Te105  1  0.08836436  0.91790295  0.24089956  1
  Te  Te106  1  0.05840686  0.95660017  0.61677618  1
  Te  Te107  1  0.06425551  0.91585421  0.92616122  1
  Te  Te108  1  0.45166055  0.23809538  0.25195273  1
  Te  Te109  1  0.41056780  0.22067852  0.57823116  1
  Te  Te110  1  0.41319748  0.26532612  0.92130657  1
  Te  Te111  1  0.46403670  0.59955772  0.24708392  1
  Te  Te112  1  0.41647931  0.59597080  0.59340232  1
  Te  Te113  1  0.41628083  0.56522530  0.90508755  1
  Te  Te114  1  0.43551401  0.92241599  0.22824446  1
  Te  Te115  1  0.40856482  0.89865941  0.59646175  1
  Te  Te116  1  0.43423481  0.92588925  0.92367254  1
  Te  Te117  1  0.76058589  0.22385782  0.24140102  1
  Te  Te118  1  0.76938262  0.25370129  0.57725177  1
  Te  Te119  1  0.73870324  0.25821258  0.91404068  1
  Te  Te120  1  0.72837442  0.60077056  0.24865710  1
  Te  Te121  1  0.75078432  0.57927922  0.57483095  1
  Te  Te122  1  0.70344930  0.58042331  0.95256480  1
  Te  Te123  1  0.75450646  0.89251326  0.26041850  1
  Te  Te124  1  0.72944787  0.91645899  0.58665741  1
  Te  Te125  1  0.72768977  0.92418012  0.91308280  1
  Te  Te126  1  0.26819033  0.23562327  0.09754221  1
  Te  Te127  1  0.24775773  0.25728958  0.40588382  1
  Te  Te128  1  0.26203625  0.22205067  0.75520338  1
  Te  Te129  1  0.24280225  0.57653405  0.07681069  1
  Te  Te130  1  0.26268902  0.60079959  0.38803067  1
  Te  Te131  1  0.24636215  0.55420969  0.79417133  1
  Te  Te132  1  0.25817516  0.90018856  0.09786496  1
  Te  Te133  1  0.23324090  0.92567653  0.41620533  1
  Te  Te134  1  0.24781451  0.90158135  0.75862761  1
  Te  Te135  1  0.60920336  0.26441999  0.07337734  1
  Te  Te136  1  0.58150497  0.25840008  0.41930070  1
  Te  Te137  1  0.56961799  0.24983127  0.74679075  1
  Te  Te138  1  0.56830343  0.58110007  0.03566988  1
  Te  Te139  1  0.52364493  0.60791861  0.39248596  1
  Te  Te140  1  0.61165357  0.57940446  0.75202263  1
  Te  Te141  1  0.55801158  0.93094958  0.11940715  1
  Te  Te142  1  0.58436289  0.92526217  0.39699251  1
  Te  Te143  1  0.54995874  0.95342948  0.72720523  1
  Te  Te144  1  0.91534406  0.26080186  0.07971214  1
  Te  Te145  1  0.89341952  0.23383919  0.39697719  1
  Te  Te146  1  0.93976097  0.25890186  0.73960264  1
  Te  Te147  1  0.92079288  0.56647195  0.09220920  1
  Te  Te148  1  0.90027318  0.58667252  0.40216494  1
  Te  Te149  1  0.90453869  0.59989227  0.76092316  1
  Te  Te150  1  0.91815089  0.92221409  0.08867118  1
  Te  Te151  1  0.90475529  0.89762834  0.41659069  1
  Te  Te152  1  0.91768298  0.90556260  0.73330950  1
  Te  Te153  1  0.27210196  0.08707706  0.23447535  1
  Te  Te154  1  0.25545727  0.05040929  0.58890302  1
  Te  Te155  1  0.27759022  0.08768408  0.90484976  1
  Te  Te156  1  0.26042229  0.41887032  0.22957562  1
  Te  Te157  1  0.27002157  0.43404874  0.60462585  1
  Te  Te158  1  0.25395964  0.43292232  0.89311989  1
  Te  Te159  1  0.27111561  0.74548294  0.25933618  1
  Te  Te160  1  0.25345641  0.73976246  0.58841776  1
  Te  Te161  1  0.24553086  0.74137163  0.91508810  1
  Te  Te162  1  0.54131557  0.11263215  0.25372797  1
  Te  Te163  1  0.57962744  0.07064500  0.59046096  1
  Te  Te164  1  0.57857486  0.07801132  0.91997579  1
  Te  Te165  1  0.57685085  0.42830189  0.25526052  1
  Te  Te166  1  0.59450648  0.41124192  0.58813674  1
  Te  Te167  1  0.59131944  0.45999571  0.93899358  1
  Te  Te168  1  0.55651829  0.72865735  0.21483592  1
  Te  Te169  1  0.56248306  0.75172777  0.58321922  1
  Te  Te170  1  0.59312778  0.76980225  0.91438519  1
  Te  Te171  1  0.93251757  0.08562480  0.24865364  1
  Te  Te172  1  0.91640164  0.06919229  0.57577931  1
  Te  Te173  1  0.90424118  0.11116013  0.90124287  1
  Te  Te174  1  0.94139616  0.41103335  0.25848574  1
  Te  Te175  1  0.92548575  0.41749733  0.59148549  1
  Te  Te176  1  0.90506953  0.43972402  0.92496911  1
  Te  Te177  1  0.90023643  0.77928515  0.25731153  1
  Te  Te178  1  0.92093345  0.76754734  0.58344616  1
  Te  Te179  1  0.90443752  0.73955594  0.92892355  1
