# generated using pymatgen
data_In2Te3
_symmetry_space_group_name_H-M   'P 1'
_cell_length_a   18.96299195
_cell_length_b   18.94527778
_cell_length_c   18.95541445
_cell_angle_alpha   90.05555982
_cell_angle_beta   90.10509817
_cell_angle_gamma   89.95116164
_symmetry_Int_Tables_number   1
_chemical_formula_structural   In2Te3
_chemical_formula_sum   'In72 Te108'
_cell_volume   6809.88896220
_cell_formula_units_Z   36
loop_
 _symmetry_equiv_pos_site_id
 _symmetry_equiv_pos_as_xyz
  1  'x, y, z'
loop_
 _atom_site_type_symbol
 _atom_site_label
 _atom_site_symmetry_multiplicity
 _atom_site_fract_x
 _atom_site_fract_y
 _atom_site_fract_z
 _atom_site_occupancy
  In  In0  1  0.17215873  0.00942297  0.18992428  1
  In  In1  1  0.49041743  0.83522057  -0.01814640  1
  In  In2  1  0.17070102  -0.01130381  0.79440848  1
  In  In3  1  0.50013162  0.48728489  0.64032833  1
  In  In4  1  -0.00848742  0.49233792  0.50295246  1
  In  In5  1  0.15340224  0.35162871  0.83121310  1
  In  In6  1  0.33323657  0.31887891  0.33403001  1
  In  In7  1  0.49706032  0.63885711  0.49299962  1
  In  In8  1  -0.01415184  0.31444509  0.36280585  1
  In  In9  1  0.65969834  0.63894685  0.06235375  1
  In  In10  1  0.33156563  0.68355449  0.00395755  1
  In  In11  1  0.51508691  0.85047240  0.33714362  1
  In  In12  1  0.33672308  0.84939876  0.15862408  1
  In  In13  1  0.83360873  0.49698797  0.00534963  1
  In  In14  1  0.52508603  0.14040743  0.68034699  1
  In  In15  1  0.68307669  0.83778922  0.18601285  1
  In  In16  1  0.70354010  0.15453250  0.81078104  1
  In  In17  1  0.33798838  0.13764179  0.49397444  1
  In  In18  1  0.00569008  0.33897158  0.00583738  1
  In  In19  1  0.30816853  0.51777732  0.51289305  1
  In  In20  1  0.48348363  0.33059704  0.18553139  1
  In  In21  1  0.02322058  0.83631800  0.80972944  1
  In  In22  1  0.83536714  0.86772690  -0.01872886  1
  In  In23  1  0.82511969  0.52369580  0.32494515  1
  In  In24  1  0.81922943  0.31882564  0.17230174  1
  In  In25  1  0.70261506  0.00266953  0.64819737  1
  In  In26  1  0.73475874  0.90522626  0.43639351  1
  In  In27  1  0.17441318  0.83560651  0.33545288  1
  In  In28  1  0.16691873  0.67121596  0.83851908  1
  In  In29  1  0.50236607  0.15618280  0.03119190  1
  In  In30  1  0.18106785  0.18314085  0.00616562  1
  In  In31  1  0.84198081  0.30863976  0.79743825  1
  In  In32  1  -0.00221871  0.81508990  0.19320843  1
  In  In33  1  0.67468105  0.01333068  -0.00555434  1
  In  In34  1  0.86708166  0.83311036  0.65990594  1
  In  In35  1  0.83157186  0.48093558  0.64620652  1
  In  In36  1  0.66464748  0.14247873  0.15670077  1
  In  In37  1  0.15588630  0.16638067  0.34862580  1
  In  In38  1  0.02509229  0.67447088  -0.00870754  1
  In  In39  1  0.33043626  0.86900803  0.50678577  1
  In  In40  1  0.13329454  -0.00257944  0.52305368  1
  In  In41  1  0.33109104  0.15842519  0.83023904  1
  In  In42  1  0.67329224  0.84668685  0.84540227  1
  In  In43  1  0.49248614  -0.01487427  0.17115399  1
  In  In44  1  0.84465230  0.63539595  0.84468060  1
  In  In45  1  0.51009163  0.32080829  0.83170839  1
  In  In46  1  0.83537305  0.68453673  0.17430895  1
  In  In47  1  0.01274326  0.48853615  0.16560880  1
  In  In48  1  0.13716544  0.16535583  0.65365141  1
  In  In49  1  0.29623645  0.70792077  0.68244998  1
  In  In50  1  0.34373860  0.49093391  0.17117465  1
  In  In51  1  0.48658417  0.48550588  0.32605187  1
  In  In52  1  0.48579425  0.68179542  0.79348460  1
  In  In53  1  0.66988363  0.34460343  -0.02944755  1
  In  In54  1  0.66998712  0.67361137  0.67256014  1
  In  In55  1  -0.00489023  0.02309790  -0.03343106  1
  In  In56  1  0.68869193  0.31639350  0.35287692  1
  In  In57  1  0.33126578  0.50862070  0.82981652  1
  In  In58  1  0.34539751  0.65618659  0.33949742  1
  In  In59  1  0.14383307  0.66964338  0.49124437  1
  In  In60  1  0.50334135  0.30576937  0.48624001  1
  In  In61  1  0.16332059  0.64339726  0.16198996  1
  In  In62  1  0.47991078  0.82663812  0.65324030  1
  In  In63  1  -0.04923659  0.16327818  0.53904986  1
  In  In64  1  0.50253382  -0.01063026  0.84277382  1
  In  In65  1  0.84093244  0.68962729  0.50124044  1
  In  In66  1  -0.00898231  0.50739273  0.80855986  1
  In  In67  1  0.84659055  -0.01580178  0.18926454  1
  In  In68  1  0.65217784  0.48277065  0.48327913  1
  In  In69  1  -0.00940510  0.16396081  0.18554301  1
  In  In70  1  0.31564900  0.33298133  0.63585521  1
  In  In71  1  0.33827136  0.33523759  0.03071085  1
  Te  Te72  1  0.07763570  0.09010278  0.08319704  1
  Te  Te73  1  0.05890882  0.09947976  0.44042632  1
  Te  Te74  1  0.06185187  0.07971488  0.74772622  1
  Te  Te75  1  0.10517982  0.41032970  0.08544314  1
  Te  Te76  1  0.07559718  0.42035468  0.40662935  1
  Te  Te77  1  0.05626623  0.39935761  0.73234032  1
  Te  Te78  1  0.09789496  0.76160228  0.09073743  1
  Te  Te79  1  0.06737236  0.77019511  0.41256472  1
  Te  Te80  1  0.07630812  0.72374578  0.73400067  1
  Te  Te81  1  0.40246240  0.06582306  0.08463236  1
  Te  Te82  1  0.44662644  0.04707774  0.45474918  1
  Te  Te83  1  0.41026822  0.06266917  0.74513824  1
  Te  Te84  1  0.44993540  0.43332451  0.06681632  1
  Te  Te85  1  0.41596455  0.42511925  0.44573696  1
  Te  Te86  1  0.41126595  0.40923594  0.73907244  1
  Te  Te87  1  0.43365793  0.75206466  0.09443154  1
  Te  Te88  1  0.40938384  0.75391747  0.43491623  1
  Te  Te89  1  0.38209863  0.79993044  0.77235364  1
  Te  Te90  1  0.77869176  0.07613159  0.08189407  1
  Te  Te91  1  0.77260744  0.04774893  0.48057966  1
  Te  Te92  1  0.79436420  0.10818045  0.70301441  1
  Te  Te93  1  0.73821195  0.41626879  0.08947509  1
  Te  Te94  1  0.77561346  0.41917056  0.42408148  1
  Te  Te95  1  0.75843938  0.42243057  0.75819817  1
  Te  Te96  1  0.75322269  0.76664840  0.06085317  1
  Te  Te97  1  0.76218674  0.76013175  0.39772807  1
  Te  Te98  1  0.76077212  0.74611040  0.77093594  1
  Te  Te99  1  0.08215827  0.26173619  0.25503551  1
  Te  Te100  1  0.06396951  0.25795145  0.56733858  1
  Te  Te101  1  0.08050204  0.24604306  0.91080065  1
  Te  Te102  1  0.05601762  0.60025627  0.25045903  1
  Te  Te103  1  0.06915486  0.58652017  0.58602307  1
  Te  Te104  1  0.08732474  0.56150630  0.91423000  1
  Te  Te105  1  0.07043732  0.92603537  0.26742282  1
  Te  Te106  1  0.03251183  0.92026202  0.60057377  1
  Te  Te107  1  0.09172109  0.92041749  0.91444963  1
  Te  Te108  1  0.43401113  0.22927120  0.27786512  1
  Te  Te109  1  0.42400522  0.23205679  0.59963399  1
  Te  Te110  1  0.41569169  0.24400469  0.92523259  1
  Te  Te111  1  0.43499039  0.59624339  0.23431218  1
  Te  Te112  1  0.39756003  0.60475816  0.60762441  1
  Te  Te113  1  0.41960812  0.60296223  0.90622732  1
  Te  Te114  1  0.39792972  0.92502173  0.27487515  1
  Te  Te115  1  0.43730493  0.95059541  0.57513079  1
  Te  Te116  1  0.40218456  0.94473451  0.94038735  1
  Te  Te117  1  0.75408348  0.21400892  0.25795749  1
  Te  Te118  1  0.83545329  0.26175843  0.56848561  1
  Te  Te119  1  0.76582723  0.24008871  0.91923838  1
  Te  Te120  1  0.73804434  0.58420940  0.22073966  1
  Te  Te121  1  0.73605942  0.58484555  0.56760669  1
  Te  Te122  1  0.73302885  0.58519310  0.93405227  1
  Te  Te123  1  0.71852004  0.96005976  0.26169386  1
  Te  Te124  1  0.73750129  0.86788878  0.59415307  1
  Te  Te125  1  0.76571804  0.96125723  0.88310725  1
  Te  Te126  1  0.26626477  0.23902051  0.11179865  1
  Te  Te127  1  0.25048624  0.24916541  0.43931160  1
  Te  Te128  1  0.24362145  0.25060517  0.74747796  1
  Te  Te129  1  0.25776467  0.56887081  0.07116567  1
  Te  Te130  1  0.23064562  0.58020003  0.39842962  1
  Te  Te131  1  0.23538640  0.57760524  0.73752823  1
  Te  Te132  1  0.23216180  0.92227249  0.08862779  1
  Te  Te133  1  0.23491055  0.94675757  0.41900308  1
  Te  Te134  1  0.25259516  0.88326857  0.73496873  1
  Te  Te135  1  0.59355275  0.26275559  0.08781284  1
  Te  Te136  1  0.60359794  0.21941609  0.42339261  1
  Te  Te137  1  0.61006554  0.25261550  0.74082878  1
  Te  Te138  1  0.55438090  0.54754073  0.09701389  1
  Te  Te139  1  0.59094404  0.58396116  0.38954518  1
  Te  Te140  1  0.57907517  0.57286618  0.73952765  1
  Te  Te141  1  0.59433799  0.91350599  0.07197499  1
  Te  Te142  1  0.58240138  0.92764506  0.44183683  1
  Te  Te143  1  0.58246545  0.90859222  0.74041963  1
  Te  Te144  1  0.91338358  0.24458087  0.08096842  1
  Te  Te145  1  0.87776118  0.22894140  0.41896648  1
  Te  Te146  1  0.92914819  0.19414911  0.75563220  1
  Te  Te147  1  0.92380647  0.59603877  0.07731235  1
  Te  Te148  1  0.92280486  0.59717818  0.41284136  1
  Te  Te149  1  0.90919901  0.59436283  0.71350099  1
  Te  Te150  1  0.93785670  0.91403093  0.08223338  1
  Te  Te151  1  0.88295298  0.95843631  0.41809626  1
  Te  Te152  1  0.91783484  0.92628648  0.76109084  1
  Te  Te153  1  0.25755123  0.10039208  0.26614898  1
  Te  Te154  1  0.24431007  0.07413600  0.59601426  1
  Te  Te155  1  0.23401028  0.07803195  0.90991070  1
  Te  Te156  1  0.25578047  0.42075961  0.26375806  1
  Te  Te157  1  0.21822175  0.42661336  0.58282503  1
  Te  Te158  1  0.26048962  0.41086179  0.92074096  1
  Te  Te159  1  0.25727955  0.74130235  0.24630274  1
  Te  Te160  1  0.22680796  0.77600907  0.56830487  1
  Te  Te161  1  0.23803745  0.76417822  0.92645519  1
  Te  Te162  1  0.57631003  0.07504157  0.25263876  1
  Te  Te163  1  0.62066754  0.10207969  0.57404296  1
  Te  Te164  1  0.58356303  0.10483335  0.90611699  1
  Te  Te165  1  0.59398796  0.39915275  0.26447353  1
  Te  Te166  1  0.59756400  0.38606377  0.58389022  1
  Te  Te167  1  0.57882710  0.43186079  0.89702891  1
  Te  Te168  1  0.58476112  0.75362137  0.25251812  1
  Te  Te169  1  0.57717238  0.74093623  0.57224433  1
  Te  Te170  1  0.57792546  0.74223488  0.90029635  1
  Te  Te171  1  0.92207539  0.07356161  0.27986441  1
  Te  Te172  1  0.90992264  0.01210385  0.55916030  1
  Te  Te173  1  0.91862780  0.12299334  0.89320596  1
  Te  Te174  1  0.91085776  0.41143099  0.25042049  1
  Te  Te175  1  0.93016889  0.37765519  0.59481735  1
  Te  Te176  1  0.91024289  0.41064428  0.90688155  1
  Te  Te177  1  0.88151147  0.77867567  0.27934178  1
  Te  Te178  1  0.94950502  0.78510689  0.54491018  1
  Te  Te179  1  0.91940569  0.75270302  0.91478832  1
