# generated using pymatgen
data_In2Te3
_symmetry_space_group_name_H-M   'P 1'
_cell_length_a   18.79445052
_cell_length_b   18.78743524
_cell_length_c   18.79240414
_cell_angle_alpha   89.99569154
_cell_angle_beta   89.98646183
_cell_angle_gamma   89.98441884
_symmetry_Int_Tables_number   1
_chemical_formula_structural   In2Te3
_chemical_formula_sum   'In72 Te108'
_cell_volume   6635.58846982
_cell_formula_units_Z   36
loop_
 _symmetry_equiv_pos_site_id
 _symmetry_equiv_pos_as_xyz
  1  'x, y, z'
loop_
 _atom_site_type_symbol
 _atom_site_label
 _atom_site_symmetry_multiplicity
 _atom_site_fract_x
 _atom_site_fract_y
 _atom_site_fract_z
 _atom_site_occupancy
  In  In0  1  -0.03160295  0.53800701  0.80444315  1
  In  In1  1  0.31938832  0.83341665  0.84661795  1
  In  In2  1  0.83523407  0.52684170  -0.01449307  1
  In  In3  1  0.83729459  0.84990120  -0.01799027  1
  In  In4  1  0.66234254  0.82138662  0.18070734  1
  In  In5  1  0.32960865  0.31509009  0.32397125  1
  In  In6  1  0.11965873  0.52672481  0.31790543  1
  In  In7  1  0.01504075  0.69456938  0.02741298  1
  In  In8  1  0.34645123  -0.00134880  0.66790817  1
  In  In9  1  0.51073651  0.84184694  0.64092102  1
  In  In10  1  0.66877672  -0.00484685  -0.01246654  1
  In  In11  1  0.18949604  0.51704035  0.66862700  1
  In  In12  1  0.15765134  -0.00493114  0.82614385  1
  In  In13  1  0.31819912  0.67662648  0.65477278  1
  In  In14  1  0.15604794  0.83874053  0.31908645  1
  In  In15  1  0.66568065  0.68317320  0.34152985  1
  In  In16  1  0.17130140  0.67331745  0.50556985  1
  In  In17  1  0.52205393  0.01293851  0.21007842  1
  In  In18  1  0.47723995  0.82857604  0.00326522  1
  In  In19  1  0.34674644  0.49941789  0.51583470  1
  In  In20  1  0.51595249  0.14595178  0.64873847  1
  In  In21  1  0.34028093  0.50230140  0.15139395  1
  In  In22  1  0.66099427  0.83025282  0.78715912  1
  In  In23  1  0.01049342  0.51081088  0.50436407  1
  In  In24  1  0.49732819  0.68762069  0.50108029  1
  In  In25  1  0.31296104  -0.02901859  0.01193131  1
  In  In26  1  0.31558437  0.50736804  0.80501294  1
  In  In27  1  0.68321259  0.15695719  0.81405946  1
  In  In28  1  0.66385298  0.51577764  0.14901579  1
  In  In29  1  0.67712160  0.64426232  -0.00726728  1
  In  In30  1  0.32905826  0.33052275  0.66700531  1
  In  In31  1  0.84992162  0.13801097  -0.01262417  1
  In  In32  1  0.82442929  0.68375085  0.50606751  1
  In  In33  1  0.84047890  0.48869847  0.34510044  1
  In  In34  1  0.49867870  0.33532361  0.84370042  1
  In  In35  1  0.51598090  0.50812666  -0.00020747  1
  In  In36  1  -0.02526545  0.16779843  0.49918133  1
  In  In37  1  0.50476812  0.51536064  0.34325522  1
  In  In38  1  0.00527484  0.81178511  0.80718436  1
  In  In39  1  0.18229999  0.15854882  0.32717699  1
  In  In40  1  0.68570259  0.34940089  0.65720764  1
  In  In41  1  0.16903769  0.17405644  -0.01573668  1
  In  In42  1  0.83673595  0.32845910  0.82462953  1
  In  In43  1  0.35299487  0.00645968  0.34864132  1
  In  In44  1  0.16609184  0.32140349  0.17886238  1
  In  In45  1  0.50915022  0.67269148  0.83829866  1
  In  In46  1  0.83185706  0.33618634  0.18725321  1
  In  In47  1  0.00368687  0.15396754  0.16971849  1
  In  In48  1  0.49292164  0.17456513  0.00174744  1
  In  In49  1  0.68331998  0.31942018  0.33886280  1
  In  In50  1  0.00063100  -0.01576115  0.32414968  1
  In  In51  1  0.82513031  0.00444246  0.51134718  1
  In  In52  1  0.15992066  0.50480009  -0.01129890  1
  In  In53  1  0.48337577  0.32292549  0.18393420  1
  In  In54  1  0.32355335  0.68328632  0.34460736  1
  In  In55  1  0.81594710  -0.01741695  0.18321589  1
  In  In56  1  0.63864796  0.32737886  0.00766417  1
  In  In57  1  0.84200297  0.33467952  0.50916082  1
  In  In58  1  0.15834556  0.32352946  0.83073315  1
  In  In59  1  0.00494084  0.83201405  0.51424066  1
  In  In60  1  0.31961638  0.68194455  0.00859761  1
  In  In61  1  0.31993937  0.15157358  0.15731822  1
  In  In62  1  0.67267819  -0.00089950  0.64989773  1
  In  In63  1  0.02812669  0.33258517  -0.00502448  1
  In  In64  1  0.15976764  0.15960710  0.65862098  1
  In  In65  1  0.67005121  0.17745131  0.50012375  1
  In  In66  1  0.00181258  -0.01231343  0.00242399  1
  In  In67  1  0.15656493  -0.01870030  0.51834633  1
  In  In68  1  0.86041470  0.68847666  0.18351881  1
  In  In69  1  -0.00237768  0.32956843  0.66827472  1
  In  In70  1  0.52106778  0.32081398  0.52319921  1
  In  In71  1  0.67760018  0.66175262  0.66491250  1
  Te  Te72  1  0.10080774  0.07712465  0.08028762  1
  Te  Te73  1  0.08252174  0.07582139  0.41848685  1
  Te  Te74  1  0.06791121  0.07110665  0.73463123  1
  Te  Te75  1  0.08579144  0.42587555  0.10023892  1
  Te  Te76  1  0.08161559  0.42039607  0.41133967  1
  Te  Te77  1  0.08524907  0.43412836  0.75353818  1
  Te  Te78  1  0.10798748  0.77981788  0.11105879  1
  Te  Te79  1  0.07448806  0.74289738  0.41084148  1
  Te  Te80  1  0.09557108  0.71905401  0.73531678  1
  Te  Te81  1  0.41968033  0.06336741  0.08120680  1
  Te  Te82  1  0.44340446  0.08423242  0.43478656  1
  Te  Te83  1  0.42589903  0.09218008  0.75186883  1
  Te  Te84  1  0.42507064  0.40565664  0.06860216  1
  Te  Te85  1  0.42164346  0.40884780  0.41584308  1
  Te  Te86  1  0.42560033  0.42298912  0.73947106  1
  Te  Te87  1  0.39670561  0.76284344  0.10715917  1
  Te  Te88  1  0.43171226  0.77188384  0.39641884  1
  Te  Te89  1  0.42067167  0.75981634  0.74825200  1
  Te  Te90  1  0.74818625  0.08089257  0.08556294  1
  Te  Te91  1  0.73680829  0.07708531  0.40919291  1
  Te  Te92  1  0.77159667  0.07281056  0.73314276  1
  Te  Te93  1  0.75336522  0.41787151  0.07272967  1
  Te  Te94  1  0.73696523  0.42178381  0.43600857  1
  Te  Te95  1  0.76608817  0.43299134  0.74933762  1
  Te  Te96  1  0.75670445  0.74911738  0.07885801  1
  Te  Te97  1  0.76863279  0.77426533  0.39857120  1
  Te  Te98  1  0.77478113  0.73932437  0.75290594  1
  Te  Te99  1  0.06996866  0.24836189  0.27054652  1
  Te  Te100  1  0.08298880  0.25547559  0.56662984  1
  Te  Te101  1  0.05855579  0.22341991  0.89144788  1
  Te  Te102  1  0.03810914  0.62290444  0.24130487  1
  Te  Te103  1  0.07770193  0.60785373  0.60692166  1
  Te  Te104  1  0.05974949  0.59281738  0.91702635  1
  Te  Te105  1  0.07898203  0.91705954  0.21573485  1
  Te  Te106  1  0.06806355  0.91731519  0.61919455  1
  Te  Te107  1  0.08569959  0.89535539  0.91622362  1
  Te  Te108  1  0.41790992  0.20784678  0.26016348  1
  Te  Te109  1  0.40927896  0.23511375  0.57913849  1
  Te  Te110  1  0.40155032  0.25282680  0.91667224  1
  Te  Te111  1  0.41376184  0.59176681  0.25073839  1
  Te  Te112  1  0.43232324  0.59022789  0.60150271  1
  Te  Te113  1  0.40350532  0.58285699  0.91660893  1
  Te  Te114  1  0.41578587  0.91943370  0.24609923  1
  Te  Te115  1  0.40581129  0.91200208  0.55684919  1
  Te  Te116  1  0.42077762  0.93016728  0.90605223  1
  Te  Te117  1  0.74792352  0.22951814  0.24189030  1
  Te  Te118  1  0.76847271  0.23405311  0.59964559  1
  Te  Te119  1  0.74584047  0.24662960  0.93068814  1
  Te  Te120  1  0.75487576  0.58646793  0.24855493  1
  Te  Te121  1  0.75713305  0.57247850  0.57692074  1
  Te  Te122  1  0.75148159  0.58468809  0.87948756  1
  Te  Te123  1  0.74123905  0.89910405  0.28260750  1
  Te  Te124  1  0.75857905  0.89595808  0.58929512  1
  Te  Te125  1  0.74822019  0.92198168  0.88031696  1
  Te  Te126  1  0.25790910  0.26259505  0.07250168  1
  Te  Te127  1  0.25325937  0.24177680  0.42540739  1
  Te  Te128  1  0.25498235  0.23199690  0.75676055  1
  Te  Te129  1  0.22924346  0.59016650  0.09450807  1
  Te  Te130  1  0.24824167  0.56977762  0.42037504  1
  Te  Te131  1  0.22370790  0.63026875  0.77359336  1
  Te  Te132  1  0.23837134  0.86125664  0.07803454  1
  Te  Te133  1  0.24646565  0.91365496  0.41551714  1
  Te  Te134  1  0.24413642  0.90565901  0.73556770  1
  Te  Te135  1  0.58402314  0.23059286  0.11181336  1
  Te  Te136  1  0.56891454  0.24202137  0.40278373  1
  Te  Te137  1  0.58590655  0.25396051  0.74291378  1
  Te  Te138  1  0.56378272  0.61720396  0.09523819  1
  Te  Te139  1  0.59741540  0.58634279  0.43826415  1
  Te  Te140  1  0.58411587  0.58222521  0.75050970  1
  Te  Te141  1  0.58239567  0.91850054  0.08718772  1
  Te  Te142  1  0.54333427  0.90682107  0.47937111  1
  Te  Te143  1  0.56602579  0.94112692  0.74428244  1
  Te  Te144  1  0.92384026  0.24839686  0.07509469  1
  Te  Te145  1  0.89761308  0.24905656  0.40337137  1
  Te  Te146  1  0.91923030  0.23374244  0.74803800  1
  Te  Te147  1  0.92483445  0.58107023  0.09378358  1
  Te  Te148  1  0.91836169  0.59651691  0.41823827  1
  Te  Te149  1  0.89938314  0.63613853  0.71617518  1
  Te  Te150  1  0.91719968  0.90346087  0.09987800  1
  Te  Te151  1  0.91178671  0.91018165  0.42148008  1
  Te  Te152  1  0.90813754  0.92149285  0.79255357  1
  Te  Te153  1  0.24325170  0.05139743  0.23965278  1
  Te  Te154  1  0.25836765  0.08158591  0.57195271  1
  Te  Te155  1  0.25811646  0.07384771  0.91161930  1
  Te  Te156  1  0.24985740  0.42744329  0.25405544  1
  Te  Te157  1  0.23710806  0.40788682  0.57228042  1
  Te  Te158  1  0.25345202  0.41330879  0.91081513  1
  Te  Te159  1  0.23426585  0.73793362  0.23990644  1
  Te  Te160  1  0.25974196  0.77624146  0.56378410  1
  Te  Te161  1  0.21967150  0.76064772  0.93005225  1
  Te  Te162  1  0.62950775  0.06535903  0.29261601  1
  Te  Te163  1  0.56310321  0.04915742  0.53082014  1
  Te  Te164  1  0.58138241  0.09069045  0.90697605  1
  Te  Te165  1  0.58806633  0.42142773  0.24526992  1
  Te  Te166  1  0.58166302  0.43349180  0.59274628  1
  Te  Te167  1  0.60388936  0.43209656  0.90170288  1
  Te  Te168  1  0.56000544  0.76118862  0.27194168  1
  Te  Te169  1  0.61640428  0.76462247  0.56277589  1
  Te  Te170  1  0.59756021  0.76601023  0.92211979  1
  Te  Te171  1  0.90316755  0.08386767  0.26042095  1
  Te  Te172  1  0.93582116  0.06130210  0.59355997  1
  Te  Te173  1  0.91717420  0.04567405  0.88937735  1
  Te  Te174  1  0.93271115  0.41840339  0.25339766  1
  Te  Te175  1  0.91435659  0.43595459  0.59772216  1
  Te  Te176  1  0.92998050  0.41943162  0.91550149  1
  Te  Te177  1  0.96186375  0.75515551  0.26700139  1
  Te  Te178  1  0.91599483  0.75101961  0.60771791  1
  Te  Te179  1  0.91780697  0.73927076  0.91842998  1
