# generated using pymatgen
data_In2Te3
_symmetry_space_group_name_H-M   'P 1'
_cell_length_a   18.93494016
_cell_length_b   18.90852767
_cell_length_c   18.92418273
_cell_angle_alpha   89.91499286
_cell_angle_beta   90.12786188
_cell_angle_gamma   89.93571838
_symmetry_Int_Tables_number   1
_chemical_formula_structural   In2Te3
_chemical_formula_sum   'In72 Te108'
_cell_volume   6775.43134247
_cell_formula_units_Z   36
loop_
 _symmetry_equiv_pos_site_id
 _symmetry_equiv_pos_as_xyz
  1  'x, y, z'
loop_
 _atom_site_type_symbol
 _atom_site_label
 _atom_site_symmetry_multiplicity
 _atom_site_fract_x
 _atom_site_fract_y
 _atom_site_fract_z
 _atom_site_occupancy
  In  In0  1  0.20479552  -0.02828650  0.15781494  1
  In  In1  1  0.79433707  0.02285291  0.50852597  1
  In  In2  1  0.18769632  0.66357118  0.81484049  1
  In  In3  1  0.81514843  -0.01856475  0.18021755  1
  In  In4  1  0.62288947  0.52172894  0.13928039  1
  In  In5  1  0.51381538  0.33787450  0.83124176  1
  In  In6  1  0.37591027  0.83392602  0.08039984  1
  In  In7  1  0.19036234  0.51956517  -0.01480684  1
  In  In8  1  0.48418549  0.35971201  0.15266422  1
  In  In9  1  0.15349989  0.37703169  0.78312378  1
  In  In10  1  0.00231806  0.67299765  -0.01682982  1
  In  In11  1  0.35102700  0.17583134  0.81806562  1
  In  In12  1  0.16031252  0.34543920  0.53169449  1
  In  In13  1  0.51391506  0.15429712  0.35314521  1
  In  In14  1  0.82574612  0.51915374  0.34748615  1
  In  In15  1  0.80327509  0.32905072  0.21020610  1
  In  In16  1  -0.02117212  0.13713728  0.16244480  1
  In  In17  1  0.00000189  0.35168015  -0.01516007  1
  In  In18  1  0.80600911  0.52884913  -0.00855971  1
  In  In19  1  0.14755104  0.13219599  0.33457543  1
  In  In20  1  0.31393412  0.34596504  0.34589861  1
  In  In21  1  0.02598149  -0.01455211  -0.01510533  1
  In  In22  1  0.82964889  0.16154632  0.67242209  1
  In  In23  1  0.66409625  0.81607053  0.15522903  1
  In  In24  1  0.49898766  0.01031049  0.15835164  1
  In  In25  1  0.18930090  0.32266129  0.19146006  1
  In  In26  1  0.18428024  0.18546486  -0.00690691  1
  In  In27  1  0.69048589  -0.01452499  -0.02238241  1
  In  In28  1  0.50653221  0.68672802  0.83932702  1
  In  In29  1  0.50154967  0.50303175  0.34003516  1
  In  In30  1  -0.00477222  0.31221882  0.36767320  1
  In  In31  1  0.35086170  -0.01412206  0.31269063  1
  In  In32  1  0.81995474  0.17843572  0.02030536  1
  In  In33  1  0.48443543  0.51002108  0.64489587  1
  In  In34  1  0.32107624  0.18063033  0.51886432  1
  In  In35  1  0.16037287  -0.01194572  0.82333154  1
  In  In36  1  0.00943441  0.48729888  0.16582756  1
  In  In37  1  0.51571249  0.84864592  0.68435790  1
  In  In38  1  -0.01502470  0.67046488  0.34912426  1
  In  In39  1  0.83636677  0.84755880  -0.03535807  1
  In  In40  1  0.65795284  0.68500650  0.68263298  1
  In  In41  1  0.84219901  -0.01282753  0.81749358  1
  In  In42  1  0.84531628  0.35253990  0.52349110  1
  In  In43  1  0.65305455  0.67191193  0.33814344  1
  In  In44  1  0.83557206  0.34343695  0.84299865  1
  In  In45  1  0.67217054  0.50518029  0.85920961  1
  In  In46  1  0.65640539  0.31440888  0.35751604  1
  In  In47  1  0.49787989  0.14059517  0.65894688  1
  In  In48  1  0.15020493  0.81315210  0.32956796  1
  In  In49  1  0.01655260  0.81676074  0.15599804  1
  In  In50  1  0.82210990  0.66733407  0.53902420  1
  In  In51  1  0.35523232  0.67781781  0.32670092  1
  In  In52  1  0.33549137  0.50660832  0.81378151  1
  In  In53  1  -0.00178817  -0.01824937  0.36646430  1
  In  In54  1  0.33429298  0.51609646  0.49074889  1
  In  In55  1  0.14359691  0.16993081  0.67740165  1
  In  In56  1  0.37016336  0.17988074  0.15943946  1
  In  In57  1  0.51678680  0.15884408  -0.00837952  1
  In  In58  1  0.67806352  0.84122382  0.50328305  1
  In  In59  1  0.64090437  0.33685665  0.66214564  1
  In  In60  1  -0.02623573  0.15947324  0.83462052  1
  In  In61  1  0.19025110  0.82106072  0.65722638  1
  In  In62  1  0.51888810  -0.01424517  0.49691427  1
  In  In63  1  0.66337898  0.32273593  0.01640249  1
  In  In64  1  -0.01274194  0.82735124  0.52121965  1
  In  In65  1  0.19221194  0.64334718  0.15733753  1
  In  In66  1  0.83670994  0.68514174  0.18421639  1
  In  In67  1  0.16476654  0.47547847  0.34108803  1
  In  In68  1  0.34788398  0.82786439  0.50258765  1
  In  In69  1  0.17123123  0.00681000  0.50328711  1
  In  In70  1  0.01135656  0.64473429  0.64906435  1
  In  In71  1  0.35952453  0.82130305  0.84834492  1
  Te  Te72  1  0.09526283  0.08957200  0.07588706  1
  Te  Te73  1  0.05737978  0.09543825  0.44917190  1
  Te  Te74  1  0.05384791  0.06700217  0.74634449  1
  Te  Te75  1  0.10935143  0.41501993  0.07808188  1
  Te  Te76  1  0.06171867  0.42768494  0.43877752  1
  Te  Te77  1  0.05140661  0.45098572  0.70256595  1
  Te  Te78  1  0.11053509  0.73917245  0.06775166  1
  Te  Te79  1  0.08405204  0.73785350  0.44357124  1
  Te  Te80  1  0.08465790  0.74391913  0.73654898  1
  Te  Te81  1  0.40340171  0.07626594  0.05766417  1
  Te  Te82  1  0.39283037  0.07873545  0.42389403  1
  Te  Te83  1  0.42918608  0.06336788  0.76501270  1
  Te  Te84  1  0.39702023  0.45687956  0.08960167  1
  Te  Te85  1  0.42322242  0.40661496  0.42933681  1
  Te  Te86  1  0.41756925  0.40430299  0.73638585  1
  Te  Te87  1  0.47183769  0.71970837  0.06763089  1
  Te  Te88  1  0.43823327  0.77157542  0.40306867  1
  Te  Te89  1  0.41600236  0.74284386  0.73001783  1
  Te  Te90  1  0.73454557  0.07971813  0.09469847  1
  Te  Te91  1  0.75945144  0.12685828  0.40829753  1
  Te  Te92  1  0.74784256  0.08721521  0.77001683  1
  Te  Te93  1  0.76987956  0.40787171  0.08311683  1
  Te  Te94  1  0.74557213  0.42117274  0.42743754  1
  Te  Te95  1  0.73679623  0.41592841  0.75477953  1
  Te  Te96  1  0.77058980  0.75232799  0.06466021  1
  Te  Te97  1  0.75987492  0.74077441  0.42025749  1
  Te  Te98  1  0.74272124  0.75465223  0.78076131  1
  Te  Te99  1  0.07121391  0.24204487  0.24869038  1
  Te  Te100  1  0.06154953  0.25468648  0.58940272  1
  Te  Te101  1  0.07961487  0.25136829  0.90264222  1
  Te  Te102  1  0.07666470  0.59481421  0.25333978  1
  Te  Te103  1  0.12402150  0.55487660  0.60966714  1
  Te  Te104  1  0.08409690  0.57850504  0.89620486  1
  Te  Te105  1  0.08332231  0.93245907  0.24134768  1
  Te  Te106  1  0.08837474  0.91611217  0.59203330  1
  Te  Te107  1  0.08192577  0.88533332  0.89576558  1
  Te  Te108  1  0.42453319  0.26575698  0.27140663  1
  Te  Te109  1  0.42233766  0.25115494  0.59573014  1
  Te  Te110  1  0.42332393  0.25868410  0.92449386  1
  Te  Te111  1  0.44470307  0.59632299  0.23933924  1
  Te  Te112  1  0.42369348  0.61240607  0.55719982  1
  Te  Te113  1  0.41843964  0.58546798  0.90542142  1
  Te  Te114  1  0.42063507  0.89446215  0.21935143  1
  Te  Te115  1  0.41705082  0.92750062  0.59167809  1
  Te  Te116  1  0.40793661  0.91148496  0.95702416  1
  Te  Te117  1  0.73645694  0.21319543  0.27523844  1
  Te  Te118  1  0.74561583  0.25544575  0.58652363  1
  Te  Te119  1  0.73929356  0.24518856  0.91058169  1
  Te  Te120  1  0.74395089  0.57351169  0.23015117  1
  Te  Te121  1  0.73917803  0.57633900  0.62087888  1
  Te  Te122  1  0.76040936  0.62338693  0.88547179  1
  Te  Te123  1  0.72987134  0.89587695  0.26248019  1
  Te  Te124  1  0.71556152  0.94030379  0.60802293  1
  Te  Te125  1  0.69698136  0.87693269  0.86318956  1
  Te  Te126  1  0.27736192  0.27027072  0.07840905  1
  Te  Te127  1  0.22131759  0.24620786  0.41448924  1
  Te  Te128  1  0.24413723  0.26224333  0.74373030  1
  Te  Te129  1  0.29835504  0.57883837  0.07191305  1
  Te  Te130  1  0.24413182  0.59167257  0.39427071  1
  Te  Te131  1  0.24623381  0.57221081  0.71016627  1
  Te  Te132  1  0.24852765  0.90576694  0.03675491  1
  Te  Te133  1  0.23834114  0.91752855  0.39872141  1
  Te  Te134  1  0.26774766  0.90663902  0.75494840  1
  Te  Te135  1  0.57527767  0.23996040  0.10613411  1
  Te  Te136  1  0.57431823  0.24099306  0.45430126  1
  Te  Te137  1  0.58502344  0.23055043  0.75457413  1
  Te  Te138  1  0.59398091  0.62323481  0.03541172  1
  Te  Te139  1  0.59300057  0.57550060  0.42974016  1
  Te  Te140  1  0.57261718  0.56904832  0.75874525  1
  Te  Te141  1  0.59057505  0.92181466  0.07321156  1
  Te  Te142  1  0.59971029  0.91346833  0.39823442  1
  Te  Te143  1  0.56461825  0.93028186  0.79748305  1
  Te  Te144  1  0.92782773  0.26198390  0.08779255  1
  Te  Te145  1  0.87992958  0.24041225  0.42495651  1
  Te  Te146  1  0.92193077  0.26813400  0.74452819  1
  Te  Te147  1  0.92330792  0.58915946  0.09219024  1
  Te  Te148  1  0.91722645  0.58169005  0.45100046  1
  Te  Te149  1  0.89488775  0.57410869  0.70673508  1
  Te  Te150  1  0.92099993  0.91313444  0.08262812  1
  Te  Te151  1  0.89021882  0.91411701  0.44315969  1
  Te  Te152  1  0.90223201  0.87908584  0.74162530  1
  Te  Te153  1  0.25940362  0.09898201  0.23634668  1
  Te  Te154  1  0.24930316  0.08197785  0.60929356  1
  Te  Te155  1  0.24847033  0.08948372  0.89723045  1
  Te  Te156  1  0.27129133  0.44283681  0.23689252  1
  Te  Te157  1  0.26230143  0.43180193  0.59201303  1
  Te  Te158  1  0.24786624  0.40948625  0.89780161  1
  Te  Te159  1  0.25441433  0.75804689  0.23581064  1
  Te  Te160  1  0.25702985  0.73080877  0.56271026  1
  Te  Te161  1  0.27704824  0.71948577  0.91742201  1
  Te  Te162  1  0.58501427  0.05972519  0.26731554  1
  Te  Te163  1  0.60662997  0.06271415  0.58917519  1
  Te  Te164  1  0.58605558  0.06372248  0.90114512  1
  Te  Te165  1  0.59688333  0.41101692  0.24456260  1
  Te  Te166  1  0.57715319  0.42685685  0.56503407  1
  Te  Te167  1  0.57518293  0.42122211  0.94323925  1
  Te  Te168  1  0.56970222  0.72438603  0.22779050  1
  Te  Te169  1  0.57595987  0.75683773  0.57766306  1
  Te  Te170  1  0.57082026  0.75742403  0.95474546  1
  Te  Te171  1  0.90659394  0.06589672  0.27124325  1
  Te  Te172  1  0.90771982  0.06852852  0.59057630  1
  Te  Te173  1  0.90282077  0.07554675  0.94071613  1
  Te  Te174  1  0.92072242  0.41594926  0.26652642  1
  Te  Te175  1  0.91583434  0.44759547  0.61717086  1
  Te  Te176  1  0.91697987  0.45309247  0.91012562  1
  Te  Te177  1  0.91945969  0.78095409  0.26850196  1
  Te  Te178  1  0.88503116  0.77874729  0.62311526  1
  Te  Te179  1  0.92736677  0.75955293  0.88869894  1
