# generated using pymatgen
data_In2Te3
_symmetry_space_group_name_H-M   'P 1'
_cell_length_a   18.93755621
_cell_length_b   18.94052279
_cell_length_c   18.91075254
_cell_angle_alpha   89.81298621
_cell_angle_beta   89.89055332
_cell_angle_gamma   90.03664274
_symmetry_Int_Tables_number   1
_chemical_formula_structural   In2Te3
_chemical_formula_sum   'In72 Te108'
_cell_volume   6782.99524127
_cell_formula_units_Z   36
loop_
 _symmetry_equiv_pos_site_id
 _symmetry_equiv_pos_as_xyz
  1  'x, y, z'
loop_
 _atom_site_type_symbol
 _atom_site_label
 _atom_site_symmetry_multiplicity
 _atom_site_fract_x
 _atom_site_fract_y
 _atom_site_fract_z
 _atom_site_occupancy
  In  In0  1  0.01033271  0.82248966  0.16256878  1
  In  In1  1  0.67765892  0.16170389  0.52350556  1
  In  In2  1  0.32452956  0.00531751  0.31062085  1
  In  In3  1  0.17438357  0.49787813  0.63764179  1
  In  In4  1  0.84161310  0.67560531  0.50880348  1
  In  In5  1  0.66825625  -0.00736668  0.33686204  1
  In  In6  1  0.50111657  0.82248791  0.65868526  1
  In  In7  1  0.67653904  0.65640845  0.67656190  1
  In  In8  1  0.32892004  0.35422670  0.64620062  1
  In  In9  1  0.67089076  0.83146117  0.16737908  1
  In  In10  1  0.65786234  0.35233675  0.33533195  1
  In  In11  1  0.83203955  0.82417944  0.02762047  1
  In  In12  1  0.48580647  0.33761705  0.49032660  1
  In  In13  1  0.00844446  0.00177334  0.64618516  1
  In  In14  1  0.64263253  0.21134666  0.11798701  1
  In  In15  1  0.51099545  0.50700895  0.31280860  1
  In  In16  1  0.79934192  0.63539094  0.86763158  1
  In  In17  1  0.85002061  0.45450525  0.34017204  1
  In  In18  1  0.00904312  0.32065791  0.64358873  1
  In  In19  1  0.66464698  0.33364423  0.69229197  1
  In  In20  1  0.51143236  -0.00149920  0.85005796  1
  In  In21  1  0.07017744  0.00711169  0.46713929  1
  In  In22  1  0.19280811  -0.02311101  0.84832308  1
  In  In23  1  0.18547380  0.63891305  0.46037625  1
  In  In24  1  0.15020139  0.34476263  0.83002774  1
  In  In25  1  0.50812665  0.34101106  0.88707276  1
  In  In26  1  0.81168830  0.16218021  0.70672071  1
  In  In27  1  -0.00107795  0.53855070  0.91946827  1
  In  In28  1  0.49391405  0.51098069  0.00340097  1
  In  In29  1  0.14454499  0.16199730  0.64652980  1
  In  In30  1  0.83093959  -0.00363370  0.85579046  1
  In  In31  1  0.00207486  0.18035036  0.81391943  1
  In  In32  1  0.29741881  0.34294606  0.01236586  1
  In  In33  1  0.31837757  0.01164430  0.67569748  1
  In  In34  1  0.00524661  0.34101941  0.00339858  1
  In  In35  1  0.85131408  0.20455646  0.33185528  1
  In  In36  1  0.34263370  0.78375888  0.12772536  1
  In  In37  1  0.49773757  -0.00349715  0.16874831  1
  In  In38  1  0.83321971  0.34969849  0.16213545  1
  In  In39  1  0.82542698  0.81731415  0.66538485  1
  In  In40  1  -0.00795608  0.82228793  0.83573141  1
  In  In41  1  0.86765441  0.02004652  0.50601740  1
  In  In42  1  0.18136235  0.00377016  0.15719853  1
  In  In43  1  0.33879599  0.63827660  0.65614360  1
  In  In44  1  0.18091595  0.83166970  0.31503246  1
  In  In45  1  0.01216434  0.19930115  0.18759284  1
  In  In46  1  0.83373951  0.49136503  0.67212375  1
  In  In47  1  0.31960335  0.47368073  0.84105444  1
  In  In48  1  0.23110282  0.20848050  0.46633512  1
  In  In49  1  0.16461025  0.66584846  0.15239623  1
  In  In50  1  0.34284697  0.81303739  0.50785472  1
  In  In51  1  0.49596858  0.21513892  0.67099153  1
  In  In52  1  0.51857491  0.01490398  0.48847228  1
  In  In53  1  0.01001959  0.66199902  0.31752035  1
  In  In54  1  0.66705356  -0.00203965  0.01890874  1
  In  In55  1  0.49634545  0.17669000  0.31005370  1
  In  In56  1  0.85320958  0.62837888  0.16040795  1
  In  In57  1  0.29914590  0.18976632  0.18590383  1
  In  In58  1  0.48713892  0.82598294  0.34621902  1
  In  In59  1  -0.00291856  0.67421479  0.67725999  1
  In  In60  1  0.81859474  0.03969299  0.16380103  1
  In  In61  1  0.01336306  0.00749910  -0.00964603  1
  In  In62  1  0.02759755  0.47522494  0.46608712  1
  In  In63  1  0.65702372  0.50508504  0.13908646  1
  In  In64  1  0.68515468  0.66430005  0.33909991  1
  In  In65  1  0.31825234  0.17546419  0.84141186  1
  In  In66  1  0.31421832  0.50400385  0.18573887  1
  In  In67  1  0.51160037  0.64361153  0.51498677  1
  In  In68  1  0.67595827  -0.02834686  0.67634842  1
  In  In69  1  0.34031915  -0.01442288  0.01882958  1
  In  In70  1  0.31404222  0.79488752  0.85917729  1
  In  In71  1  0.53205808  0.66548095  0.84785787  1
  Te  Te72  1  0.08083068  0.09622715  0.09174011  1
  Te  Te73  1  0.05702895  0.14887901  0.42458515  1
  Te  Te74  1  0.09951356  0.06648616  0.76521579  1
  Te  Te75  1  0.04216208  0.44194241  0.10642887  1
  Te  Te76  1  0.12288607  0.44811736  0.35532905  1
  Te  Te77  1  0.07467181  0.42908965  0.73069284  1
  Te  Te78  1  0.06140215  0.72761250  0.06358470  1
  Te  Te79  1  0.09297832  0.75018314  0.40886828  1
  Te  Te80  1  0.09402962  0.75009888  0.75746896  1
  Te  Te81  1  0.39720433  0.09177590  0.11066334  1
  Te  Te82  1  0.41577716  0.08604531  0.40247038  1
  Te  Te83  1  0.41695841  0.09144868  0.75986716  1
  Te  Te84  1  0.40173871  0.42278621  0.08687573  1
  Te  Te85  1  0.41395050  0.42973225  0.39758815  1
  Te  Te86  1  0.41560446  0.38535886  0.76533548  1
  Te  Te87  1  0.45233283  0.72971208  0.04435373  1
  Te  Te88  1  0.41484598  0.71397966  0.41924446  1
  Te  Te89  1  0.41304981  0.73781469  0.74847943  1
  Te  Te90  1  0.74925074  0.12214869  0.05588157  1
  Te  Te91  1  0.75751280  0.09067208  0.41330984  1
  Te  Te92  1  0.71662209  0.06833841  0.78567408  1
  Te  Te93  1  0.75691254  0.42575114  0.05920966  1
  Te  Te94  1  0.75858240  0.38848385  0.43418848  1
  Te  Te95  1  0.73381448  0.44034791  0.76786316  1
  Te  Te96  1  0.74625958  0.71972238  0.09615371  1
  Te  Te97  1  0.77100897  0.75860562  0.41064045  1
  Te  Te98  1  0.74667029  0.74886907  0.77383084  1
  Te  Te99  1  0.06751560  0.26062772  0.31273163  1
  Te  Te100  1  0.12712221  0.28203369  0.55342504  1
  Te  Te101  1  0.09142937  0.23940708  0.92036682  1
  Te  Te102  1  0.10643013  0.56855477  0.25335699  1
  Te  Te103  1  0.07320269  0.58894669  0.56603100  1
  Te  Te104  1  0.09998810  0.64496782  0.91442985  1
  Te  Te105  1  0.08296903  0.92460758  0.24594168  1
  Te  Te106  1  0.11158487  0.92254483  0.58056075  1
  Te  Te107  1  0.09180655  0.89483950  0.92770607  1
  Te  Te108  1  0.41642520  0.27135892  0.23220131  1
  Te  Te109  1  0.38977665  0.23735838  0.56737491  1
  Te  Te110  1  0.39659834  0.24784827  0.94596714  1
  Te  Te111  1  0.42650575  0.59436377  0.22776782  1
  Te  Te112  1  0.43445811  0.54623638  0.59461999  1
  Te  Te113  1  0.41035867  0.57955356  0.89718430  1
  Te  Te114  1  0.40432890  0.89471465  0.23668640  1
  Te  Te115  1  0.42155580  0.92921701  0.58148993  1
  Te  Te116  1  0.40941479  0.90349911  0.91247541  1
  Te  Te117  1  0.73637609  0.25093305  0.24072379  1
  Te  Te118  1  0.76265697  0.25893212  0.59800880  1
  Te  Te119  1  0.79330335  0.23674913  0.83410753  1
  Te  Te120  1  0.75567252  0.55190549  0.25389493  1
  Te  Te121  1  0.75048539  0.57309496  0.57341842  1
  Te  Te122  1  0.71692425  0.55522970  0.96259382  1
  Te  Te123  1  0.76624981  0.92089735  0.24647399  1
  Te  Te124  1  0.76543817  0.91982517  0.56894962  1
  Te  Te125  1  0.74178638  0.89937945  0.93063981  1
  Te  Te126  1  0.20647755  0.27717336  0.10969424  1
  Te  Te127  1  0.28685893  0.28136282  0.34970836  1
  Te  Te128  1  0.23840099  0.25308535  0.73734890  1
  Te  Te129  1  0.26061629  0.58600219  0.07006593  1
  Te  Te130  1  0.28624000  0.53953881  0.42181403  1
  Te  Te131  1  0.24083675  0.57130839  0.75197430  1
  Te  Te132  1  0.24134301  0.88672374  0.07910770  1
  Te  Te133  1  0.26712083  0.90813856  0.41470543  1
  Te  Te134  1  0.26130695  0.89019517  0.74489093  1
  Te  Te135  1  0.58848961  0.29859233  0.01410884  1
  Te  Te136  1  0.58794411  0.23469093  0.42322846  1
  Te  Te137  1  0.58281510  0.24508640  0.78711057  1
  Te  Te138  1  0.54901743  0.60698674  0.10657719  1
  Te  Te139  1  0.60200254  0.56526638  0.41962754  1
  Te  Te140  1  0.57758136  0.57219563  0.74496354  1
  Te  Te141  1  0.56658591  0.89736825  0.07843303  1
  Te  Te142  1  0.59325555  0.89753350  0.42885217  1
  Te  Te143  1  0.58294262  0.89154096  0.76614726  1
  Te  Te144  1  0.91300657  0.24754472  0.08284593  1
  Te  Te145  1  0.95143876  0.27066219  0.41779150  1
  Te  Te146  1  0.91417133  0.29689508  0.76683729  1
  Te  Te147  1  0.94078889  0.55681018  0.06275309  1
  Te  Te148  1  0.91893484  0.57843711  0.40989563  1
  Te  Te149  1  0.90790852  0.58874765  0.76404057  1
  Te  Te150  1  0.91488127  0.93840789  0.08726447  1
  Te  Te151  1  0.95003751  0.93596351  0.41913996  1
  Te  Te152  1  0.91002194  0.92609639  0.74563009  1
  Te  Te153  1  0.21197950  0.09661576  0.27375336  1
  Te  Te154  1  0.24617583  0.08452109  0.56384943  1
  Te  Te155  1  0.24875229  0.08261224  0.94066621  1
  Te  Te156  1  0.23502244  0.39205443  0.25030364  1
  Te  Te157  1  0.26304982  0.43323575  0.53533494  1
  Te  Te158  1  0.20478806  0.43863489  0.93569882  1
  Te  Te159  1  0.26750199  0.72778194  0.24950704  1
  Te  Te160  1  0.24200869  0.72474550  0.57643057  1
  Te  Te161  1  0.24301084  0.69894610  0.94667699  1
  Te  Te162  1  0.60020969  0.08489198  0.23635363  1
  Te  Te163  1  0.57964577  0.08319503  0.61095781  1
  Te  Te164  1  0.56384458  0.08300722  0.95655215  1
  Te  Te165  1  0.57578383  0.40342839  0.22069867  1
  Te  Te166  1  0.57408155  0.39797363  0.59041763  1
  Te  Te167  1  0.60383331  0.46022721  0.91084359  1
  Te  Te168  1  0.58327223  0.74664394  0.25927740  1
  Te  Te169  1  0.60362208  0.74799469  0.57741357  1
  Te  Te170  1  0.58111143  0.74467413  0.95888114  1
  Te  Te171  1  0.92328460  0.09246154  0.25841886  1
  Te  Te172  1  0.92291980  0.11936751  0.60530293  1
  Te  Te173  1  0.91940726  0.10187400  0.91800260  1
  Te  Te174  1  0.94680631  0.41955243  0.23099915  1
  Te  Te175  1  0.92587746  0.42312744  0.56862054  1
  Te  Te176  1  0.92079335  0.41592367  0.90703617  1
  Te  Te177  1  0.90742217  0.74664888  0.24415295  1
  Te  Te178  1  0.93928358  0.77211821  0.57618551  1
  Te  Te179  1  0.90054376  0.73852627  0.92352819  1
