# generated using pymatgen
data_In2Te3
_symmetry_space_group_name_H-M   'P 1'
_cell_length_a   19.04684056
_cell_length_b   19.05520404
_cell_length_c   19.02435726
_cell_angle_alpha   89.90656627
_cell_angle_beta   89.92897970
_cell_angle_gamma   89.88350643
_symmetry_Int_Tables_number   1
_chemical_formula_structural   In2Te3
_chemical_formula_sum   'In72 Te108'
_cell_volume   6904.69876145
_cell_formula_units_Z   36
loop_
 _symmetry_equiv_pos_site_id
 _symmetry_equiv_pos_as_xyz
  1  'x, y, z'
loop_
 _atom_site_type_symbol
 _atom_site_label
 _atom_site_symmetry_multiplicity
 _atom_site_fract_x
 _atom_site_fract_y
 _atom_site_fract_z
 _atom_site_occupancy
  In  In0  1  0.34386248  0.63834149  -0.01926386  1
  In  In1  1  0.83072661  0.01157577  0.84210565  1
  In  In2  1  0.18577755  0.02638814  0.17898397  1
  In  In3  1  0.83219844  0.48693813  0.65459780  1
  In  In4  1  0.16330945  -0.00534630  0.50665482  1
  In  In5  1  -0.01979623  0.82256386  0.81551107  1
  In  In6  1  0.67424075  0.67478649  0.33644982  1
  In  In7  1  0.31943778  0.62910043  0.34221713  1
  In  In8  1  0.18508330  0.35265140  0.83882075  1
  In  In9  1  0.16672899  0.79755846  0.33096942  1
  In  In10  1  0.84446847  0.16810424  0.65620455  1
  In  In11  1  0.51474747  0.00545574  0.18349816  1
  In  In12  1  0.52498282  -0.02251543  0.81930093  1
  In  In13  1  0.46589093  0.35030348  0.84708181  1
  In  In14  1  0.50385877  0.18275855  0.66815391  1
  In  In15  1  0.16975619  0.84037585  0.66958339  1
  In  In16  1  0.84659477  0.33592384  0.50026587  1
  In  In17  1  0.01303654  0.64000998  0.66427675  1
  In  In18  1  0.68968137  0.00351944  0.67596642  1
  In  In19  1  0.00828587  0.83052596  0.14032872  1
  In  In20  1  0.16725041  0.81448393  -0.03030048  1
  In  In21  1  0.18627047  0.63197817  0.84074499  1
  In  In22  1  0.68215399  0.33316828  0.34462202  1
  In  In23  1  0.65142196  0.00468908  0.35097785  1
  In  In24  1  0.84503073  0.66636207  0.50344484  1
  In  In25  1  0.67335361  -0.01065492  0.00869060  1
  In  In26  1  0.31892626  0.05205729  0.42702570  1
  In  In27  1  0.83246947  -0.00000532  0.18816424  1
  In  In28  1  0.33634232  0.00091617  -0.02151595  1
  In  In29  1  0.00259478  -0.00945411  0.32849463  1
  In  In30  1  0.83271625  0.67197096  0.14893542  1
  In  In31  1  0.16164142  0.48280366  0.34096412  1
  In  In32  1  0.48296522  0.65192471  0.18020639  1
  In  In33  1  0.00117134  0.49070198  0.17224976  1
  In  In34  1  0.84254507  0.65806795  0.86038659  1
  In  In35  1  0.81689467  0.33387990  0.17733955  1
  In  In36  1  0.66500985  0.52147341  0.16394165  1
  In  In37  1  0.34063783  0.83328928  0.49698259  1
  In  In38  1  0.48168991  0.51123949  0.68384754  1
  In  In39  1  0.00511741  0.64781246  0.35206059  1
  In  In40  1  0.63709784  0.33679469  0.68495471  1
  In  In41  1  0.44220329  0.28401014  0.48635776  1
  In  In42  1  0.83345993  0.83815774  0.32817399  1
  In  In43  1  0.18289585  0.35242596  0.15372566  1
  In  In44  1  0.01938007  0.19918836  0.51370115  1
  In  In45  1  0.68223206  0.15605483  0.49785035  1
  In  In46  1  0.17375846  0.00866102  0.80160341  1
  In  In47  1  0.34106550  0.00011735  0.64447985  1
  In  In48  1  0.66839359  0.66847945  0.01405940  1
  In  In49  1  0.01566334  0.17850591  0.81202250  1
  In  In50  1  0.64451642  0.80346816  0.83951965  1
  In  In51  1  0.64084138  0.35915291  -0.01115717  1
  In  In52  1  0.01706551  0.64948008  -0.01004962  1
  In  In53  1  0.51973382  0.82721682  0.34161044  1
  In  In54  1  0.83531843  0.18143728  0.01970631  1
  In  In55  1  0.15685475  0.46430801  0.65165150  1
  In  In56  1  0.82370381  0.32470452  0.83158701  1
  In  In57  1  0.32218914  0.17528673  0.82058819  1
  In  In58  1  0.47261211  0.35769563  0.11872782  1
  In  In59  1  0.65987706  0.51281313  0.51147934  1
  In  In60  1  -0.01595574  0.33771013  -0.00996043  1
  In  In61  1  0.01950436  0.00588359  0.01163041  1
  In  In62  1  0.81519095  0.83604116  0.66016048  1
  In  In63  1  0.18701301  0.20511296  0.36764262  1
  In  In64  1  0.51219242  0.68362823  0.53181127  1
  In  In65  1  0.00183413  0.32194853  0.32850939  1
  In  In66  1  0.33194641  0.20103654  0.17825438  1
  In  In67  1  0.33473024  0.84855928  0.17091680  1
  In  In68  1  0.49509230  0.16017731  0.00461643  1
  In  In69  1  0.51711516  0.80446740  -0.01782742  1
  In  In70  1  0.33506925  0.66791399  0.66522515  1
  In  In71  1  0.49123432  0.46461247  0.35488808  1
  Te  Te72  1  0.09894069  0.09949360  0.08898368  1
  Te  Te73  1  0.09072177  0.09367145  0.41052357  1
  Te  Te74  1  0.07365511  0.07814944  0.72276074  1
  Te  Te75  1  0.08444794  0.42581880  0.06549457  1
  Te  Te76  1  0.08206745  0.39381441  0.43180779  1
  Te  Te77  1  0.07824186  0.43191585  0.77326657  1
  Te  Te78  1  0.10699591  0.73095595  0.08015355  1
  Te  Te79  1  0.06361484  0.76034780  0.42553761  1
  Te  Te80  1  0.09394717  0.73779534  0.76260118  1
  Te  Te81  1  0.40413980  0.07422323  0.09268430  1
  Te  Te82  1  0.43391067  0.13800423  0.44257620  1
  Te  Te83  1  0.42364304  0.07515245  0.75725947  1
  Te  Te84  1  0.37384968  0.44382278  0.04913802  1
  Te  Te85  1  0.38092805  0.41696401  0.44065738  1
  Te  Te86  1  0.39434747  0.39612895  0.72423284  1
  Te  Te87  1  0.40888915  0.74925656  0.08082778  1
  Te  Te88  1  0.41564333  0.73477556  0.40582667  1
  Te  Te89  1  0.44635796  0.73995542  0.72881050  1
  Te  Te90  1  0.74517466  0.08743864  0.09634624  1
  Te  Te91  1  0.76568905  0.05752488  0.42810625  1
  Te  Te92  1  0.75021076  0.11103293  0.76234609  1
  Te  Te93  1  0.74457798  0.42450686  0.08002612  1
  Te  Te94  1  0.75707532  0.43560408  0.42614992  1
  Te  Te95  1  0.73525103  0.42565875  0.75514078  1
  Te  Te96  1  0.74536594  0.76841875  0.08424862  1
  Te  Te97  1  0.74987787  0.76180255  0.43101235  1
  Te  Te98  1  0.75846070  0.74001306  0.76268249  1
  Te  Te99  1  0.10828564  0.25215394  0.24857245  1
  Te  Te100  1  0.11214478  0.25459375  0.61406707  1
  Te  Te101  1  0.08879389  0.25798514  0.91571681  1
  Te  Te102  1  0.09143608  0.58489366  0.24599693  1
  Te  Te103  1  0.10499435  0.57708315  0.56857117  1
  Te  Te104  1  0.07469161  0.55252769  0.89423273  1
  Te  Te105  1  0.10129978  0.90670681  0.23286718  1
  Te  Te106  1  0.07446580  0.91695222  0.59156635  1
  Te  Te107  1  0.07850118  0.91746064  0.90040058  1
  Te  Te108  1  0.43469409  0.28353139  0.23897850  1
  Te  Te109  1  0.38998468  0.26739546  0.62742047  1
  Te  Te110  1  0.39408221  0.24715565  0.93271209  1
  Te  Te111  1  0.40683526  0.54408156  0.25121850  1
  Te  Te112  1  0.40889156  0.58099169  0.56457031  1
  Te  Te113  1  0.39492394  0.53026860  0.89098252  1
  Te  Te114  1  0.42255978  0.92112630  0.26878693  1
  Te  Te115  1  0.43588665  0.92513953  0.56007618  1
  Te  Te116  1  0.42661937  0.90368524  0.90733265  1
  Te  Te117  1  0.75111937  0.23548955  0.26180715  1
  Te  Te118  1  0.73991759  0.26907335  0.59453322  1
  Te  Te119  1  0.73615023  0.25162895  0.93151035  1
  Te  Te120  1  0.76590525  0.58674264  0.25607588  1
  Te  Te121  1  0.74570341  0.59902991  0.59733271  1
  Te  Te122  1  0.73261907  0.58170982  0.91811531  1
  Te  Te123  1  0.72828951  0.91278284  0.25210586  1
  Te  Te124  1  0.77023741  0.94308576  0.56931066  1
  Te  Te125  1  0.74127253  0.90672215  0.90242718  1
  Te  Te126  1  0.25398468  0.25485871  0.06946437  1
  Te  Te127  1  0.30952074  0.27931615  0.40565981  1
  Te  Te128  1  0.21992426  0.24536750  0.74001416  1
  Te  Te129  1  0.25829011  0.54854594  0.05711471  1
  Te  Te130  1  0.21622770  0.58359227  0.43641369  1
  Te  Te131  1  0.25294604  0.55912595  0.72794805  1
  Te  Te132  1  0.24286880  0.91158434  0.06538646  1
  Te  Te133  1  0.24835590  0.91127071  0.40200029  1
  Te  Te134  1  0.27618745  0.91089142  0.74884480  1
  Te  Te135  1  0.57979160  0.25583911  0.08410037  1
  Te  Te136  1  0.58892591  0.25829022  0.43585594  1
  Te  Te137  1  0.56838130  0.24968602  0.78588142  1
  Te  Te138  1  0.55977253  0.57929659  0.07196167  1
  Te  Te139  1  0.57322134  0.58738081  0.40825470  1
  Te  Te140  1  0.55932974  0.64114754  0.69907715  1
  Te  Te141  1  0.56949953  0.90899392  0.08149169  1
  Te  Te142  1  0.57116519  0.91924383  0.44179421  1
  Te  Te143  1  0.59069023  0.88826545  0.71660311  1
  Te  Te144  1  0.92954273  0.25803037  0.10777820  1
  Te  Te145  1  0.90942127  0.23444841  0.40972713  1
  Te  Te146  1  0.92549859  0.27030664  0.73307637  1
  Te  Te147  1  0.91742621  0.57221044  0.07465447  1
  Te  Te148  1  0.92389165  0.56303750  0.43721784  1
  Te  Te149  1  0.91066314  0.57459891  0.75234210  1
  Te  Te150  1  0.91010215  0.92586740  0.07673182  1
  Te  Te151  1  0.93205235  0.89909882  0.41637829  1
  Te  Te152  1  0.90846388  0.93123327  0.74152570  1
  Te  Te153  1  0.27461811  0.09339310  0.27960307  1
  Te  Te154  1  0.25922680  0.09622248  0.56429413  1
  Te  Te155  1  0.23445221  0.09021703  0.91261265  1
  Te  Te156  1  0.26204427  0.42109536  0.25467121  1
  Te  Te157  1  0.18888243  0.36358078  0.54375117  1
  Te  Te158  1  0.27330910  0.44477408  0.92325634  1
  Te  Te159  1  0.26571328  0.73156594  0.23865084  1
  Te  Te160  1  0.24322768  0.74928819  0.57446951  1
  Te  Te161  1  0.27571696  0.74252764  0.89328972  1
  Te  Te162  1  0.58479636  0.10198617  0.26364508  1
  Te  Te163  1  0.58921605  0.08353803  0.59389914  1
  Te  Te164  1  0.58626982  0.07414674  0.91842290  1
  Te  Te165  1  0.59556749  0.42021936  0.25251182  1
  Te  Te166  1  0.56365748  0.42505438  0.58645814  1
  Te  Te167  1  0.56016554  0.44780067  0.90315430  1
  Te  Te168  1  0.58847233  0.74536366  0.23372363  1
  Te  Te169  1  0.60183498  0.76708364  0.60932074  1
  Te  Te170  1  0.53512190  0.70616316  0.87316557  1
  Te  Te171  1  0.93514465  0.08592440  0.24294593  1
  Te  Te172  1  0.93500926  0.09406515  0.57031559  1
  Te  Te173  1  0.92448007  0.10153635  0.92123751  1
  Te  Te174  1  0.90664842  0.42025751  0.26525014  1
  Te  Te175  1  0.93696212  0.41795538  0.57943530  1
  Te  Te176  1  0.89201404  0.42110096  0.91569137  1
  Te  Te177  1  0.92917306  0.74786151  0.24017782  1
  Te  Te178  1  0.92648907  0.74721963  0.60126536  1
  Te  Te179  1  0.92307348  0.75884579  0.93889762  1
