# generated using pymatgen
data_In2Te3
_symmetry_space_group_name_H-M   'P 1'
_cell_length_a   18.95477364
_cell_length_b   18.97522726
_cell_length_c   18.93544603
_cell_angle_alpha   89.99779429
_cell_angle_beta   90.01736595
_cell_angle_gamma   89.94145077
_symmetry_Int_Tables_number   1
_chemical_formula_structural   In2Te3
_chemical_formula_sum   'In72 Te108'
_cell_volume   6810.52953724
_cell_formula_units_Z   36
loop_
 _symmetry_equiv_pos_site_id
 _symmetry_equiv_pos_as_xyz
  1  'x, y, z'
loop_
 _atom_site_type_symbol
 _atom_site_label
 _atom_site_symmetry_multiplicity
 _atom_site_fract_x
 _atom_site_fract_y
 _atom_site_fract_z
 _atom_site_occupancy
  In  In0  1  -0.01307273  0.36802874  0.69247068  1
  In  In1  1  0.14831841  0.50296156  0.34531734  1
  In  In2  1  0.53323145  -0.02375776  0.84804226  1
  In  In3  1  0.34638984  0.48477927  0.83016894  1
  In  In4  1  -0.01429402  0.51760769  0.52203844  1
  In  In5  1  0.67709619  0.34279764  0.68822036  1
  In  In6  1  0.83293280  -0.01042235  0.80890807  1
  In  In7  1  0.34586921  0.67774920  -0.00935339  1
  In  In8  1  0.49303844  0.85804967  0.65596352  1
  In  In9  1  0.32195213  0.30718649  0.33295588  1
  In  In10  1  0.30182646  0.01092479  0.58872866  1
  In  In11  1  0.33333542  0.47450027  0.51204938  1
  In  In12  1  0.50018410  0.30848083  0.52373036  1
  In  In13  1  0.83297405  0.66656915  0.49482664  1
  In  In14  1  -0.01011374  0.18191885  0.18343937  1
  In  In15  1  0.12346305  -0.02293885  0.18782154  1
  In  In16  1  0.84274577  0.81364204  0.31735825  1
  In  In17  1  0.85095777  -0.02033623  0.48552886  1
  In  In18  1  0.69219100  0.36695358  0.01698943  1
  In  In19  1  0.13922850  0.68331501  0.48864205  1
  In  In20  1  0.14717651  0.18916586  0.66383893  1
  In  In21  1  -0.01509793  0.84221450  0.83922576  1
  In  In22  1  0.18385465  0.02236981  0.81453172  1
  In  In23  1  0.66764986  0.17533486  0.50903322  1
  In  In24  1  0.15431912  0.81055262  -0.00184976  1
  In  In25  1  0.29442253  -0.01957439  0.36117888  1
  In  In26  1  0.13724534  0.21520058  0.04515031  1
  In  In27  1  0.71248108  0.79591566  0.85231400  1
  In  In28  1  0.69677353  0.47104100  0.47115383  1
  In  In29  1  0.13258582  0.50049370  0.02893388  1
  In  In30  1  0.31174759  0.67937674  0.65155290  1
  In  In31  1  0.49327089  0.33215590  0.18095621  1
  In  In32  1  0.69776629  0.32888552  0.34801239  1
  In  In33  1  0.50981379  0.63976870  0.47747720  1
  In  In34  1  0.65397314  0.84212658  0.50840847  1
  In  In35  1  0.33927132  0.13105024  0.17251715  1
  In  In36  1  0.52874141  0.34670191  0.84859893  1
  In  In37  1  0.32257910  0.15673842  0.79016276  1
  In  In38  1  0.84015712  0.15719714  0.64391760  1
  In  In39  1  -0.01790853  0.52006302  0.84503295  1
  In  In40  1  0.31980972  0.33920284  0.00343437  1
  In  In41  1  0.67295896  -0.00319238  0.65263460  1
  In  In42  1  -0.01234824  0.80666878  0.47430001  1
  In  In43  1  0.32224637  0.00351162  -0.01292143  1
  In  In44  1  0.49739673  0.67996928  0.81850522  1
  In  In45  1  0.66336505  0.16514863  0.16432071  1
  In  In46  1  0.32902943  0.49588104  0.15500928  1
  In  In47  1  0.47237481  0.16833122  0.65551817  1
  In  In48  1  -0.01510002  -0.02459197  0.00402225  1
  In  In49  1  0.83957353  0.82298459  0.03115164  1
  In  In50  1  0.68021990  -0.00173828  0.32323673  1
  In  In51  1  0.48370180  0.16728654  -0.00951818  1
  In  In52  1  0.15355609  0.31239523  0.48455404  1
  In  In53  1  0.50106638  0.84682913  0.01385469  1
  In  In54  1  0.83958389  0.36208588  0.85092100  1
  In  In55  1  0.01457605  0.18151755  0.84074772  1
  In  In56  1  -0.03322362  0.15873262  0.39879717  1
  In  In57  1  0.52080235  0.48308932  0.32368973  1
  In  In58  1  0.51400213  0.82106655  0.32291508  1
  In  In59  1  0.69682688  0.64647156  0.00374772  1
  In  In60  1  0.83656147  0.33657292  0.17641809  1
  In  In61  1  0.71489184  0.53982478  0.18058790  1
  In  In62  1  0.15166843  0.83444944  0.65015851  1
  In  In63  1  0.69113455  0.68306941  0.67097118  1
  In  In64  1  0.81176717  0.16378891  -0.00574919  1
  In  In65  1  0.33016704  0.83337353  0.17591998  1
  In  In66  1  0.34247869  0.65756232  0.32975656  1
  In  In67  1  0.65701928  -0.01030410  0.02651546  1
  In  In68  1  0.31588326  0.32487853  0.64934573  1
  In  In69  1  0.52606242  0.51243977  0.68731558  1
  In  In70  1  0.16618390  0.65142039  0.83649028  1
  In  In71  1  0.12244460  0.67052053  0.16561568  1
  Te  Te72  1  0.07911335  0.07873499  0.07680657  1
  Te  Te73  1  0.10255363  0.10393217  0.41684884  1
  Te  Te74  1  0.06745783  0.08195394  0.73851770  1
  Te  Te75  1  0.09370601  0.38563943  0.11491866  1
  Te  Te76  1  0.05805850  0.41574778  0.42784576  1
  Te  Te77  1  0.08322034  0.44647467  0.76769054  1
  Te  Te78  1  0.05360461  0.79038496  0.10593803  1
  Te  Te79  1  0.05943370  0.72595906  0.37134647  1
  Te  Te80  1  0.08306057  0.75297505  0.75949682  1
  Te  Te81  1  0.43213497  0.05589648  0.07983051  1
  Te  Te82  1  0.36882332  0.06209947  0.46061794  1
  Te  Te83  1  0.43697691  0.06360566  0.76123203  1
  Te  Te84  1  0.43048336  0.41867865  0.07167770  1
  Te  Te85  1  0.42128145  0.40399988  0.41001648  1
  Te  Te86  1  0.42383363  0.40096025  0.72621102  1
  Te  Te87  1  0.42752844  0.74427155  0.09989624  1
  Te  Te88  1  0.41985715  0.74767704  0.42317720  1
  Te  Te89  1  0.40260011  0.76643971  0.73766284  1
  Te  Te90  1  0.76428695  0.06836767  0.10064329  1
  Te  Te91  1  0.75392493  0.08172554  0.42724570  1
  Te  Te92  1  0.74292240  0.09422647  0.74509823  1
  Te  Te93  1  0.79552984  0.45465012  0.08362149  1
  Te  Te94  1  0.81309143  0.41579128  0.39277474  1
  Te  Te95  1  0.76285392  0.44248303  0.75209721  1
  Te  Te96  1  0.74230685  0.74248918  0.10870071  1
  Te  Te97  1  0.73895930  0.75724011  0.41608871  1
  Te  Te98  1  0.80270414  0.74850495  0.74437812  1
  Te  Te99  1  0.07158503  0.29231928  0.24014753  1
  Te  Te100  1  0.04788027  0.27237452  0.58687311  1
  Te  Te101  1  0.08330676  0.27834856  0.92553041  1
  Te  Te102  1  0.05597355  0.55429329  0.23733793  1
  Te  Te103  1  0.07144007  0.61254902  0.59910973  1
  Te  Te104  1  0.06981785  0.60808308  0.94316336  1
  Te  Te105  1  0.10108814  0.88302142  0.30091380  1
  Te  Te106  1  0.07247796  0.90705706  0.54724632  1
  Te  Te107  1  0.10211671  0.92937959  0.90738202  1
  Te  Te108  1  0.42509644  0.22170152  0.26106505  1
  Te  Te109  1  0.37372081  0.22805138  0.54982795  1
  Te  Te110  1  0.40638304  0.26140371  0.89940063  1
  Te  Te111  1  0.43054053  0.57311153  0.24017064  1
  Te  Te112  1  0.41736588  0.57729309  0.59116102  1
  Te  Te113  1  0.43202390  0.57918154  0.91263752  1
  Te  Te114  1  0.40456807  0.92054855  0.27300239  1
  Te  Te115  1  0.42005497  0.92548447  0.54813029  1
  Te  Te116  1  0.41011564  0.90838162  0.90792721  1
  Te  Te117  1  0.76738915  0.22695336  0.25712955  1
  Te  Te118  1  0.75856066  0.27140197  0.58190664  1
  Te  Te119  1  0.73609834  0.26458465  0.91262776  1
  Te  Te120  1  0.81244047  0.57137101  0.28739936  1
  Te  Te121  1  0.74047475  0.57644344  0.57505537  1
  Te  Te122  1  0.81750212  0.61425082  0.92504406  1
  Te  Te123  1  0.75042534  0.89954086  0.24020124  1
  Te  Te124  1  0.77033069  0.90081122  0.58738032  1
  Te  Te125  1  0.75900223  0.92078327  0.92538379  1
  Te  Te126  1  0.26524872  0.25303788  0.11552565  1
  Te  Te127  1  0.20653058  0.22335728  0.37577942  1
  Te  Te128  1  0.22890925  0.27329893  0.76129797  1
  Te  Te129  1  0.24764101  0.60022473  0.07926757  1
  Te  Te130  1  0.25581625  0.57955656  0.43150911  1
  Te  Te131  1  0.25595425  0.57163806  0.74258137  1
  Te  Te132  1  0.24082727  0.91427996  0.08129408  1
  Te  Te133  1  0.18599643  0.89958384  0.42412252  1
  Te  Te134  1  0.25229835  0.93311045  0.71447294  1
  Te  Te135  1  0.57799117  0.25599744  0.07192451  1
  Te  Te136  1  0.57959083  0.24968466  0.41025779  1
  Te  Te137  1  0.57422381  0.24721318  0.74319438  1
  Te  Te138  1  0.60335046  0.57865853  0.09399706  1
  Te  Te139  1  0.62086974  0.58313729  0.38558799  1
  Te  Te140  1  0.61702831  0.59646083  0.77322444  1
  Te  Te141  1  0.58540136  0.90284737  0.11956936  1
  Te  Te142  1  0.57701283  0.92781421  0.41354167  1
  Te  Te143  1  0.61328247  0.88992258  0.75077077  1
  Te  Te144  1  0.90864919  0.24802474  0.07233507  1
  Te  Te145  1  0.87150712  0.27132192  0.40103119  1
  Te  Te146  1  0.90257386  0.24428796  0.75837680  1
  Te  Te147  1  0.97604918  0.63729221  0.12350968  1
  Te  Te148  1  0.92272402  0.58806120  0.40403638  1
  Te  Te149  1  0.87201272  0.59781752  0.78058711  1
  Te  Te150  1  0.92304408  0.90876997  0.12034066  1
  Te  Te151  1  0.93418742  0.92126885  0.37475714  1
  Te  Te152  1  0.93216510  0.92156549  0.72724596  1
  Te  Te153  1  0.22800227  0.06632847  0.25079338  1
  Te  Te154  1  0.18174260  0.09472411  0.55153929  1
  Te  Te155  1  0.24600739  0.11514393  0.91931620  1
  Te  Te156  1  0.25294938  0.42426484  0.26454667  1
  Te  Te157  1  0.21518301  0.41652353  0.58427608  1
  Te  Te158  1  0.23971081  0.44345402  0.93003178  1
  Te  Te159  1  0.24204823  0.73406796  0.24785646  1
  Te  Te160  1  0.25167943  0.77132413  0.55057434  1
  Te  Te161  1  0.25680556  0.75831592  0.89826744  1
  Te  Te162  1  0.58200328  0.08561546  0.25528555  1
  Te  Te163  1  0.57173206  0.07998622  0.57737680  1
  Te  Te164  1  0.59724604  0.08942502  0.92452988  1
  Te  Te165  1  0.61730652  0.40521593  0.23504112  1
  Te  Te166  1  0.58352537  0.42556778  0.57028844  1
  Te  Te167  1  0.61206668  0.44257640  0.91922082  1
  Te  Te168  1  0.60276363  0.70976548  0.29510655  1
  Te  Te169  1  0.56978269  0.73567308  0.58755928  1
  Te  Te170  1  0.58477202  0.75251567  0.92351515  1
  Te  Te171  1  0.93725989  0.08119197  0.27455226  1
  Te  Te172  1  0.93187250  0.09059439  0.54770911  1
  Te  Te173  1  0.91711141  0.07821881  0.91352066  1
  Te  Te174  1  0.96375167  0.40221939  0.22117276  1
  Te  Te175  1  0.89261432  0.43833943  0.60422240  1
  Te  Te176  1  0.93362674  0.42197186  0.94481244  1
  Te  Te177  1  0.87038990  0.70121532  0.21833798  1
  Te  Te178  1  0.93782236  0.72157416  0.58576842  1
  Te  Te179  1  0.91882730  0.74561930  0.93151201  1
