# generated using pymatgen
data_Zn18.24Cu29.76
_symmetry_space_group_name_H-M   'P 1'
_cell_length_a   11.08800000
_cell_length_b   7.39200000
_cell_length_c   7.39200000
_cell_angle_alpha   90.00000000
_cell_angle_beta   90.00000000
_cell_angle_gamma   90.00000000
_symmetry_Int_Tables_number   1
_chemical_formula_structural   Zn18.24Cu29.76
_chemical_formula_sum   'Zn18.24 Cu29.76'
_cell_volume   605.86677043
_cell_formula_units_Z   1
loop_
 _symmetry_equiv_pos_site_id
 _symmetry_equiv_pos_as_xyz
  1  'x, y, z'
loop_
 _atom_site_type_symbol
 _atom_site_label
 _atom_site_symmetry_multiplicity
 _atom_site_fract_x
 _atom_site_fract_y
 _atom_site_fract_z
 _atom_site_occupancy

  Zn  Zn1  1  0.66666667  0.00000000  0.00000000  1.0
  Zn  Zn1  1  0.00000000  0.75000000  0.75000000  1.0
  Zn  Zn1  1  0.83333333  0.25000000  0.00000000  1.0
  Zn  Zn1  1  0.00000000  0.50000000  0.50000000  1.0
  Zn  Zn1  1  0.00000000  0.00000000  0.50000000  1.0
  Zn  Zn1  1  0.33333333  0.50000000  0.00000000  1.0
  Zn  Zn1  1  0.83333333  0.00000000  0.25000000  1.0
  Zn  Zn1  1  0.00000000  0.50000000  0.00000000  1.0
  Zn  Zn1  1  0.50000000  0.00000000  0.75000000  1.0
  Zn  Zn1  1  0.33333333  0.25000000  0.75000000  1.0
  Zn  Zn1  1  0.83333333  0.25000000  0.50000000  1.0
  Zn  Zn1  1  0.16666667  0.00000000  0.75000000  1.0
  Zn  Zn1  1  0.50000000  0.75000000  0.50000000  1.0
  Zn  Zn1  1  0.83333333  0.50000000  0.25000000  1.0
  Zn  Zn1  1  0.33333333  0.00000000  0.50000000  1.0
  Zn  Zn1  1  0.66666667  0.00000000  0.50000000  1.0
  Zn  Zn1  1  0.16666667  0.50000000  0.25000000  1.0
  Zn  Zn1  1  0.16666667  0.50000000  0.75000000  1.0
  Cu  Zn1  1  0.50000000  0.75000000  0.00000000  1.0
  Cu  Zn1  1  0.33333333  0.00000000  0.00000000  1.0
  Cu  Zn1  1  0.83333333  0.00000000  0.75000000  1.0
  Cu  Zn1  1  0.00000000  0.75000000  0.25000000  1.0
  Cu  Zn1  1  0.83333333  0.75000000  0.00000000  1.0
  Cu  Zn1  1  0.16666667  0.75000000  0.50000000  1.0
  Cu  Zn1  1  0.50000000  0.25000000  0.00000000  1.0
  Cu  Zn1  1  0.00000000  0.00000000  0.00000000  1.0
  Cu  Zn1  1  0.33333333  0.50000000  0.50000000  1.0
  Cu  Zn1  1  0.16666667  0.25000000  0.50000000  1.0
  Cu  Zn1  1  0.50000000  0.00000000  0.25000000  1.0
  Cu  Zn1  1  0.33333333  0.75000000  0.75000000  1.0
  Cu  Zn1  1  0.83333333  0.75000000  0.50000000  1.0
  Cu  Zn1  1  0.83333333  0.50000000  0.75000000  1.0
  Cu  Zn1  1  0.16666667  0.00000000  0.25000000  1.0
  Cu  Zn1  1  0.16666667  0.25000000  0.00000000  1.0
  Cu  Zn1  1  0.66666667  0.50000000  0.50000000  1.0
  Cu  Zn1  1  0.00000000  0.25000000  0.75000000  1.0
  Cu  Zn1  1  0.50000000  0.25000000  0.50000000  1.0
  Cu  Zn1  1  0.50000000  0.50000000  0.75000000  1.0
  Cu  Zn1  1  0.33333333  0.25000000  0.25000000  1.0
  Cu  Zn1  1  0.00000000  0.25000000  0.25000000  1.0
  Cu  Zn1  1  0.66666667  0.25000000  0.25000000  1.0
  Cu  Zn1  1  0.66666667  0.75000000  0.75000000  1.0
  Cu  Zn1  1  0.33333333  0.75000000  0.25000000  1.0
  Cu  Zn1  1  0.66666667  0.50000000  0.00000000  1.0
  Cu  Zn1  1  0.16666667  0.75000000  0.00000000  1.0
  Cu  Zn1  1  0.50000000  0.50000000  0.25000000  1.0
  Cu  Zn1  1  0.66666667  0.25000000  0.75000000  1.0
  Cu  Zn1  1  0.66666667  0.75000000  0.25000000  1.0





























































































































































































































































































































