# generated using pymatgen
data_H2O
_symmetry_space_group_name_H-M   'P 1'
_cell_length_a   17.99284894
_cell_length_b   17.99177043
_cell_length_c   22.01361059
_cell_angle_alpha   89.99521141
_cell_angle_beta   90.00613442
_cell_angle_gamma   119.99191170
_symmetry_Int_Tables_number   1
_chemical_formula_structural   H2O
_chemical_formula_sum   'H384 O192'
_cell_volume   6172.07413809
_cell_formula_units_Z   192
loop_
 _symmetry_equiv_pos_site_id
 _symmetry_equiv_pos_as_xyz
  1  'x, y, z'
loop_
 _atom_type_symbol
 _atom_type_oxidation_number
  H+  1.0
  O2-  -2.0
loop_
 _atom_site_type_symbol
 _atom_site_label
 _atom_site_symmetry_multiplicity
 _atom_site_fract_x
 _atom_site_fract_y
 _atom_site_fract_z
 _atom_site_occupancy
  H+  H0  1  0.13367563  0.74917677  0.15608511  1
  H+  H1  1  0.73757348  0.61310960  0.84535622  1
  H+  H2  1  0.12956357  0.64608200  0.15276117  1
  H+  H3  1  0.13633047  0.13954612  0.68853249  1
  H+  H4  1  0.63469774  0.27540644  0.83508219  1
  H+  H5  1  0.52120374  0.64341230  0.34863702  1
  H+  H6  1  0.72873546  0.36108152  0.32030860  1
  H+  H7  1  0.10553226  0.22111069  0.83657603  1
  H+  H8  1  0.11930416  0.89395347  0.01145038  1
  H+  H9  1  0.35426066  0.13547442  0.48924938  1
  H+  H10  1  0.16608845  0.32811844  0.27554448  1
  H+  H11  1  0.13503656  0.85405871  0.16520802  1
  H+  H12  1  0.63574675  0.85914626  0.66237481  1
  H+  H13  1  0.08741834  -0.05029622  0.48677371  1
  H+  H14  1  0.31985319  0.90209840  0.72575177  1
  H+  H15  1  0.60680643  0.47201733  0.49325010  1
  H+  H16  1  0.13019631  0.62489799  0.32748122  1
  H+  H17  1  0.58036162  0.17298371  0.73056477  1
  H+  H18  1  0.25399299  0.88915603  0.48918957  1
  H+  H19  1  0.27552901  0.38225410  0.34388356  1
  H+  H20  1  0.41100745  0.32574342  0.93537867  1
  H+  H21  1  0.86332939  0.22372306  0.83525209  1
  H+  H22  1  0.25423972  0.86841979  0.81699528  1
  H+  H23  1  0.87210393  0.23344017  0.15142089  1
  H+  H24  1  0.87765258  0.72610651  0.68825039  1
  H+  H25  1  0.36316575  0.97215878  0.16335190  1
  H+  H26  1  0.16273058  0.19333802  0.43309632  1
  H+  H27  1  0.11606850  -0.03705097  0.16358162  1
  H+  H28  1  0.63159808  0.35679595  0.65349747  1
  H+  H29  1  0.94067362  0.30609049  1.01414501  1
  H+  H30  1  0.67522051  0.11440931  0.23259332  1
  H+  H31  1  0.97750123  0.85251473  0.17091576  1
  H+  H32  1  0.41089704  0.57458117  0.92945162  1
  H+  H33  1  0.08601151  0.45375773  0.34471192  1
  H+  H34  1  0.52019755  0.87828341  0.67563192  1
  H+  H35  1  0.96431013  0.10001078  0.50176296  1
  H+  H36  1  0.14193436  0.78041653  0.99792313  1
  H+  H37  1  0.37578449  0.34994341  -0.00419152  1
  H+  H38  1  1.02223025  0.38552454  0.82751235  1
  H+  H39  1  0.85775720  0.25448599  0.65079021  1
  H+  H40  1  0.64967653  0.76949020  0.85195143  1
  H+  H41  1  0.23713474  0.61923990  0.16394163  1
  H+  H42  1  0.86121703  0.97446972  0.82151636  1
  H+  H43  1  0.09781353  0.11638341  0.32915578  1
  H+  H44  1  0.62215510  0.48649159  0.83521255  1
  H+  H45  1  0.34411729  0.87158519  0.81679018  1
  H+  H46  1  0.93732317  0.63812718  0.31120599  1
  H+  H47  1  0.87539443  0.60366106  0.49938109  1
  H+  H48  1  0.62937252  0.11394003  0.67144768  1
  H+  H49  1  0.85237546  0.12655880  0.67810397  1
  H+  H50  1  0.31944894  0.73528601  0.39207658  1
  H+  H51  1  0.15336371  0.83478290  0.56473176  1
  H+  H52  1  0.66624519  0.57422965  0.26032801  1
  H+  H53  1  0.10975878  0.97966660  0.01271940  1
  H+  H54  1  0.56801970  0.14821404  0.48933341  1
  H+  H55  1  1.02740372  0.63827309  0.49688227  1
  H+  H56  1  0.77062366  0.38569470  0.67338570  1
  H+  H57  1  0.76704226  0.13113210  0.68420605  1
  H+  H58  1  0.83562657  0.61957883  0.35017786  1
  H+  H59  1  0.79493744  0.88996445  1.04999291  1
  H+  H60  1  0.88081903  0.86577339  0.84311203  1
  H+  H61  1  0.38974434  0.27829150  0.84434206  1
  H+  H62  1  0.47283198  0.10677321  -0.00152122  1
  H+  H63  1  0.38783538  0.62967310  0.49696919  1
  H+  H64  1  0.37913205  0.76989042  0.83551524  1
  H+  H65  1  0.62573984  0.02659184  0.83166237  1
  H+  H66  1  0.77506998  0.38011411  0.15529240  1
  H+  H67  1  0.36114650  0.13925933  0.68090502  1
  H+  H68  1  0.35230802  0.01009299  0.50496920  1
  H+  H69  1  0.57722558  0.72730777  0.13888056  1
  H+  H70  1  0.01897088  0.87461628  0.33280102  1
  H+  H71  1  0.36150733  0.88235469  0.16889528  1
  H+  H72  1  0.12786510  0.76937718  0.50762411  1
  H+  H73  1  0.71031040  0.11696270  0.97941702  1
  H+  H74  1  0.60924916  0.95445871  0.46153248  1
  H+  H75  1  0.24072170  0.62836338  -0.00718797  1
  H+  H76  1  0.37809364  0.48246583  0.66870351  1
  H+  H77  1  0.61195037  0.22595704  0.66738167  1
  H+  H78  1  0.36341466  0.47301538  0.34046873  1
  H+  H79  1  0.63855937  0.97973534  0.19926691  1
  H+  H80  1  -0.04386025  0.84500340  0.50109676  1
  H+  H81  1  0.87113624  0.87927144  0.67725930  1
  H+  H82  1  0.65536247  0.09421969  0.50581512  1
  H+  H83  1  0.85947211  0.95508332  0.13434645  1
  H+  H84  1  0.39514897  0.36555354  0.50500544  1
  H+  H85  1  0.63144044  0.51333594  -0.00526438  1
  H+  H86  1  0.35686243  -0.02927045  0.67134799  1
  H+  H87  1  0.38962706  0.86481262  0.65848371  1
  H+  H88  1  -0.00810855  0.10399301  0.16348075  1
  H+  H89  1  0.82398257  0.40905761  -0.00131355  1
  H+  H90  1  0.16103785  0.08241708  0.94530929  1
  H+  H91  1  0.88808879  0.53057004  0.85139453  1
  H+  H92  1  0.54183731  0.32327536  0.72044857  1
  H+  H93  1  0.59668869  0.37383510  0.00241765  1
  H+  H94  1  0.12291347  0.64721889  1.00344938  1
  H+  H95  1  0.49601036  0.61232996  0.66575799  1
  H+  H96  1  0.37623307  0.13132784  1.00795179  1
  H+  H97  1  0.60811688  -0.03276945  0.68079925  1
  H+  H98  1  0.89533010  0.26915832  0.48000774  1
  H+  H99  1  0.78792309  0.15349224  0.47274426  1
  H+  H100  1  0.91488892  0.53643461  -0.00558123  1
  H+  H101  1  0.35607438  0.46428146  0.00306335  1
  H+  H102  1  0.07794306  0.67591431  0.73942863  1
  H+  H103  1  0.21517213  0.54858065  0.31268707  1
  H+  H104  1  0.72440304  0.85765802  0.65800999  1
  H+  H105  1  0.39298941  0.77474841  0.99249846  1
  H+  H106  1  0.87044809  0.48402188  0.33807481  1
  H+  H107  1  0.13543780  0.27921654  0.17670713  1
  H+  H108  1  0.61942080  0.11898792  0.33371248  1
  H+  H109  1  0.61048475  0.37647631  0.33647754  1
  H+  H110  1  0.14129776  1.02917713  0.85410479  1
  H+  H111  1  0.12398755  0.35241977  0.84064057  1
  H+  H112  1  0.41439141  0.32477231  0.59903337  1
  H+  H113  1  0.52653470  0.14966593  0.82479879  1
  H+  H114  1  0.85465305  0.13771670  0.14334019  1
  H+  H115  1  0.98339970  0.85383800  1.00137163  1
  H+  H116  1  0.89264742  0.36215482  0.16909231  1
  H+  H117  1  0.77590661  0.38309354  0.82884573  1
  H+  H118  1  0.67423941  0.58275770  0.90401091  1
  H+  H119  1  0.12816883  0.60968340  0.84100527  1
  H+  H120  1  0.33434887  0.17415849  0.77464334  1
  H+  H121  1  0.39241254  0.53018835  0.83569635  1
  H+  H122  1  0.86448560  -0.00603102  0.66175819  1
  H+  H123  1  0.59228649  -0.03091025  0.19738608  1
  H+  H124  1  0.47795761  0.11682834  0.32354735  1
  H+  H125  1  0.68771215  0.83891127  0.18912290  1
  H+  H126  1  0.37593693  0.40088330  0.82576535  1
  H+  H127  1  0.90345236  0.36966390  0.49611757  1
  H+  H128  1  0.50573226  0.36288881  0.67418439  1
  H+  H129  1  0.20471561  0.61525932  0.65823053  1
  H+  H130  1  0.11736984  0.10458674  -0.00061496  1
  H+  H131  1  0.38081447  0.01900101  0.99846476  1
  H+  H132  1  0.83676071  0.07424215  0.51532896  1
  H+  H133  1  0.00369115  0.87667452  0.68538644  1
  H+  H134  1  0.48052155  0.36713733  0.84858711  1
  H+  H135  1  0.26780317  0.63473853  0.82624416  1
  H+  H136  1  0.64152181  0.36931274  0.17018865  1
  H+  H137  1  0.85698197  0.86671832  0.13977950  1
  H+  H138  1  0.00317084  0.12844451  0.00283720  1
  H+  H139  1  0.62678328  0.22942000  0.33028030  1
  H+  H140  1  0.47204011  0.86321095  0.17916247  1
  H+  H141  1  0.66410730  0.89027628  0.99647231  1
  H+  H142  1  0.72469616  0.59954863  0.99840622  1
  H+  H143  1  0.10045039  0.71676814  0.83558842  1
  H+  H144  1  0.90767607  0.58037459  0.56138265  1
  H+  H145  1  0.14268928  0.37040618  0.18026624  1
  H+  H146  1  0.22227018  0.86645869  0.65547150  1
  H+  H147  1  0.13734663  0.36864203  -0.00380668  1
  H+  H148  1  0.86156014  0.88974622  0.48534849  1
  H+  H149  1  0.63386438  0.51273840  0.31888141  1
  H+  H150  1  0.88643770  0.60620493  0.65655865  1
  H+  H151  1  0.13034921  0.08831422  0.18080050  1
  H+  H152  1  0.61924619  0.15888513  0.16134304  1
  H+  H153  1  0.60019881  0.86334002  0.47302095  1
  H+  H154  1  -0.03647891  0.10652518  0.31963349  1
  H+  H155  1  0.03415862  0.39223451  0.16010013  1
  H+  H156  1  0.61974839  0.63694262  0.83460702  1
  H+  H157  1  0.39697642  0.77453658  0.34529406  1
  H+  H158  1  0.58016448  0.60623262  0.50878413  1
  H+  H159  1  0.62115568  0.89407221  0.13820825  1
  H+  H160  1  0.85287690  -0.02937291  0.33227234  1
  H+  H161  1  0.12258865  0.48269492  0.16060600  1
  H+  H162  1  0.07584960  0.17408730  0.08686377  1
  H+  H163  1  0.36402312  0.38327027  0.16147824  1
  H+  H164  1  0.17038836  0.30172119  0.50302841  1
  H+  H165  1  0.34386405  0.72582418  0.67079967  1
  H+  H166  1  0.90357817  0.38912308  0.01054754  1
  H+  H167  1  0.87813484  0.50839694  0.17105488  1
  H+  H168  1  0.47856226  0.86535161  -0.01680288  1
  H+  H169  1  0.74270355  0.61588851  0.66792384  1
  H+  H170  1  0.34838054  0.66974713  0.06516824  1
  H+  H171  1  0.47751819  0.84981120  0.50306573  1
  H+  H172  1  0.51329654  0.89579839  0.82797076  1
  H+  H173  1  0.88576228  0.10919067  0.83778138  1
  H+  H174  1  0.00402847  0.60588180  0.32115430  1
  H+  H175  1  0.27052938  0.14023402  0.48191505  1
  H+  H176  1  0.47559723  0.35618594  0.32412284  1
  H+  H177  1  0.57336201  0.65556102  0.09767922  1
  H+  H178  1  0.70784240  0.60353146  0.50811384  1
  H+  H179  1  0.63681516  0.36937573  0.49683217  1
  H+  H180  1  0.14098591  0.84560468  0.33954446  1
  H+  H181  1  0.62277266  0.72981442  0.67817181  1
  H+  H182  1  0.39084766  0.61573219  0.32954131  1
  H+  H183  1  0.63065206  0.64506110  0.68152906  1
  H+  H184  1  0.59616361  0.21235006  -0.00033646  1
  H+  H185  1  0.62929512  0.76264690  0.35203076  1
  H+  H186  1  0.12646080  0.85828123  0.84981598  1
  H+  H187  1  0.52143619  0.38034642  0.49070396  1
  H+  H188  1  0.38778552  0.11443842  0.32283957  1
  H+  H189  1  0.46918485  0.59548651  0.98907935  1
  H+  H190  1  0.04110962  0.40975003  0.00340791  1
  H+  H191  1  0.37065975  0.97950804  0.34004054  1
  H+  H192  1  0.61449818  0.98882445  -0.01594072  1
  H+  H193  1  0.86542582  0.71926964  0.83497152  1
  H+  H194  1  0.84451819  0.12591913  0.32736822  1
  H+  H195  1  0.38391150  0.51658232  0.17770942  1
  H+  H196  1  1.01932260  0.89250268  0.84501518  1
  H+  H197  1  0.36697908  0.88646061  1.00746683  1
  H+  H198  1  0.23175005  0.86840959  0.99769630  1
  H+  H199  1  0.37040647  0.72618322  0.16687197  1
  H+  H200  1  0.54317103  0.88822375  0.37452230  1
  H+  H201  1  0.60082377  0.12547309  -0.00245749  1
  H+  H202  1  0.39700053  0.75980995  0.51669474  1
  H+  H203  1  0.66882912  0.32846252  0.26040680  1
  H+  H204  1  0.81269120  0.17593370  0.05133906  1
  H+  H205  1  0.77934328  0.62978945  0.16740371  1
  H+  H206  1  0.09803021  0.43209802  0.06441792  1
  H+  H207  1  0.47540700  0.11182372  0.16824958  1
  H+  H208  1  0.09749751  0.64756415  0.67612803  1
  H+  H209  1  0.27513651  0.38393643  0.16546708  1
  H+  H210  1  0.35798936  0.63657526  0.82451764  1
  H+  H211  1  0.93413226  0.07535178  0.62335341  1
  H+  H212  1  0.23219060  0.85159571  0.34264053  1
  H+  H213  1  0.83943857  0.40361362  0.55065525  1
  H+  H214  1  0.14775992  0.18198902  0.13132668  1
  H+  H215  1  0.37962400  0.26642203  0.66072673  1
  H+  H216  1  0.64026357  0.52433488  0.16351828  1
  H+  H217  1  0.66123213  0.74608741  0.20515156  1
  H+  H218  1  0.87447688  0.71937124  0.17128470  1
  H+  H219  1  0.11066905  0.47439423  0.82699293  1
  H+  H220  1  0.09279533  0.22243102  0.00188832  1
  H+  H221  1  0.74139681  0.15614797  0.17784297  1
  H+  H222  1  0.63822144  0.24637915  0.48459844  1
  H+  H223  1  0.87852876  0.35700484  0.32455628  1
  H+  H224  1  0.83933426  0.21257348  0.32643463  1
  H+  H225  1  0.42481223  0.83226443  0.60321621  1
  H+  H226  1  0.05161801  0.15074815  0.68351301  1
  H+  H227  1  0.29904799  0.40964732  0.49594650  1
  H+  H228  1  0.13411844  0.00782984  0.32654622  1
  H+  H229  1  0.64545031  0.61579401  0.16467626  1
  H+  H230  1  0.60162748  1.00639072  0.32368309  1
  H+  H231  1  0.12690671  0.99247786  0.70059451  1
  H+  H232  1  0.38662806  0.27244844  0.50133623  1
  H+  H233  1  0.39773761  0.13173138  0.84348082  1
  H+  H234  1  0.97506407  0.10743056  0.83708643  1
  H+  H235  1  0.69595905  0.34018799  0.98937890  1
  H+  H236  1  0.37080504  0.63460400  0.00453004  1
  H+  H237  1  -0.02256746  0.12628664  0.53070219  1
  H+  H238  1  0.22293756  0.10014123  0.32616408  1
  H+  H239  1  0.83835481  0.70997151  0.49201773  1
  H+  H240  1  0.39239350  0.27308949  0.17051896  1
  H+  H241  1  0.35996696  0.22167937  0.33151146  1
  H+  H242  1  0.26919228  0.64842384  0.32236166  1
  H+  H243  1  0.27630403  0.14418569  0.83557714  1
  H+  H244  1  0.85199286  0.37628009  0.66885459  1
  H+  H245  1  0.75240254  0.62490389  0.33455467  1
  H+  H246  1  0.12808232  0.39588911  0.49784085  1
  H+  H247  1  0.36750181  0.38869964  0.66983826  1
  H+  H248  1  0.86581627  0.01221867  0.98595877  1
  H+  H249  1  0.36641790  0.13294657  0.15913740  1
  H+  H250  1  0.47104637  0.11295476  0.65922657  1
  H+  H251  1  0.85011158  0.70172930  0.01756856  1
  H+  H252  1  0.87473440  0.76596639  0.32384103  1
  H+  H253  1  0.88755469  0.35827236  0.84711534  1
  H+  H254  1  0.12990379  0.78350747  0.66381156  1
  H+  H255  1  0.65293708  0.52932244  0.66968006  1
  H+  H256  1  0.60701158  0.75188826  0.51184810  1
  H+  H257  1  0.12237433  0.70761036  0.34262633  1
  H+  H258  1  0.87960472  0.51470682  0.65294572  1
  H+  H259  1  0.19419712  0.03600139  0.54975371  1
  H+  H260  1  0.22838311  0.60351713  0.51462494  1
  H+  H261  1  0.24112991  0.37479023  0.65755331  1
  H+  H262  1  0.61218860  0.62016628  1.00733472  1
  H+  H263  1  0.33788386  0.91354842  0.06899969  1
  H+  H264  1  0.14040468  0.11728895  0.85021940  1
  H+  H265  1  0.44243732  0.09892127  0.51106038  1
  H+  H266  1  0.63360388  0.27716558  0.16711800  1
  H+  H267  1  0.88049834  0.85735721  0.32314692  1
  H+  H268  1  0.26966488  0.13688708  0.68796774  1
  H+  H269  1  0.37288797  0.22911364  1.00598850  1
  H+  H270  1  0.11892292  0.39311756  0.66974667  1
  H+  H271  1  0.87361271  0.48355457  0.50637007  1
  H+  H272  1  0.43065270  0.52985022  0.49863175  1
  H+  H273  1  1.00913381  0.62933529  0.83733633  1
  H+  H274  1  0.87251331  0.61303541  0.17571522  1
  H+  H275  1  0.99930065  0.36896465  0.49325344  1
  H+  H276  1  0.36809436  0.63567371  0.16498403  1
  H+  H277  1  0.85793510  0.61974509  0.00632761  1
  H+  H278  1  0.61088902  0.70825532  1.00772517  1
  H+  H279  1  0.12091049  0.52199164  0.65695363  1
  H+  H280  1  0.81350546  -0.05599438  0.49058871  1
  H+  H281  1  0.52814073  0.38994234  0.15913088  1
  H+  H282  1  0.27725676  0.13252353  0.15872212  1
  H+  H283  1  0.13272305  0.34863701  0.33670590  1
  H+  H284  1  0.21758676  0.35370954  -0.00442648  1
  H+  H285  1  0.51121358  0.37887587  0.00720448  1
  H+  H286  1  0.73010684  0.37467125  0.50221996  1
  H+  H287  1  0.91977932  0.56898011  0.23185388  1
  H+  H288  1  0.09249895  0.16661404  0.77657104  1
  H+  H289  1  0.73039204  0.85847987  0.34528114  1
  H+  H290  1  0.43154330  0.84286399  0.24535734  1
  H+  H291  1  0.70410803  0.09205097  0.33021827  1
  H+  H292  1  0.35027619  0.42986896  0.76415776  1
  H+  H293  1  0.40487225  0.82949999  0.89462704  1
  H+  H294  1  0.57850190  0.16485454  0.09689940  1
  H+  H295  1  0.38821637  0.35943501  0.32453335  1
  H+  H296  1  0.59480954  0.67208947  0.77619385  1
  H+  H297  1  0.18451787  0.59669168  0.22443813  1
  H+  H298  1  0.12050076  0.48283445  0.49884623  1
  H+  H299  1  0.69313165  0.82631593  0.91047580  1
  H+  H300  1  0.90551243  0.08070426  0.26037740  1
  H+  H301  1  0.17105038  0.06909181  0.23782052  1
  H+  H302  1  0.41693488  0.58271416  0.27047033  1
  H+  H303  1  0.90688265  0.83623218  0.90551354  1
  H+  H304  1  0.65272866  0.08587956  0.91722616  1
  H+  H305  1  0.08899003  0.86259748  0.49170375  1
  H+  H306  1  0.58438060  0.93386563  0.04456553  1
  H+  H307  1  0.12474285  0.90055969  0.69229144  1
  H+  H308  1  0.89048370  0.82367866  0.55684155  1
  H+  H309  1  0.72065752  0.11396384  0.83471011  1
  H+  H310  1  0.91842545  0.32454092  0.60381212  1
  H+  H311  1  0.84078171  0.92363284  0.39670665  1
  H+  H312  1  0.16802404  0.58737743  0.89824829  1
  H+  H313  1  0.09579376  0.67469129  0.09118511  1
  H+  H314  1  0.16567375  0.83144804  0.90384443  1
  H+  H315  1  0.64641106  0.85269496  0.08301946  1
  H+  H316  1  0.14963937  0.32321472  0.90197623  1
  H+  H317  1  0.47210988  0.60659196  0.17592784  1
  H+  H318  1  0.14396423  0.08560278  0.53562142  1
  H+  H319  1  0.91015044  0.07034889  0.92823631  1
  H+  H320  1  0.63821120  0.36731196  0.84058627  1
  H+  H321  1  0.35632031  0.66363167  0.44209952  1
  H+  H322  1  0.08433521  0.91112509  0.10053264  1
  H+  H323  1  0.31121602  0.66570785  0.72837557  1
  H+  H324  1  0.16030662  0.57779679  0.57057298  1
  H+  H325  1  0.92538799  0.59016991  0.92934602  1
  H+  H326  1  0.08463508  0.92193426  0.78901710  1
  H+  H327  1  0.92424350  0.33339306  0.90591390  1
  H+  H328  1  0.47822730  0.62075068  0.84270328  1
  H+  H329  1  0.58372194  0.42501328  0.77665528  1
  H+  H330  1  0.08347011  0.41631504  0.72785576  1
  H+  H331  1  0.07781919  0.40838341  0.40757956  1
  H+  H332  1  0.60249583  0.17734908  0.39578683  1
  H+  H333  1  0.83361151  0.42400945  0.39590153  1
  H+  H334  1  0.84150105  0.66103328  0.74417390  1
  H+  H335  1  0.32611325  0.92319813  0.43518877  1
  H+  H336  1  0.67109398  0.81646433  0.28588733  1
  H+  H337  1  0.95113442  0.77518922  0.95922377  1
  H+  H338  1  0.34928049  0.42291006  0.43315252  1
  H+  H339  1  0.96995260  0.82545838  0.62528560  1
  H+  H340  1  0.95049300  0.02144187  0.20302520  1
  H+  H341  1  0.65924155  0.07856439  0.61664447  1
  H+  H342  1  0.45221772  0.58533491  0.60108027  1
  H+  H343  1  0.83622430  0.23303760  0.99166599  1
  H+  H344  1  0.07443071  0.16811669  0.45942135  1
  H+  H345  1  0.95939876  0.34436594  0.33110677  1
  H+  H346  1  0.83275405  0.90529428  0.73483943  1
  H+  H347  1  0.57622344  0.91714914  0.77192531  1
  H+  H348  1  0.83646343  0.41185683  0.77094503  1
  H+  H349  1  0.15236617  0.53990545  0.99505056  1
  H+  H350  1  0.81467983  0.03046071  0.57914585  1
  H+  H351  1  0.91907487  0.32910507  0.22779649  1
  H+  H352  1  0.22874666  0.85870255  0.16800815  1
  H+  H353  1  0.84398046  0.41383156  0.09885087  1
  H+  H354  1  0.58293019  0.41531104  0.09782385  1
  H+  H355  1  0.16560216  0.07507457  0.63461789  1
  H+  H356  1  0.11694259  0.64087431  0.50043527  1
  H+  H357  1  0.18880357  0.35184842  0.56660444  1
  H+  H358  1  0.40188201  0.08083336  0.60462930  1
  H+  H359  1  0.64910732  0.82376175  0.56136395  1
  H+  H360  1  0.84352260  0.17808232  0.41405950  1
  H+  H361  1  0.77392196  0.88251521  0.82826727  1
  H+  H362  1  0.41784472  0.08221314  0.22904113  1
  H+  H363  1  0.38921084  0.90213259  0.34531959  1
  H+  H364  1  0.83567972  0.16868610  0.77374505  1
  H+  H365  1  0.42661200  0.09582901  0.89917614  1
  H+  H366  1  0.58242789  0.41010564  0.39505861  1
  H+  H367  1  0.34360200  0.16747721  0.07053546  1
  H+  H368  1  0.87188541  0.62997183  0.84051784  1
  H+  H369  1  0.64918450  0.32125453  0.92485191  1
  H+  H370  1  0.56379993  0.66247391  0.41456429  1
  H+  H371  1  0.32939261  0.40995531  0.06491555  1
  H+  H372  1  0.33319689  0.16489489  0.39185587  1
  H+  H373  1  0.15624089  0.28348919  0.65832025  1
  H+  H374  1  0.06882123  0.89837546  0.39517313  1
  H+  H375  1  0.42044550  0.33153403  0.23016357  1
  H+  H376  1  0.10236908  0.20712120  0.33342396  1
  H+  H377  1  0.80545631  0.65201994  0.43298698  1
  H+  H378  1  0.71305791  0.04835338  0.51772617  1
  H+  H379  1  0.03073114  0.64496622  0.00263268  1
  H+  H380  1  0.61458408  0.14608043  0.81936455  1
  H+  H381  1  0.91385662  0.82669640  0.22841703  1
  H+  H382  1  0.66004153  0.57468290  0.57184030  1
  H+  H383  1  0.66500276  0.33419695  0.59252704  1
  O2-  O384  1  0.09226427  0.17926081  0.13330060  1
  O2-  O385  1  0.13501993  0.19518818  0.47072724  1
  O2-  O386  1  0.08100720  0.15933286  0.82101374  1
  O2-  O387  1  0.09542185  0.42169629  0.14688265  1
  O2-  O388  1  0.09176902  0.42045612  0.48225824  1
  O2-  O389  1  0.08153256  0.41462351  0.81064304  1
  O2-  O390  1  0.10059568  0.67810716  0.13780548  1
  O2-  O391  1  0.08896979  0.67337311  0.48702814  1
  O2-  O392  1  0.07065178  0.65680840  0.81994880  1
  O2-  O393  1  0.08286950  0.90398215  0.14670481  1
  O2-  O394  1  0.05411751  0.88891074  0.47446492  1
  O2-  O395  1  0.08182365  0.92173779  0.83447049  1
  O2-  O396  1  0.33716065  0.16456001  0.14302719  1
  O2-  O397  1  0.33139227  0.17093730  0.46956339  1
  O2-  O398  1  0.33685461  0.17689028  0.82007875  1
  O2-  O399  1  0.33396520  0.41446519  0.14771677  1
  O2-  O400  1  0.35749131  0.42979648  0.47832256  1
  O2-  O401  1  0.35478745  0.43764903  0.80894297  1
  O2-  O402  1  0.34203457  0.66859222  0.14713960  1
  O2-  O403  1  0.34654284  0.64846192  0.48544028  1
  O2-  O404  1  0.32776937  0.66705419  0.81011435  1
  O2-  O405  1  0.33251915  0.91101176  0.14920723  1
  O2-  O406  1  0.31578102  0.92772284  0.47919015  1
  O2-  O407  1  0.31107273  0.89540714  0.79676888  1
  O2-  O408  1  0.57641150  0.17206549  0.14176826  1
  O2-  O409  1  0.62077438  0.18691610  0.46801599  1
  O2-  O410  1  0.58603107  0.17891188  0.80501585  1
  O2-  O411  1  0.58832344  0.42097011  0.14326438  1
  O2-  O412  1  0.58188114  0.41350416  0.47457386  1
  O2-  O413  1  0.58815225  0.42413660  0.82122271  1
  O2-  O414  1  0.57224099  0.67005334  0.14196690  1
  O2-  O415  1  0.54804651  0.63430210  0.49099588  1
  O2-  O416  1  0.59091262  0.66937827  0.82152090  1
  O2-  O417  1  0.61248348  0.84000864  0.12146010  1
  O2-  O418  1  0.57315789  0.89325733  0.45132561  1
  O2-  O419  1  0.57455485  0.93070864  0.81536738  1
  O2-  O420  1  0.83140072  0.17507033  0.13406149  1
  O2-  O421  1  0.84941099  0.18686946  0.45955218  1
  O2-  O422  1  0.83153139  0.16355305  0.81877569  1
  O2-  O423  1  0.83739878  0.41057413  0.14481173  1
  O2-  O424  1  0.84557956  0.41648188  0.50703988  1
  O2-  O425  1  0.83674721  0.41024001  0.81607432  1
  O2-  O426  1  0.84297780  0.65544312  0.16205927  1
  O2-  O427  1  0.80791447  0.64902917  0.47830570  1
  O2-  O428  1  0.83745805  0.65916445  0.82056742  1
  O2-  O429  1  0.82676698  0.89474494  0.12171388  1
  O2-  O430  1  0.85523458  0.93640397  0.46657215  1
  O2-  O431  1  0.83193286  0.91312616  0.80718346  1
  O2-  O432  1  0.17194391  0.07071246  0.19136137  1
  O2-  O433  1  0.17031128  0.05479815  0.51727959  1
  O2-  O434  1  0.17452410  0.09109176  0.86617344  1
  O2-  O435  1  0.16839850  0.33600579  0.19673510  1
  O2-  O436  1  0.19284321  0.35989924  0.52047641  1
  O2-  O437  1  0.14595851  0.31571893  0.85737199  1
  O2-  O438  1  0.17642133  0.59178999  0.17974012  1
  O2-  O439  1  0.16648404  0.57540630  0.52382932  1
  O2-  O440  1  0.16273357  0.58192698  0.85330153  1
  O2-  O441  1  0.16587380  0.82248403  0.17781265  1
  O2-  O442  1  0.15048936  0.83225033  0.51921165  1
  O2-  O443  1  0.15605877  0.82513170  0.85919112  1
  O2-  O444  1  0.41449109  0.07967734  0.18361567  1
  O2-  O445  1  0.38326868  0.07398567  0.52442852  1
  O2-  O446  1  0.43562709  0.10855706  0.85552027  1
  O2-  O447  1  0.42182846  0.33382069  0.18457459  1
  O2-  O448  1  0.42120366  0.33081455  0.51960989  1
  O2-  O449  1  0.41994358  0.33753039  0.86287280  1
  O2-  O450  1  0.41328186  0.57687657  0.19401751  1
  O2-  O451  1  0.46132741  0.58975038  0.51697342  1
  O2-  O452  1  0.41696550  0.58948110  0.85531133  1
  O2-  O453  1  0.41667427  0.83120891  0.19941934  1
  O2-  O454  1  0.42475392  0.82104087  0.52776710  1
  O2-  O455  1  0.40658236  0.83112389  0.84963359  1
  O2-  O456  1  0.69662829  0.15975109  0.20192749  1
  O2-  O457  1  0.68642114  0.06888956  0.48666163  1
  O2-  O458  1  0.65901473  0.08982296  0.84588795  1
  O2-  O459  1  0.66927569  0.33614684  0.18465105  1
  O2-  O460  1  0.66825604  0.33909896  0.51205594  1
  O2-  O461  1  0.66527280  0.33371491  0.85549711  1
  O2-  O462  1  0.67387752  0.58490363  0.17973572  1
  O2-  O463  1  0.64920110  0.57161204  0.52722197  1
  O2-  O464  1  0.67509886  0.58389831  0.85855374  1
  O2-  O465  1  0.69484857  0.80465273  0.22096658  1
  O2-  O466  1  0.64157872  0.81459674  0.51678367  1
  O2-  O467  1  0.68633195  0.82967214  0.86689958  1
  O2-  O468  1  0.93619458  0.06045267  0.18198188  1
  O2-  O469  1  0.79007158  0.02686450  0.53775287  1
  O2-  O470  1  0.91288541  0.07450605  0.84954615  1
  O2-  O471  1  0.92495999  0.33281103  0.18288848  1
  O2-  O472  1  0.93227245  0.33375229  0.49947290  1
  O2-  O473  1  0.91783238  0.32726607  0.86085838  1
  O2-  O474  1  0.90713410  0.56909737  0.18759879  1
  O2-  O475  1  0.91058107  0.57904600  0.51468046  1
  O2-  O476  1  0.91674263  0.59023966  0.86574374  1
  O2-  O477  1  0.91550076  0.82120759  0.18324112  1
  O2-  O478  1  0.89328063  0.81786256  0.51299992  1
  O2-  O479  1  0.91067936  0.83610903  0.86063732  1
  O2-  O480  1  0.16287068  0.06819553  0.31007413  1
  O2-  O481  1  0.17213653  0.08445212  0.67807806  1
  O2-  O482  1  0.15036609  0.07548181  0.99002129  1
  O2-  O483  1  0.16612721  0.32271609  0.32088380  1
  O2-  O484  1  0.18132726  0.34175188  0.63998673  1
  O2-  O485  1  0.15649742  0.32764575  0.98290905  1
  O2-  O486  1  0.21545022  0.60133668  0.30236383  1
  O2-  O487  1  0.14531159  0.58130765  0.63967561  1
  O2-  O488  1  0.17975459  0.60028108  0.97923810  1
  O2-  O489  1  0.17065782  0.81251523  0.33433230  1
  O2-  O490  1  0.16002641  0.84306506  0.64503760  1
  O2-  O491  1  0.17092627  0.84163833  0.98391345  1
  O2-  O492  1  0.41903629  0.08484784  0.30750348  1
  O2-  O493  1  0.40861206  0.08317432  0.64948897  1
  O2-  O494  1  0.41073734  0.08091442  0.98513115  1
  O2-  O495  1  0.41543299  0.32713232  0.30787995  1
  O2-  O496  1  0.41420163  0.32706284  0.64429079  1
  O2-  O497  1  0.40803291  0.32069410  0.98166743  1
  O2-  O498  1  0.41686294  0.58206446  0.31633827  1
  O2-  O499  1  0.43983150  0.57895824  0.64477031  1
  O2-  O500  1  0.40869305  0.56915283  0.97555912  1
  O2-  O501  1  0.44812548  0.85998668  0.31564478  1
  O2-  O502  1  0.42238406  0.83483007  0.64873709  1
  O2-  O503  1  0.41550775  0.83430978  0.97652710  1
  O2-  O504  1  0.64280027  0.07107065  0.31720302  1
  O2-  O505  1  0.66075392  0.08171962  0.66076581  1
  O2-  O506  1  0.64929173  0.08168500  0.96366461  1
  O2-  O507  1  0.66851938  0.32439329  0.30636103  1
  O2-  O508  1  0.66567214  0.33119658  0.63768010  1
  O2-  O509  1  0.63912965  0.31437075  0.97125323  1
  O2-  O510  1  0.66564960  0.57353365  0.30536388  1
  O2-  O511  1  0.68208921  0.58618116  0.65114711  1
  O2-  O512  1  0.66344853  0.57469745  0.98193058  1
  O2-  O513  1  0.66692616  0.82513979  0.33179999  1
  O2-  O514  1  0.66414249  0.82845746  0.64384261  1
  O2-  O515  1  0.68380298  0.84953695  1.01035584  1
  O2-  O516  1  0.90217035  0.08025380  0.30517625  1
  O2-  O517  1  0.87756408  0.05110179  0.64183465  1
  O2-  O518  1  0.90997021  0.07002457  0.97358699  1
  O2-  O519  1  0.90267488  0.32079877  0.31075043  1
  O2-  O520  1  0.86385088  0.30287659  0.62489776  1
  O2-  O521  1  0.93891623  0.34742140  0.98645641  1
  O2-  O522  1  0.93945396  0.58514281  0.30757737  1
  O2-  O523  1  0.89991493  0.56960239  0.63071133  1
  O2-  O524  1  0.93338827  0.59467125  0.97874694  1
  O2-  O525  1  0.90850723  0.82523632  0.30741162  1
  O2-  O526  1  0.94748743  0.83916484  0.66122317  1
  O2-  O527  1  0.93007631  0.80869484  0.98036636  1
  O2-  O528  1  0.06344498  0.16342310  0.02016469  1
  O2-  O529  1  0.06619391  0.14528015  0.34352614  1
  O2-  O530  1  0.11110919  0.18147691  0.69675527  1
  O2-  O531  1  0.10239346  0.43747397  0.01945058  1
  O2-  O532  1  0.06642952  0.39732049  0.36252994  1
  O2-  O533  1  0.08332645  0.41797768  0.68270124  1
  O2-  O534  1  0.09154147  0.67569786  0.02043063  1
  O2-  O535  1  0.09063028  0.64279949  0.34346863  1
  O2-  O536  1  0.08166438  0.68746644  0.69493538  1
  O2-  O537  1  0.08423131  0.91808610  0.02868511  1
  O2-  O538  1  0.07785222  0.90429796  0.35034101  1
  O2-  O539  1  0.09443181  0.92765456  0.71273319  1
  O2-  O540  1  0.34865020  0.16824656  0.02430066  1
  O2-  O541  1  0.33080122  0.16084264  0.34646021  1
  O2-  O542  1  0.33518009  0.17345460  0.69604077  1
  O2-  O543  1  0.32686646  0.40439879  0.01989699  1
  O2-  O544  1  0.33728159  0.41309809  0.35609785  1
  O2-  O545  1  0.34045548  0.42180217  0.68438308  1
  O2-  O546  1  0.34728947  0.67115234  0.02006360  1
  O2-  O547  1  0.35044096  0.71592877  0.36592713  1
  O2-  O548  1  0.30227046  0.66663064  0.68405393  1
  O2-  O549  1  0.33778615  0.91748805  0.02380301  1
  O2-  O550  1  0.34856629  0.92203741  0.35870084  1
  O2-  O551  1  0.32632442  0.90821491  0.67947502  1
  O2-  O552  1  0.57163763  0.15434495  0.01854870  1
  O2-  O553  1  0.59509429  0.16935094  0.34993726  1
  O2-  O554  1  0.57952217  0.16683289  0.68468210  1
  O2-  O555  1  0.57255074  0.40776206  0.02101715  1
  O2-  O556  1  0.57967628  0.40657925  0.34970398  1
  O2-  O557  1  0.56074308  0.37589643  0.69707671  1
  O2-  O558  1  0.57875847  0.64881308  0.02214539  1
  O2-  O559  1  0.57617201  0.67705792  0.37086648  1
  O2-  O560  1  0.59810369  0.67177851  0.69761337  1
  O2-  O561  1  0.59104436  0.92759386  0.00126855  1
  O2-  O562  1  0.54148039  0.90325528  0.33076808  1
  O2-  O563  1  0.58150716  0.90577236  0.69112256  1
  O2-  O564  1  0.80334556  0.17383463  0.00700174  1
  O2-  O565  1  0.81069838  0.15265672  0.34312174  1
  O2-  O566  1  0.82973604  0.16309644  0.69350094  1
  O2-  O567  1  0.87113009  0.42634296  0.02704661  1
  O2-  O568  1  0.83485807  0.42285321  0.35158164  1
  O2-  O569  1  0.83086039  0.41271093  0.68784003  1
  O2-  O570  1  0.81880882  0.63910624  0.02357048  1
  O2-  O571  1  0.81276319  0.65814746  0.35515901  1
  O2-  O572  1  0.84134450  0.66458849  0.69822392  1
  O2-  O573  1  0.77825053  0.89900875  0.00792188  1
  O2-  O574  1  0.82957138  0.91287418  0.35104657  1
  O2-  O575  1  0.83469861  0.90390224  0.68842091  1
