# generated using pymatgen
data_H2O
_symmetry_space_group_name_H-M   'P 1'
_cell_length_a   17.97555321
_cell_length_b   17.96776672
_cell_length_c   21.96240311
_cell_angle_alpha   90.01746529
_cell_angle_beta   90.02566652
_cell_angle_gamma   120.01708516
_symmetry_Int_Tables_number   1
_chemical_formula_structural   H2O
_chemical_formula_sum   'H384 O192'
_cell_volume   6142.03004570
_cell_formula_units_Z   192
loop_
 _symmetry_equiv_pos_site_id
 _symmetry_equiv_pos_as_xyz
  1  'x, y, z'
loop_
 _atom_type_symbol
 _atom_type_oxidation_number
  H+  1.0
  O2-  -2.0
loop_
 _atom_site_type_symbol
 _atom_site_label
 _atom_site_symmetry_multiplicity
 _atom_site_fract_x
 _atom_site_fract_y
 _atom_site_fract_z
 _atom_site_occupancy
  H+  H0  1  0.27838683  0.13892584  0.66765893  1
  H+  H1  1  0.34753053  0.88795237  0.50628033  1
  H+  H2  1  0.09835698  0.72358382  0.01518295  1
  H+  H3  1  0.34425888  0.47137143  0.32772253  1
  H+  H4  1  0.73007481  0.36402867  0.32144731  1
  H+  H5  1  0.87052887  0.23613482  0.66772525  1
  H+  H6  1  0.22218452  0.85832769  0.17956325  1
  H+  H7  1  0.88921598  0.03208486  0.50632818  1
  H+  H8  1  0.77384536  0.64342214  0.00918025  1
  H+  H9  1  0.10650446  0.47354476  0.82871570  1
  H+  H10  1  0.10357536  0.46075673  0.00517528  1
  H+  H11  1  0.35778385  0.62813025  0.16484660  1
  H+  H12  1  0.19407948  0.96759466  0.61137249  1
  H+  H13  1  0.36258933  0.65432800  0.68366619  1
  H+  H14  1  0.36271205  0.89230128  0.82742846  1
  H+  H15  1  0.86405873  0.39735130  0.49589636  1
  H+  H16  1  0.62916890  0.52157487  0.65747521  1
  H+  H17  1  0.10832915  0.88519903  0.49424575  1
  H+  H18  1  0.50614240  0.17443013  0.11989421  1
  H+  H19  1  0.37274830  0.76893148  0.51490275  1
  H+  H20  1  0.73201294  0.09699133  0.17482677  1
  H+  H21  1  0.14525130  0.64489422  0.19236772  1
  H+  H22  1  0.63893320  0.36488697  0.83897338  1
  H+  H23  1  0.77174572  0.64312289  0.16388956  1
  H+  H24  1  0.86142204  0.11696536  0.18636286  1
  H+  H25  1  0.64421203  0.52995890  0.32647576  1
  H+  H26  1  0.01081753  0.82815530  0.67868064  1
  H+  H27  1  0.27972263  0.63417333  0.49477829  1
  H+  H28  1  0.96974909  0.35921177  0.84343794  1
  H+  H29  1  0.39437763  0.61922400  0.32920449  1
  H+  H30  1  0.77325454  0.46091765  0.09749830  1
  H+  H31  1  0.23118490  0.63643587  0.18902436  1
  H+  H32  1  0.35034444  0.46661994  0.78779950  1
  H+  H33  1  0.38283113  -0.01092190  0.35302844  1
  H+  H34  1  0.87209977  0.97844136  -0.00151446  1
  H+  H35  1  0.10907007  0.38610994  0.83116771  1
  H+  H36  1  0.62209044  0.98146844  0.67390120  1
  H+  H37  1  0.71907514  0.84766495  0.98519382  1
  H+  H38  1  0.26638945  0.38073177  0.17598882  1
  H+  H39  1  0.13352197  0.85830627  0.99421300  1
  H+  H40  1  0.63151743  0.27299533  0.65969702  1
  H+  H41  1  0.90661167  0.39995120  0.02647683  1
  H+  H42  1  0.88050023  0.60928912  0.33023425  1
  H+  H43  1  0.71352304  0.61502348  0.65781370  1
  H+  H44  1  0.73741247  0.61545709  0.84574619  1
  H+  H45  1  0.89359836  0.77461087  0.99779148  1
  H+  H46  1  0.86580435  0.22856659  0.82310952  1
  H+  H47  1  0.88609485  0.28449669  0.50156047  1
  H+  H48  1  0.72757168  0.36346916  0.83803394  1
  H+  H49  1  0.39599852  0.87623328  0.66313743  1
  H+  H50  1  0.21459107  0.36652253  0.28859344  1
  H+  H51  1  0.10723366  0.22631879  0.48677033  1
  H+  H52  1  0.35759550  0.87912511  0.15516882  1
  H+  H53  1  0.38859563  0.27072293  0.48784939  1
  H+  H54  1  0.40216302  0.40097706  0.85618216  1
  H+  H55  1  0.77889459  0.89424522  0.49530154  1
  H+  H56  1  0.53125862  0.89431292  0.67255882  1
  H+  H57  1  0.91353599  0.11683735  0.00077114  1
  H+  H58  1  0.98806995  0.86657617  0.17791582  1
  H+  H59  1  0.77081493  0.63517387  0.49530790  1
  H+  H60  1  0.48187312  0.61755527  0.32725813  1
  H+  H61  1  0.19474321  0.58392388  0.99791954  1
  H+  H62  1  0.36593239  0.41581970  0.61436748  1
  H+  H63  1  0.77747476  0.88352111  0.67828242  1
  H+  H64  1  0.35043271  0.22225757  0.16764888  1
  H+  H65  1  0.88189147  0.61908675  0.17651489  1
  H+  H66  1  0.88786355  0.86371001  0.66349215  1
  H+  H67  1  0.06339581  0.99970578  0.73041656  1
  H+  H68  1  0.63857341  0.86900224  0.17184821  1
  H+  H69  1  0.12192714  0.88811445  0.16822095  1
  H+  H70  1  0.36434667  0.64929416  0.83871844  1
  H+  H71  1  0.63308368  0.61223904  0.17168526  1
  H+  H72  1  0.14910578  0.28272936  0.83969566  1
  H+  H73  1  0.77119628  0.39195179  0.49721700  1
  H+  H74  1  0.47834791  0.11291674  0.66325378  1
  H+  H75  1  0.62484354  -0.01179818  0.32208951  1
  H+  H76  1  0.18843259  0.84142499  0.28072965  1
  H+  H77  1  0.86456604  0.48064861  0.82853015  1
  H+  H78  1  0.46830704  0.16048954  0.14071219  1
  H+  H79  1  0.87280528  0.62108979  0.83542520  1
  H+  H80  1  0.35591035  0.47744756  0.56776471  1
  H+  H81  1  0.86197023  0.14629305  0.49197523  1
  H+  H82  1  0.14368750  0.10850913  0.99548077  1
  H+  H83  1  0.13518973  0.85483374  0.84042596  1
  H+  H84  1  0.36211745  0.13403072  0.49348981  1
  H+  H85  1  0.12324803  0.60528680  0.84062857  1
  H+  H86  1  0.36539027  0.26324866  0.64784671  1
  H+  H87  1  0.50675506  0.89764470  0.99150770  1
  H+  H88  1  0.52209215  0.38588189  0.67550668  1
  H+  H89  1  0.61670549  0.73262423  0.00169370  1
  H+  H90  1  0.97226197  0.36420557  0.32645063  1
  H+  H91  1  0.08312787  0.16461627  0.06749368  1
  H+  H92  1  0.63893650  0.62267449  0.99721307  1
  H+  H93  1  0.63650473  0.36578794  0.50250962  1
  H+  H94  1  0.09270291  0.17377988  0.42564464  1
  H+  H95  1  0.42276607  0.89621122  0.39203600  1
  H+  H96  1  0.76779777  0.38410660  0.67152830  1
  H+  H97  1  0.37451110  0.11491797  0.82338041  1
  H+  H98  1  0.66100271  0.40178124  0.99076988  1
  H+  H99  1  0.55933171  0.91522448  0.36814516  1
  H+  H100  1  0.49948220  0.85278108  0.29546832  1
  H+  H101  1  0.00046264  0.14740414  0.65150031  1
  H+  H102  1  0.72878220  0.11693129  0.82640672  1
  H+  H103  1  0.56715722  0.10950136  0.05385780  1
  H+  H104  1  0.89523672  0.86029671  0.17847741  1
  H+  H105  1  0.36698286  0.22995911  0.01110684  1
  H+  H106  1  0.88648843  0.86625698  0.50556476  1
  H+  H107  1  0.62062784  0.23150614  0.33649430  1
  H+  H108  1  0.97016181  0.09974957  0.19037531  1
  H+  H109  1  0.61255854  0.72746247  0.16098691  1
  H+  H110  1  0.77321113  0.14648060  0.49497768  1
  H+  H111  1  0.39020276  0.36041964  1.00408648  1
  H+  H112  1  0.33712028  0.16332310  0.39674803  1
  H+  H113  1  0.42899891  0.81308911  0.39424273  1
  H+  H114  1  0.83942087  0.92659818  0.43610166  1
  H+  H115  1  0.86468364  0.88367696  0.83405639  1
  H+  H116  1  0.65029191  0.13524829  0.14465765  1
  H+  H117  1  0.60963473  0.38418972  0.67130289  1
  H+  H118  1  0.14914750  0.32990946  0.55792247  1
  H+  H119  1  0.52789602  0.63777838  0.00933985  1
  H+  H120  1  0.89399277  1.00440938  0.18410799  1
  H+  H121  1  0.63288256  0.12290772  0.50522673  1
  H+  H122  1  0.60676837  0.63536681  0.67712796  1
  H+  H123  1  0.97093692  0.34152043  0.17660959  1
  H+  H124  1  0.61974340  0.14147141  0.33538713  1
  H+  H125  1  0.28576645  0.13555721  0.33361580  1
  H+  H126  1  0.64079114  0.85910877  0.51270652  1
  H+  H127  1  0.87191362  0.51665265  0.51024330  1
  H+  H128  1  0.64804243  0.61830382  0.84291552  1
  H+  H129  1  0.61544572  0.63549542  0.49108883  1
  H+  H130  1  0.40640418  0.27715193  0.32844116  1
  H+  H131  1  0.38083284  0.35831378  0.17759287  1
  H+  H132  1  0.15979653  0.12308788  0.32201328  1
  H+  H133  1  0.23159817  0.35572706  0.99786637  1
  H+  H134  1  0.48769645  0.11713084  0.32674725  1
  H+  H135  1  0.39054252  0.78943537  0.85282501  1
  H+  H136  1  0.34529045  0.00304306  0.18281889  1
  H+  H137  1  0.63872897  1.00819780  0.17107144  1
  H+  H138  1  0.87330248  0.52839900  0.16965672  1
  H+  H139  1  0.10547774  0.38159790  0.31847755  1
  H+  H140  1  0.14491389  1.02516387  0.32689883  1
  H+  H141  1  0.11097028  0.47040992  0.33411896  1
  H+  H142  1  0.47503397  0.61052338  0.17299851  1
  H+  H143  1  0.83566466  0.91614300  0.05653074  1
  H+  H144  1  0.02778476  -0.00912289  0.70837487  1
  H+  H145  1  0.73431824  0.12023572  0.66029842  1
  H+  H146  1  0.58660917  0.66789804  0.74111773  1
  H+  H147  1  0.37440780  0.64413186  0.49891372  1
  H+  H148  1  0.88493658  0.36893384  0.32731399  1
  H+  H149  1  0.17400398  0.60611017  0.27907001  1
  H+  H150  1  0.78689963  0.89994992  0.33555401  1
  H+  H151  1  0.77616760  0.88488227  0.83475805  1
  H+  H152  1  0.86885906  0.14080176  0.82108004  1
  H+  H153  1  0.66094757  0.57899302  0.56210868  1
  H+  H154  1  1.07830973  0.62772785  1.01847657  1
  H+  H155  1  0.36738007  0.74389421  0.68396736  1
  H+  H156  1  0.37475782  0.58149973  1.00247351  1
  H+  H157  1  0.90723514  0.22952395  0.03158838  1
  H+  H158  1  0.45146902  0.08378303  0.99397440  1
  H+  H159  1  0.90079758  0.14218009  0.65389889  1
  H+  H160  1  0.03153053  0.14316642  0.82456867  1
  H+  H161  1  0.36761240  0.13760566  0.66962505  1
  H+  H162  1  0.53597952  0.39209274  0.33579413  1
  H+  H163  1  0.91636601  0.33992315  0.59662987  1
  H+  H164  1  0.21851582  0.85226795  0.99511347  1
  H+  H165  1  0.27586817  0.87839869  0.66717988  1
  H+  H166  1  0.52793625  0.89288732  0.82761768  1
  H+  H167  1  0.33749572  0.12452817  0.17100420  1
  H+  H168  1  0.12339871  0.25154335  0.66619508  1
  H+  H169  1  0.27191163  0.13366380  0.49007329  1
  H+  H170  1  0.13863245  0.77296483  0.48778822  1
  H+  H171  1  0.87901478  0.61277262  0.66253867  1
  H+  H172  1  0.77534318  0.64449249  0.34309621  1
  H+  H173  1  0.48378212  0.62203967  0.51017856  1
  H+  H174  1  0.36640988  0.46687834  0.01416892  1
  H+  H175  1  0.61343160  0.48764860  1.01199934  1
  H+  H176  1  0.85479483  0.47379010  0.67107879  1
  H+  H177  1  0.96565869  0.60373370  0.66467198  1
  H+  H178  1  0.25543858  0.36927703  0.48178609  1
  H+  H179  1  0.20990622  0.74074817  0.42302935  1
  H+  H180  1  0.52334021  0.14053728  0.49015467  1
  H+  H181  1  0.63478007  0.03558837  0.50725520  1
  H+  H182  1  0.43892602  0.85806532  0.49048781  1
  H+  H183  1  0.61671128  0.14124484  0.67559946  1
  H+  H184  1  0.16973197  0.80952640  0.59109209  1
  H+  H185  1  0.88323973  0.36497065  0.65702070  1
  H+  H186  1  0.13797673  0.05069934  0.65377210  1
  H+  H187  1  0.84874163  0.73880129  0.67431840  1
  H+  H188  1  0.85928774  0.48069723  0.33712774  1
  H+  H189  1  0.02255225  0.38744806  0.67322065  1
  H+  H190  1  0.12260365  0.22214580  0.00842144  1
  H+  H191  1  1.01623274  0.63885100  0.17204684  1
  H+  H192  1  0.62068874  0.72754270  0.83092856  1
  H+  H193  1  0.16383499  0.87542029  0.33834237  1
  H+  H194  1  0.00756849  0.20262400  0.12116000  1
  H+  H195  1  0.48195649  0.38622912  0.84887742  1
  H+  H196  1  0.88461116  0.77557912  0.50586675  1
  H+  H197  1  0.12915635  0.77419245  0.18519860  1
  H+  H198  1  0.48489881  0.97028686  0.98410759  1
  H+  H199  1  0.13718954  1.01249971  0.17347772  1
  H+  H200  1  0.86517559  0.73039645  0.16721338  1
  H+  H201  1  0.62021602  0.64495497  0.33755695  1
  H+  H202  1  0.88111538  0.35922844  0.84455252  1
  H+  H203  1  0.07984903  0.41150202  0.73329094  1
  H+  H204  1  0.32764188  0.91502122  0.73066237  1
  H+  H205  1  0.65545055  1.01492353  -0.01950502  1
  H+  H206  1  0.87235327  0.61371725  0.50814246  1
  H+  H207  1  0.62407223  0.86843203  -0.00305263  1
  H+  H208  1  0.72740782  0.12066487  0.32027381  1
  H+  H209  1  0.52943510  0.64133595  0.83448275  1
  H+  H210  1  0.62015289  0.72642968  0.49422412  1
  H+  H211  1  0.63692593  0.77366940  0.66446177  1
  H+  H212  1  0.65313185  0.78491512  0.32850764  1
  H+  H213  1  0.34597405  0.37354954  0.47310593  1
  H+  H214  1  0.61148845  0.13927386  0.82412274  1
  H+  H215  1  0.33344158  0.92744131  0.44427953  1
  H+  H216  1  1.00282043  0.61931608  0.83181961  1
  H+  H217  1  0.90425875  0.48721031  0.01827755  1
  H+  H218  1  0.13462832  0.11511978  0.49847922  1
  H+  H219  1  0.52670900  0.38809646  0.48218741  1
  H+  H220  1  0.35875795  0.89178696  0.01177439  1
  H+  H221  1  0.47609086  0.11461426  0.82805223  1
  H+  H222  1  0.37368743  0.51901648  0.84855661  1
  H+  H223  1  0.64165851  0.85958501  0.84318538  1
  H+  H224  1  0.60562808  0.37934764  0.16105061  1
  H+  H225  1  0.28691112  0.65214335  0.34861718  1
  H+  H226  1  0.63668455  0.52133934  0.50087002  1
  H+  H227  1  0.47795981  0.85612122  0.14945800  1
  H+  H228  1  0.12001614  0.97580052  0.01034955  1
  H+  H229  1  0.27112981  0.12363893  0.82449546  1
  H+  H230  1  0.10966601  0.96466091  0.82637709  1
  H+  H231  1  0.34220872  0.97045688  0.01180660  1
  H+  H232  1  0.59918440  0.08875672  -0.00742552  1
  H+  H233  1  0.88946989  0.76377722  0.84649047  1
  H+  H234  1  0.48268806  0.63448458  0.67178338  1
  H+  H235  1  0.77874754  0.70430682  0.72582379  1
  H+  H236  1  0.13370725  0.02483188  0.50456575  1
  H+  H237  1  0.24541191  0.51512340  0.05162427  1
  H+  H238  1  0.15385281  0.94230590  0.62994276  1
  H+  H239  1  0.11780399  0.37758214  0.00661476  1
  H+  H240  1  0.11452256  0.47818139  0.48456493  1
  H+  H241  1  0.65493461  0.87535689  0.32370193  1
  H+  H242  1  0.19173723  0.70521875  0.62933023  1
  H+  H243  1  0.64659628  0.26745343  0.16338388  1
  H+  H244  1  -0.02408540  0.37274730  0.49925001  1
  H+  H245  1  0.29565976  0.89694465  0.35179558  1
  H+  H246  1  0.13384408  0.79882589  0.65831513  1
  H+  H247  1  0.09186425  0.62329544  0.67561362  1
  H+  H248  1  0.46974982  0.35721635  0.17227362  1
  H+  H249  1  0.08582109  0.23608741  0.16871785  1
  H+  H250  1  0.14269841  0.11218186  0.83903576  1
  H+  H251  1  0.11155707  0.37865947  0.17157423  1
  H+  H252  1  0.86803831  0.73099779  0.34612465  1
  H+  H253  1  0.35206879  0.75168593  0.97075098  1
  H+  H254  1  0.63669433  0.27661289  0.50340089  1
  H+  H255  1  0.85418847  0.23036998  0.33551567  1
  H+  H256  1  0.38715385  0.02389074  0.66134278  1
  H+  H257  1  0.41138160  0.76382519  0.30328784  1
  H+  H258  1  0.63946994  0.86439380  0.66142364  1
  H+  H259  1  0.89502751  0.86499297  0.99362355  1
  H+  H260  1  0.23186931  0.37870072  0.84634508  1
  H+  H261  1  0.99099896  0.10496949  0.98702875  1
  H+  H262  1  0.62614339  0.39444495  0.33410934  1
  H+  H263  1  0.21766393  0.86396011  0.50279602  1
  H+  H264  1  0.69439549  0.20804936  0.09436538  1
  H+  H265  1  0.97809285  0.11992448  0.49702055  1
  H+  H266  1  0.39410049  0.55313984  0.64840899  1
  H+  H267  1  0.38528113  0.02756727  0.51115328  1
  H+  H268  1  0.64001128  0.02672199  0.82873797  1
  H+  H269  1  0.13398271  0.37643908  0.65612356  1
  H+  H270  1  0.86094104  0.58722681  0.99242363  1
  H+  H271  1  0.12312064  0.35787507  0.49589743  1
  H+  H272  1  0.75828774  0.85951668  0.15599786  1
  H+  H273  1  0.89335127  0.02680629  0.83806057  1
  H+  H274  1  0.62250365  0.48417150  0.83125415  1
  H+  H275  1  0.67148205  0.83228625  0.57258779  1
  H+  H276  1  0.14069818  0.24125165  0.31705444  1
  H+  H277  1  0.98233028  0.34993937  0.99753171  1
  H+  H278  1  0.31805501  0.70733302  -0.01975927  1
  H+  H279  1  0.43380227  0.86851120  0.90204830  1
  H+  H280  1  0.23523178  0.65376271  0.65568670  1
  H+  H281  1  0.21681488  0.61303943  0.84484849  1
  H+  H282  1  0.43652459  0.62008337  0.57250454  1
  H+  H283  1  0.79701327  0.81405937  0.11619612  1
  H+  H284  1  0.46270950  0.67505212  0.88875970  1
  H+  H285  1  0.03818730  0.89348619  0.34210062  1
  H+  H286  1  0.57158479  0.90223951  0.20643634  1
  H+  H287  1  0.22776997  0.11468568  0.17264324  1
  H+  H288  1  0.13061453  0.65178286  0.40424714  1
  H+  H289  1  0.58457932  0.67018698  0.10035631  1
  H+  H290  1  0.58407158  0.17099467  0.73388158  1
  H+  H291  1  0.40980008  0.32908211  0.54545139  1
  H+  H292  1  0.33220203  0.67961887  0.78049239  1
  H+  H293  1  0.58101184  0.41689964  0.10320686  1
  H+  H294  1  0.80355682  0.48879428  0.97199796  1
  H+  H295  1  0.37489379  0.10474628  1.00261886  1
  H+  H296  1  0.42171292  0.09115766  0.56778933  1
  H+  H297  1  0.61093061  0.22890204  0.82816114  1
  H+  H298  1  0.05437072  0.63652211  0.73990082  1
  H+  H299  1  0.31800092  0.90846800  0.10236531  1
  H+  H300  1  0.12325574  0.16182056  0.66335305  1
  H+  H301  1  0.16535946  0.82520482  0.89928264  1
  H+  H302  1  0.29900008  0.60811357  0.07969050  1
  H+  H303  1  0.67057907  0.59000415  0.93902958  1
  H+  H304  1  0.58539233  0.16997366  0.43049918  1
  H+  H305  1  0.69066033  0.36977219  0.93301521  1
  H+  H306  1  0.32889184  0.16988205  0.07075077  1
  H+  H307  1  0.63487287  0.52341660  0.17367777  1
  H+  H308  1  0.82213052  0.16970840  0.39323543  1
  H+  H309  1  0.89963959  0.01911650  0.29177447  1
  H+  H310  1  0.83454407  0.67041903  0.06784893  1
  H+  H311  1  0.92519173  0.08930752  0.89526170  1
  H+  H312  1  0.16697919  0.07597274  0.23683171  1
  H+  H313  1  0.90321989  0.87034340  0.33072894  1
  H+  H314  1  0.38294347  0.01934546  0.82813512  1
  H+  H315  1  0.22631891  0.38849052  0.63341946  1
  H+  H316  1  0.41997047  0.57860575  0.93992783  1
  H+  H317  1  0.33032526  0.15848777  0.76302553  1
  H+  H318  1  0.09232456  0.17767369  0.76635736  1
  H+  H319  1  0.67125134  0.58968391  0.26738715  1
  H+  H320  1  0.91083213  0.31904979  0.23507488  1
  H+  H321  1  0.66462781  0.82384843  0.90556510  1
  H+  H322  1  0.30254008  0.28101898  0.61136325  1
  H+  H323  1  0.93093865  0.83602867  0.27337008  1
  H+  H324  1  0.58629980  0.91550176  0.76759105  1
  H+  H325  1  0.67026081  0.09145237  0.60361129  1
  H+  H326  1  0.09348882  0.92801580  0.40259561  1
  H+  H327  1  0.16318469  0.62524239  0.48947098  1
  H+  H328  1  0.42232703  0.34231837  0.94104698  1
  H+  H329  1  0.83533723  0.91045617  0.73816742  1
  H+  H330  1  0.09309063  0.91794460  0.10572080  1
  H+  H331  1  0.23326431  0.11145394  0.99398331  1
  H+  H332  1  0.71966351  0.36454405  0.16333680  1
  H+  H333  1  0.42222029  0.84255450  0.60430299  1
  H+  H334  1  0.60387894  0.90930523  0.05806259  1
  H+  H335  1  0.08251277  0.41647628  0.42579058  1
  H+  H336  1  0.90231824  0.58280752  0.57424798  1
  H+  H337  1  0.35608998  0.47066536  0.16978799  1
  H+  H338  1  0.34593793  0.67368889  0.40724663  1
  H+  H339  1  0.17001618  0.09866294  0.59035904  1
  H+  H340  1  0.14433070  0.56899459  0.93536823  1
  H+  H341  1  0.59011926  0.67387988  0.39711220  1
  H+  H342  1  0.06978251  0.85407772  0.73688222  1
  H+  H343  1  0.39746666  0.11477021  0.33118418  1
  H+  H344  1  0.67818756  0.83701561  0.22864213  1
  H+  H345  1  0.67469411  0.07636678  0.92286911  1
  H+  H346  1  0.83313553  0.41472112  0.77094989  1
  H+  H347  1  0.86781892  0.21053497  0.17756139  1
  H+  H348  1  0.59351853  0.42137443  0.42657511  1
  H+  H349  1  0.93281583  0.10937278  0.58826123  1
  H+  H350  1  0.90520068  0.57833643  0.26934801  1
  H+  H351  1  0.92083157  0.82800519  0.90379352  1
  H+  H352  1  0.83326923  0.66646699  0.43642816  1
  H+  H353  1  0.21086306  0.25199973  0.36223958  1
  H+  H354  1  0.30080480  0.40899896  0.38315512  1
  H+  H355  1  0.84668186  0.43662547  0.09498276  1
  H+  H356  1  0.02918641  0.88794122  0.01232477  1
  H+  H357  1  0.91270428  0.31823829  0.94414444  1
  H+  H358  1  0.58670887  0.42427109  0.77207717  1
  H+  H359  1  0.66039617  0.33263449  0.59952511  1
  H+  H360  1  0.91307289  0.83183672  0.60148641  1
  H+  H361  1  0.82909575  0.42093317  0.39682949  1
  H+  H362  1  0.84686773  0.17417167  0.72744609  1
  H+  H363  1  0.09752333  0.70966853  0.82806338  1
  H+  H364  1  0.52751735  0.39382063  0.00987819  1
  H+  H365  1  0.26964908  0.88568214  0.82755655  1
  H+  H366  1  0.38370759  0.06469377  0.24128773  1
  H+  H367  1  0.41952428  0.58436128  0.23458293  1
  H+  H368  1  0.36089783  0.71659604  0.14647607  1
  H+  H369  1  0.08142776  0.40074719  0.10852898  1
  H+  H370  1  0.02007595  0.87628149  0.83219206  1
  H+  H371  1  0.17120966  0.08042018  0.89824548  1
  H+  H372  1  0.87479330  0.16533024  0.08929624  1
  H+  H373  1  0.17324181  0.32923751  0.93669171  1
  H+  H374  1  0.66921274  0.32971953  0.26160038  1
  H+  H375  1  0.17582905  0.60230392  0.55739587  1
  H+  H376  1  0.41879443  0.81924692  0.20568161  1
  H+  H377  1  0.84250532  0.66194922  0.77879546  1
  H+  H378  1  0.90589782  0.56727868  0.89395319  1
  H+  H379  1  0.02157116  0.88981235  0.49497142  1
  H+  H380  1  0.42859477  0.33518215  0.26990180  1
  H+  H381  1  0.66745565  0.08708585  0.25901158  1
  H+  H382  1  0.07478168  0.67250399  0.11249187  1
  H+  H383  1  0.32933186  0.40912782  0.07541103  1
  O2-  O384  1  0.04318152  0.18459948  0.14386272  1
  O2-  O385  1  0.08098618  0.16569355  0.46991139  1
  O2-  O386  1  0.09329531  0.17419774  0.81124720  1
  O2-  O387  1  0.07567221  0.40086484  0.15322270  1
  O2-  O388  1  0.07992879  0.41708221  0.47118829  1
  O2-  O389  1  0.07600247  0.41224801  0.81431044  1
  O2-  O390  1  0.07725447  0.67370550  0.15849814  1
  O2-  O391  1  0.15489241  0.69682251  0.43947410  1
  O2-  O392  1  0.06700795  0.64866765  0.81536062  1
  O2-  O393  1  0.09288822  0.92063125  0.15162674  1
  O2-  O394  1  0.08297032  0.92139964  0.48137484  1
  O2-  O395  1  0.07997219  0.90295540  0.81525676  1
  O2-  O396  1  0.31502115  0.16161255  0.15176165  1
  O2-  O397  1  0.33205842  0.16263221  0.47451458  1
  O2-  O398  1  0.33154224  0.15141452  0.80800903  1
  O2-  O399  1  0.32481096  0.40933439  0.15608782  1
  O2-  O400  1  0.31277111  0.40195535  0.46248287  1
  O2-  O401  1  0.34224533  0.45867902  0.83168993  1
  O2-  O402  1  0.32388303  0.65225777  0.14549035  1
  O2-  O403  1  0.34156648  0.67197039  0.48231315  1
  O2-  O404  1  0.33078319  0.67796427  0.82593450  1
  O2-  O405  1  0.32169549  0.90641952  0.14800377  1
  O2-  O406  1  0.32337979  0.92349700  0.49016023  1
  O2-  O407  1  0.32976817  0.91904599  0.81004751  1
  O2-  O408  1  0.64310763  0.17951123  0.11965155  1
  O2-  O409  1  0.58468699  0.17052225  0.47651714  1
  O2-  O410  1  0.57898068  0.16861373  0.81085899  1
  O2-  O411  1  0.57819724  0.41358250  0.14904982  1
  O2-  O412  1  0.58957551  0.41961401  0.47262847  1
  O2-  O413  1  0.58795390  0.42289994  0.81700403  1
  O2-  O414  1  0.58221579  0.66639358  0.14621402  1
  O2-  O415  1  0.58639156  0.66766815  0.47694772  1
  O2-  O416  1  0.58915979  0.66591204  0.81605046  1
  O2-  O417  1  0.59039707  0.90971878  0.16406293  1
  O2-  O418  1  0.45848666  0.87244163  0.40945630  1
  O2-  O419  1  0.58841195  0.91904550  0.81289561  1
  O2-  O420  1  0.83702495  0.14679181  0.16339318  1
  O2-  O421  1  0.83262853  0.17791593  0.47868849  1
  O2-  O422  1  0.83930971  0.17021827  0.80299571  1
  O2-  O423  1  0.80283996  0.44095448  0.12439184  1
  O2-  O424  1  0.83264107  0.42851700  0.48387061  1
  O2-  O425  1  0.83227019  0.41547993  0.81592352  1
  O2-  O426  1  0.83209123  0.67250996  0.14803174  1
  O2-  O427  1  0.83309983  0.66506963  0.48275597  1
  O2-  O428  1  0.84144697  0.65951429  0.82337914  1
  O2-  O429  1  0.81523618  0.86921365  0.13596065  1
  O2-  O430  1  0.83980337  0.92700067  0.48141191  1
  O2-  O431  1  0.83692706  0.91633862  0.81898258  1
  O2-  O432  1  0.16400531  0.07533494  0.18966070  1
  O2-  O433  1  0.16551169  0.08721081  0.51717382  1
  O2-  O434  1  0.17086664  0.07940212  0.85256134  1
  O2-  O435  1  0.16300927  0.32667042  0.20530178  1
  O2-  O436  1  0.14860101  0.32340748  0.51267348  1
  O2-  O437  1  0.17124699  0.34024271  0.85903360  1
  O2-  O438  1  0.18782688  0.63695485  0.21651113  1
  O2-  O439  1  0.17614361  0.58607768  0.51384927  1
  O2-  O440  1  0.15541615  0.57637434  0.85660612  1
  O2-  O441  1  0.16396500  0.83624473  0.19837055  1
  O2-  O442  1  0.15511451  0.82497156  0.51270130  1
  O2-  O443  1  0.16837845  0.82643651  0.85364704  1
  O2-  O444  1  0.34978203  0.05443630  0.20346603  1
  O2-  O445  1  0.42007965  0.09017912  0.52224068  1
  O2-  O446  1  0.41267736  0.08305358  0.83894366  1
  O2-  O447  1  0.41016338  0.32544112  0.18923427  1
  O2-  O448  1  0.41814623  0.33247569  0.50083858  1
  O2-  O449  1  0.42466813  0.36311360  0.86810855  1
  O2-  O450  1  0.41489631  0.57981429  0.18902452  1
  O2-  O451  1  0.42630406  0.60050384  0.52935949  1
  O2-  O452  1  0.43585220  0.61860770  0.86947829  1
  O2-  O453  1  0.41508887  0.82429393  0.16033294  1
  O2-  O454  1  0.40057555  0.83160442  0.52618670  1
  O2-  O455  1  0.42375744  0.85322565  0.85763198  1
  O2-  O456  1  0.66907560  0.07292121  0.18305798  1
  O2-  O457  1  0.66460850  0.09412307  0.52303558  1
  O2-  O458  1  0.66836309  0.08864482  0.84135522  1
  O2-  O459  1  0.66262159  0.32395987  0.18231610  1
  O2-  O460  1  0.66656166  0.33625507  0.52043408  1
  O2-  O461  1  0.66644908  0.33162632  0.85323067  1
  O2-  O462  1  0.66577708  0.58455827  0.18776819  1
  O2-  O463  1  0.66674049  0.58211286  0.51670434  1
  O2-  O464  1  0.67554437  0.58600743  0.85940591  1
  O2-  O465  1  0.67201252  0.83363049  0.18372199  1
  O2-  O466  1  0.67463782  0.83345141  0.52603660  1
  O2-  O467  1  0.67096332  0.82847392  0.85731346  1
  O2-  O468  1  0.91790235  0.05362089  0.21159289  1
  O2-  O469  1  0.92113781  0.09436782  0.51847729  1
  O2-  O470  1  0.92460750  0.08913408  0.84961546  1
  O2-  O471  1  0.91011215  0.30626689  0.19092326  1
  O2-  O472  1  0.91644632  0.34526111  0.51671603  1
  O2-  O473  1  0.90919849  0.32582648  0.85828555  1
  O2-  O474  1  0.90781988  0.58446741  0.19111315  1
  O2-  O475  1  0.90015874  0.58001062  0.52683629  1
  O2-  O476  1  0.91137930  0.57427717  0.84919829  1
  O2-  O477  1  0.92890455  0.83517319  0.19595643  1
  O2-  O478  1  0.91636685  0.83585689  0.52116107  1
  O2-  O479  1  0.91743132  0.82631827  0.85823714  1
  O2-  O480  1  0.17797288  0.08273974  0.30549703  1
  O2-  O481  1  0.17467182  0.10774110  0.63639947  1
  O2-  O482  1  0.17283635  0.07842241  0.97786246  1
  O2-  O483  1  0.15412513  0.32754366  0.27327453  1
  O2-  O484  1  0.16388668  0.34696992  0.63510463  1
  O2-  O485  1  0.17105770  0.32479241  0.98217795  1
  O2-  O486  1  0.17635084  0.58682292  0.32406636  1
  O2-  O487  1  0.18580451  0.64707798  0.63069953  1
  O2-  O488  1  0.13682662  0.56280140  0.98063634  1
  O2-  O489  1  0.19736606  0.84824994  0.32543968  1
  O2-  O490  1  0.18163626  0.80069622  0.63402763  1
  O2-  O491  1  0.15884897  0.82417856  0.97763178  1
  O2-  O492  1  0.42511259  0.08151350  0.31648423  1
  O2-  O493  1  0.41812255  0.08520343  0.64706051  1
  O2-  O494  1  0.38987846  0.06276677  0.98554728  1
  O2-  O495  1  0.43858595  0.33757375  0.31446694  1
  O2-  O496  1  0.36344035  0.30851876  0.62182456  1
  O2-  O497  1  0.42269520  0.33373023  0.98666459  1
  O2-  O498  1  0.42149494  0.58740139  0.31195782  1
  O2-  O499  1  0.42523320  0.61656854  0.65286729  1
  O2-  O500  1  0.41751572  0.56735992  0.98560756  1
  O2-  O501  1  0.44110488  0.81605977  0.27831004  1
  O2-  O502  1  0.42750722  0.84616653  0.64953591  1
  O2-  O503  1  0.45977153  0.90801848  0.97594760  1
  O2-  O504  1  0.66524046  0.08819601  0.30479136  1
  O2-  O505  1  0.67231477  0.08983783  0.64887113  1
  O2-  O506  1  0.67585937  0.07527399  0.96793705  1
  O2-  O507  1  0.66867042  0.33226329  0.30709914  1
  O2-  O508  1  0.65983321  0.33404730  0.64511994  1
  O2-  O509  1  0.70936657  0.39674851  0.97367607  1
  O2-  O510  1  0.67274090  0.59168087  0.31289910  1
  O2-  O511  1  0.65427284  0.58082473  0.64044894  1
  O2-  O512  1  0.66959657  0.59077178  0.98450480  1
  O2-  O513  1  0.68764983  0.84534083  0.31313772  1
  O2-  O514  1  0.66808353  0.83237586  0.64581175  1
  O2-  O515  1  0.65857997  0.81741367  0.97221404  1
  O2-  O516  1  0.89414650  0.01668970  0.33701667  1
  O2-  O517  1  0.93805644  0.11765324  0.63503240  1
  O2-  O518  1  0.93022432  0.08186674  0.97391498  1
  O2-  O519  1  0.91113362  0.33433249  0.31313661  1
  O2-  O520  1  0.91408808  0.33488968  0.64199015  1
  O2-  O521  1  0.91899960  0.31830881  0.98903647  1
  O2-  O522  1  0.90499299  0.57453506  0.31464394  1
  O2-  O523  1  0.90450766  0.58180143  0.64327253  1
  O2-  O524  1  0.86415939  0.53869552  0.97406766  1
  O2-  O525  1  0.93123660  0.83669670  0.31900461  1
  O2-  O526  1  0.91231530  0.82755437  0.64670018  1
  O2-  O527  1  0.92779506  0.83525946  0.98222813  1
  O2-  O528  1  0.09341356  0.16117664  0.02356346  1
  O2-  O529  1  0.15266013  0.20921379  0.34960880  1
  O2-  O530  1  0.09110874  0.18933910  0.67997702  1
  O2-  O531  1  0.08463595  0.40328910  0.02431439  1
  O2-  O532  1  0.08119362  0.40863056  0.34509181  1
  O2-  O533  1  0.08252995  0.41348572  0.68797248  1
  O2-  O534  1  0.06431131  0.66859807  0.03763234  1
  O2-  O535  1  0.10505349  0.58148398  0.35557184  1
  O2-  O536  1  0.04363765  0.62613079  0.69487502  1
  O2-  O537  1  0.08951231  0.91683796  0.02864382  1
  O2-  O538  1  0.09850510  0.92905280  0.35723844  1
  O2-  O539  1  0.05864642  0.82422364  0.69732408  1
  O2-  O540  1  0.33229856  0.16886478  0.02561994  1
  O2-  O541  1  0.34441670  0.16616230  0.35155171  1
  O2-  O542  1  0.33789604  0.16942585  0.68423984  1
  O2-  O543  1  0.33151627  0.40638039  0.03004648  1
  O2-  O544  1  0.29790448  0.41280077  0.33797791  1
  O2-  O545  1  0.33987890  0.45219861  0.60899182  1
  O2-  O546  1  0.28219844  0.57496107  0.03966646  1
  O2-  O547  1  0.34818891  0.68036454  0.36142985  1
  O2-  O548  1  0.33141102  0.68370014  0.69888041  1
  O2-  O549  1  0.31652926  0.90779454  0.02646327  1
  O2-  O550  1  0.35333614  0.93067747  0.37313412  1
  O2-  O551  1  0.33378482  0.91852669  0.68527911  1
  O2-  O552  1  0.54672908  0.08556725  0.01284102  1
  O2-  O553  1  0.59047035  0.17159007  0.35376842  1
  O2-  O554  1  0.58341598  0.16962101  0.68799322  1
  O2-  O555  1  0.58717645  0.42694752  0.02701280  1
  O2-  O556  1  0.59804473  0.42607258  0.35091195  1
  O2-  O557  1  0.58231416  0.41772197  0.68748025  1
  O2-  O558  1  0.58848540  0.67150825  0.02331225  1
  O2-  O559  1  0.59134418  0.67731311  0.35169119  1
  O2-  O560  1  0.58418489  0.67109327  0.69505008  1
  O2-  O561  1  0.60034203  0.90844909  0.01369599  1
  O2-  O562  1  0.59682905  0.92458888  0.33256786  1
  O2-  O563  1  0.59202058  0.92036808  0.68754917  1
  O2-  O564  1  0.91332355  0.18394347  0.05299198  1
  O2-  O565  1  0.81981836  0.16883563  0.34841102  1
  O2-  O566  1  0.84630258  0.17420436  0.68121839  1
  O2-  O567  1  0.91314755  0.45097643  0.04871520  1
  O2-  O568  1  0.82914658  0.41788112  0.35202520  1
  O2-  O569  1  0.82887121  0.41324648  0.68512641  1
  O2-  O570  1  0.83547018  0.67111579  0.02253171  1
  O2-  O571  1  0.83382753  0.67114312  0.36218670  1
  O2-  O572  1  0.80561403  0.68355877  0.69699392  1
  O2-  O573  1  0.84069098  0.91666157  0.01182608  1
  O2-  O574  1  0.84805331  0.92450862  0.35237228  1
  O2-  O575  1  0.83742781  0.90914707  0.69283720  1
