# generated using pymatgen
data_H2O
_symmetry_space_group_name_H-M   'P 1'
_cell_length_a   18.00136366
_cell_length_b   18.00653396
_cell_length_c   22.00655743
_cell_angle_alpha   90.02889859
_cell_angle_beta   89.98385398
_cell_angle_gamma   119.97944739
_symmetry_Int_Tables_number   1
_chemical_formula_structural   H2O
_chemical_formula_sum   'H384 O192'
_cell_volume   6178.85667795
_cell_formula_units_Z   192
loop_
 _symmetry_equiv_pos_site_id
 _symmetry_equiv_pos_as_xyz
  1  'x, y, z'
loop_
 _atom_type_symbol
 _atom_type_oxidation_number
  H+  1.0
  O2-  -2.0
loop_
 _atom_site_type_symbol
 _atom_site_label
 _atom_site_symmetry_multiplicity
 _atom_site_fract_x
 _atom_site_fract_y
 _atom_site_fract_z
 _atom_site_occupancy
  H+  H0  1  0.62162603  0.64387177  0.67200746  1
  H+  H1  1  0.10907267  0.01917190  0.33633595  1
  H+  H2  1  0.77120526  0.14490142  0.48004536  1
  H+  H3  1  0.87624479  0.86159209  0.32402280  1
  H+  H4  1  0.10991826  0.22612194  0.16174089  1
  H+  H5  1  0.00894557  0.88594667  0.34825038  1
  H+  H6  1  0.22645029  0.61753726  0.17301915  1
  H+  H7  1  0.63783280  0.87442812  0.67245257  1
  H+  H8  1  0.27687237  0.14291634  0.65899475  1
  H+  H9  1  0.72192036  0.11175332  0.84208420  1
  H+  H10  1  0.85385445  0.22879761  0.83233130  1
  H+  H11  1  0.37646739  0.09981817  0.31647785  1
  H+  H12  1  0.34574305  -0.01376557  0.35659513  1
  H+  H13  1  0.35778792  0.20062235  0.16895650  1
  H+  H14  1  0.08675928  0.90891062  0.44848269  1
  H+  H15  1  0.70144833  0.58833141  0.99125060  1
  H+  H16  1  0.12079792  0.23864554  0.67168789  1
  H+  H17  1  0.39888776  0.53103642  0.33074940  1
  H+  H18  1  0.44112459  0.31653880  0.33499385  1
  H+  H19  1  0.63817232  0.28215523  0.30197415  1
  H+  H20  1  0.08919114  0.66936184  0.10252414  1
  H+  H21  1  0.04843761  0.18535282  0.35213004  1
  H+  H22  1  0.14107836  0.89891029  0.01757250  1
  H+  H23  1  0.14778899  0.12764040  0.65490648  1
  H+  H24  1  0.14392384  1.02723060  0.00398232  1
  H+  H25  1  0.72383633  0.37442120  0.65593929  1
  H+  H26  1  0.10456290  0.47082992  0.49109978  1
  H+  H27  1  0.63005621  0.76972761  0.47461069  1
  H+  H28  1  0.39456727  0.85137485  0.48806539  1
  H+  H29  1  0.49172706  0.09716302  0.51965323  1
  H+  H30  1  0.13967296  0.36601278  0.17026926  1
  H+  H31  1  0.23593400  0.37745424  0.65586393  1
  H+  H32  1  0.65470605  0.58538860  0.50302792  1
  H+  H33  1  0.12410291  0.98750209  0.16814704  1
  H+  H34  1  0.58345092  0.20030114  0.84270062  1
  H+  H35  1  0.62341253  0.27490132  0.96130662  1
  H+  H36  1  0.40536209  0.76115313  0.48777097  1
  H+  H37  1  0.63529644  0.82039525  0.23013089  1
  H+  H38  1  0.52664693  0.13862207  0.68223760  1
  H+  H39  1  0.27672630  0.39348453  0.49103611  1
  H+  H40  1  0.18279097  0.49429929  0.73426525  1
  H+  H41  1  0.13019327  0.27686418  0.51631538  1
  H+  H42  1  0.09099624  0.42410385  0.74603804  1
  H+  H43  1  0.16231851  0.29506814  0.32969839  1
  H+  H44  1  0.37689522  0.85506921  0.83261071  1
  H+  H45  1  0.87312546  0.91201712  0.83702467  1
  H+  H46  1  0.60144307  0.70686362  0.83083122  1
  H+  H47  1  0.26616967  0.36413220  0.16722440  1
  H+  H48  1  0.51279263  0.38007213  0.68598608  1
  H+  H49  1  0.39376869  0.11502589  0.66185209  1
  H+  H50  1  0.89278085  0.78547388  0.67230662  1
  H+  H51  1  0.84921713  0.38199297  0.50964781  1
  H+  H52  1  0.36869234  0.01747621  0.99902987  1
  H+  H53  1  0.21577938  0.11779104  0.49830418  1
  H+  H54  1  0.12487847  0.65794280  0.65901695  1
  H+  H55  1  0.65446565  0.37822693  0.30612517  1
  H+  H56  1  0.95091948  0.74147431  -0.03555186  1
  H+  H57  1  0.15084021  0.87524030  0.51995038  1
  H+  H58  1  0.32490809  0.42345006  0.72636259  1
  H+  H59  1  0.98653354  0.10478325  0.50986957  1
  H+  H60  1  0.63322635  0.11278620  0.67853432  1
  H+  H61  1  0.88325749  0.91619936  0.14941205  1
  H+  H62  1  0.63470807  0.82279111  0.90519967  1
  H+  H63  1  0.86294874  0.88434149  0.68756817  1
  H+  H64  1  0.35462139  0.96429397  0.82332809  1
  H+  H65  1  0.13826644  0.52289874  0.32788279  1
  H+  H66  1  0.15256074  0.38598927  0.66688974  1
  H+  H67  1  0.62429207  0.88362215  0.50639726  1
  H+  H68  1  0.79153061  0.65216637  0.33908267  1
  H+  H69  1  1.03875663  0.64081524  1.00767639  1
  H+  H70  1  0.46467628  0.34155886  0.51545640  1
  H+  H71  1  0.36183629  0.97392545  0.67301673  1
  H+  H72  1  0.10622716  0.13359794  1.01001333  1
  H+  H73  1  0.88523953  0.28139382  0.31548405  1
  H+  H74  1  0.70681179  0.69372809  0.29109752  1
  H+  H75  1  0.81887921  0.90261215  0.39227816  1
  H+  H76  1  0.48966236  0.63092513  0.13419776  1
  H+  H77  1  0.34682644  0.23717231  0.48411766  1
  H+  H78  1  0.03760342  0.64237698  0.82102713  1
  H+  H79  1  0.11954619  0.35226077  0.85098815  1
  H+  H80  1  0.60325732  0.98464077  0.00506557  1
  H+  H81  1  0.49665909  0.86261663  0.49149429  1
  H+  H82  1  0.52045021  0.14223894  1.00716231  1
  H+  H83  1  0.14587327  0.54230700  0.65733333  1
  H+  H84  1  0.48890296  0.62833846  0.34111480  1
  H+  H85  1  0.25208826  0.11095186  0.85381828  1
  H+  H86  1  0.86881415  0.35951865  0.84995850  1
  H+  H87  1  0.26334786  0.87924203  0.34978445  1
  H+  H88  1  0.87988518  0.57149620  -0.01013158  1
  H+  H89  1  0.04264538  0.65344032  0.33873969  1
  H+  H90  1  0.36116913  0.38583895  0.49340618  1
  H+  H91  1  0.61621701  0.22759267  0.68087026  1
  H+  H92  1  0.65462553  0.33493794  0.44414911  1
  H+  H93  1  0.72850066  0.12146896  0.16490171  1
  H+  H94  1  0.86206783  0.14429233  0.15618724  1
  H+  H95  1  0.36821898  0.48076419  0.66574405  1
  H+  H96  1  0.13226435  0.47818603  -0.00420764  1
  H+  H97  1  0.88131798  0.27733813  0.48502998  1
  H+  H98  1  0.64254641  0.79059833  0.99097978  1
  H+  H99  1  0.60344327  0.89651457  0.00348050  1
  H+  H100  1  0.47439192  0.87322964  0.17021639  1
  H+  H101  1  0.39605889  0.07782087  0.52277309  1
  H+  H102  1  0.35730634  0.06986288  0.17125175  1
  H+  H103  1  0.57933833  0.15908612  0.25225289  1
  H+  H104  1  0.32249282  0.86883359  -0.00308503  1
  H+  H105  1  0.33015405  0.19839210  0.30912984  1
  H+  H106  1  0.88045331  0.47309682  0.14829249  1
  H+  H107  1  0.62929856  0.42759613  0.48296863  1
  H+  H108  1  0.51722491  0.64418610  0.45552709  1
  H+  H109  1  0.40043053  0.61682194  0.64851225  1
  H+  H110  1  0.66344612  0.03705195  0.52119257  1
  H+  H111  1  0.63164303  0.15113791  0.14805893  1
  H+  H112  1  0.35118630  0.73450197  0.99635125  1
  H+  H113  1  0.37132740  0.25659890  0.85882848  1
  H+  H114  1  0.26294847  0.12199136  0.16706787  1
  H+  H115  1  0.72163046  0.12444614  0.99736668  1
  H+  H116  1  0.12946059  0.11548553  0.17535884  1
  H+  H117  1  0.09847756  0.89001930  0.34620998  1
  H+  H118  1  0.12508968  0.89725712  0.17169381  1
  H+  H119  1  0.36432285  0.75640563  0.31940667  1
  H+  H120  1  0.61118863  0.14658963  0.00099921  1
  H+  H121  1  0.12682222  0.74144576  0.49804841  1
  H+  H122  1  0.28315220  0.87348361  0.51109053  1
  H+  H123  1  0.73415446  0.62950395  0.66171080  1
  H+  H124  1  0.86822160  0.99860336  0.82628937  1
  H+  H125  1  0.38626399  0.63050634  0.49937758  1
  H+  H126  1  0.89948041  0.36789717  0.16369593  1
  H+  H127  1  0.11915276  0.15034502  0.50233158  1
  H+  H128  1  1.03354908  0.39242427  0.15423456  1
  H+  H129  1  0.66193163  0.06794337  0.25255930  1
  H+  H130  1  0.17339576  0.56021749  0.91667439  1
  H+  H131  1  0.96657704  0.33083591  0.65146224  1
  H+  H132  1  0.34636112  0.67216509  0.71911427  1
  H+  H133  1  0.14302309  0.60578886  0.82328562  1
  H+  H134  1  0.23103628  0.60467955  0.82047106  1
  H+  H135  1  0.37631063  0.49921394  1.00910385  1
  H+  H136  1  0.07769151  0.16352090  0.06993959  1
  H+  H137  1  0.92530335  0.84943418  0.26701135  1
  H+  H138  1  0.16267786  0.34685403  0.57840392  1
  H+  H139  1  0.39052326  0.04529608  0.26521645  1
  H+  H140  1  0.87582859  0.65906930  0.67192371  1
  H+  H141  1  0.60191939  0.77366551  0.16685812  1
  H+  H142  1  0.12857679  0.13130857  0.82735145  1
  H+  H143  1  0.38270980  0.62770187  0.98352835  1
  H+  H144  1  0.36217482  0.72569481  0.81539037  1
  H+  H145  1  0.98815623  0.60867478  0.17335364  1
  H+  H146  1  0.36765182  0.63953313  0.81461443  1
  H+  H147  1  -0.00358956  0.64605023  0.65222130  1
  H+  H148  1  0.62926215  0.10552444  0.84275223  1
  H+  H149  1  0.40332272  0.78248554  0.65131758  1
  H+  H150  1  0.76349449  0.12997375  0.31531844  1
  H+  H151  1  0.88795852  0.12843905  0.83863222  1
  H+  H152  1  0.57273441  0.67898750  0.04889560  1
  H+  H153  1  0.13092890  0.61613874  0.49590673  1
  H+  H154  1  0.35348971  0.96456417  0.11578134  1
  H+  H155  1  0.63882690  0.35861029  0.15727738  1
  H+  H156  1  0.39390359  0.82145496  0.26225968  1
  H+  H157  1  0.90289651  0.63523142  0.49609849  1
  H+  H158  1  0.92033419  0.83556251  1.00226829  1
  H+  H159  1  0.70584143  0.84446607  0.32724886  1
  H+  H160  1  0.87892981  0.40677219  0.36000801  1
  H+  H161  1  0.72882753  0.88341697  -0.01262305  1
  H+  H162  1  0.61372434  0.22737942  0.49569432  1
  H+  H163  1  0.62960405  0.09692203  0.30798064  1
  H+  H164  1  0.90650658  0.80916051  0.17103952  1
  H+  H165  1  0.46914691  0.86347388  0.83587847  1
  H+  H166  1  0.60681024  0.64510782  0.99430080  1
  H+  H167  1  0.90499860  0.53447773  0.84081003  1
  H+  H168  1  0.87064019  0.43694932  0.63403296  1
  H+  H169  1  0.83066533  0.66931261  0.14526057  1
  H+  H170  1  0.88884110  0.81442656  0.87471165  1
  H+  H171  1  0.75497996  0.58087872  0.16567691  1
  H+  H172  1  0.93804200  0.07694788  0.31475943  1
  H+  H173  1  0.92303375  0.73576579  0.93708699  1
  H+  H174  1  0.14672042  0.76558849  0.85348341  1
  H+  H175  1  0.86890061  0.96224959  0.48742662  1
  H+  H176  1  0.45933776  0.87251712  0.98961387  1
  H+  H177  1  0.35957072  0.73154994  0.15258088  1
  H+  H178  1  0.13648757  0.61284032  0.17688123  1
  H+  H179  1  0.48735121  0.61405631  0.65607776  1
  H+  H180  1  0.84719948  0.70109377  0.82875753  1
  H+  H181  1  0.58693675  0.46940755  0.01581441  1
  H+  H182  1  0.20123845  0.10107342  0.32844739  1
  H+  H183  1  0.86173994  0.09937006  0.31467377  1
  H+  H184  1  0.38920246  0.87791939  0.17419139  1
  H+  H185  1  0.28954696  0.64778201  0.65911874  1
  H+  H186  1  0.17972719  0.76443500  0.32757960  1
  H+  H187  1  0.60370732  0.96277796  0.33108809  1
  H+  H188  1  0.89255550  0.49991047  0.36132739  1
  H+  H189  1  0.11933460  -0.02496127  0.50268662  1
  H+  H190  1  0.23583283  0.88144546  0.17628039  1
  H+  H191  1  0.37179291  0.09063773  0.85359932  1
  H+  H192  1  0.60293492  0.37602697  0.68480518  1
  H+  H193  1  0.58305233  0.64488168  0.14011347  1
  H+  H194  1  0.38384274  0.40690826  0.33532865  1
  H+  H195  1  0.09312637  -0.07634797  0.71770792  1
  H+  H196  1  0.60247078  0.89496466  0.15949740  1
  H+  H197  1  0.27708235  0.88886899  0.65394692  1
  H+  H198  1  0.54128790  0.76595293  0.88156857  1
  H+  H199  1  0.79083542  0.43171867  0.88555668  1
  H+  H200  1  0.61362290  0.72877226  0.67905057  1
  H+  H201  1  0.13054469  0.00494534  0.85006835  1
  H+  H202  1  0.71202671  0.58632685  0.83882356  1
  H+  H203  1  0.77450252  0.87810824  0.48451232  1
  H+  H204  1  0.62636065  0.46038908  0.37783764  1
  H+  H205  1  0.60290262  0.73336210  0.34919923  1
  H+  H206  1  0.84314739  0.66246123  0.00739465  1
  H+  H207  1  0.97785801  0.13012191  0.83703601  1
  H+  H208  1  0.87439377  0.72848328  0.48896290  1
  H+  H209  1  0.90667682  0.62632121  0.32362705  1
  H+  H210  1  0.87593517  0.32096846  0.64970662  1
  H+  H211  1  0.20305431  0.59807752  0.47421967  1
  H+  H212  1  0.38823771  0.28371933  0.65595572  1
  H+  H213  1  0.35764807  0.13767525  1.00957077  1
  H+  H214  1  0.99959309  0.63824202  0.50222044  1
  H+  H215  1  0.11998072  0.39224461  0.33626841  1
  H+  H216  1  0.84073067  0.43591401  0.45850241  1
  H+  H217  1  0.11882910  0.72884395  0.16210671  1
  H+  H218  1  0.72458552  0.36704548  0.49599359  1
  H+  H219  1  0.24598260  0.38597366  0.32203723  1
  H+  H220  1  0.90246519  0.56138533  0.65264173  1
  H+  H221  1  0.66447278  0.08940666  0.93687948  1
  H+  H222  1  1.01560215  0.90919563  1.00524864  1
  H+  H223  1  1.00404571  0.37596385  0.83823373  1
  H+  H224  1  0.27067619  0.62261758  0.34346183  1
  H+  H225  1  0.11259777  0.14755884  0.34755137  1
  H+  H226  1  0.86744221  0.62577620  0.83069764  1
  H+  H227  1  0.57574920  0.91882067  0.73831756  1
  H+  H228  1  0.61690529  0.84701882  0.32990875  1
  H+  H229  1  0.46890133  0.33640605  0.17558207  1
  H+  H230  1  0.59431117  0.87998882  0.82932875  1
  H+  H231  1  0.37855841  0.53192242  0.09769437  1
  H+  H232  1  0.52073368  0.89096373  0.67294176  1
  H+  H233  1  0.12630788  0.74624610  0.65141410  1
  H+  H234  1  0.88748937  1.03448410  0.15874099  1
  H+  H235  1  0.13317137  0.26966457  1.00344137  1
  H+  H236  1  0.89291899  0.08670039  0.52270435  1
  H+  H237  1  0.60213818  0.45888514  0.83209723  1
  H+  H238  1  0.85231797  0.11313732  0.68004125  1
  H+  H239  1  0.83180296  0.95608210  0.33060311  1
  H+  H240  1  0.13153958  0.87776560  0.83266655  1
  H+  H241  1  0.98273809  0.12133883  0.66565212  1
  H+  H242  1  0.12975395  0.37932079  1.00803491  1
  H+  H243  1  0.31193279  0.64662863  0.52380850  1
  H+  H244  1  0.64836811  0.63607912  0.34289586  1
  H+  H245  1  0.69022414  0.31562080  0.86158041  1
  H+  H246  1  0.22582976  0.11883733  -0.00276754  1
  H+  H247  1  0.13741477  0.27386425  0.85008939  1
  H+  H248  1  0.12405653  0.36963216  0.51027975  1
  H+  H249  1  0.14934198  0.06533219  0.91173644  1
  H+  H250  1  0.33514247  0.40024238  0.11410854  1
  H+  H251  1  0.82779849  0.18147231  0.06877045  1
  H+  H252  1  0.37761534  0.41257503  0.02139400  1
  H+  H253  1  0.87775684  0.92923251  0.00058774  1
  H+  H254  1  0.59730687  0.44442365  0.16755239  1
  H+  H255  1  0.01629963  0.37917055  0.49013002  1
  H+  H256  1  0.78859049  0.38927313  0.14243679  1
  H+  H257  1  0.86153918  0.16195346  1.00709097  1
  H+  H258  1  0.12650846  0.73028737  0.01321436  1
  H+  H259  1  0.63595600  0.57745781  0.19494687  1
  H+  H260  1  0.36949148  0.27560025  1.00697963  1
  H+  H261  1  0.86112474  0.00736135  1.00134527  1
  H+  H262  1  0.85330111  0.39756438  1.04942079  1
  H+  H263  1  1.02703979  0.90193657  0.66465238  1
  H+  H264  1  0.75198052  0.64120844  0.50044836  1
  H+  H265  1  0.37744853  -0.04489529  0.51010299  1
  H+  H266  1  0.45634006  0.34538647  0.85352073  1
  H+  H267  1  0.47134368  0.60483882  0.83410302  1
  H+  H268  1  0.55841532  0.45390553  0.47072962  1
  H+  H269  1  0.56081442  0.42649094  0.32373767  1
  H+  H270  1  0.40096562  0.52330063  0.50209795  1
  H+  H271  1  0.34973165  0.15431500  0.46991262  1
  H+  H272  1  0.62132567  0.00827636  0.67758766  1
  H+  H273  1  0.77114949  0.88466280  0.69011464  1
  H+  H274  1  0.00010001  0.88836413  0.17594481  1
  H+  H275  1  0.22851550  0.60247416  0.97723157  1
  H+  H276  1  0.86039423  0.84174752  0.51101920  1
  H+  H277  1  0.65636361  0.12102648  0.51954162  1
  H+  H278  1  0.60984070  -0.02283860  0.82964262  1
  H+  H279  1  0.85068447  0.19810325  0.67262821  1
  H+  H280  1  0.47410290  0.63110516  -0.01992601  1
  H+  H281  1  -0.02386702  0.36621040  0.32282338  1
  H+  H282  1  0.66765133  0.55191028  0.25192306  1
  H+  H283  1  0.87930557  0.73828481  0.33496171  1
  H+  H284  1  0.23348254  0.85272005  0.84687437  1
  H+  H285  1  0.65393537  0.33607021  0.60446188  1
  H+  H286  1  0.49926223  0.38096505  1.01767829  1
  H+  H287  1  0.14744054  0.87868162  0.61429185  1
  H+  H288  1  0.67916973  0.33976233  0.21740431  1
  H+  H289  1  0.83664141  0.92281254  0.76155344  1
  H+  H290  1  0.66704283  0.76749872  0.53733537  1
  H+  H291  1  0.82894493  0.16726872  0.77210614  1
  H+  H292  1  0.12109921  0.48239944  0.15887996  1
  H+  H293  1  0.80334781  0.75508669  0.54533493  1
  H+  H294  1  0.90412318  0.83461988  0.61052640  1
  H+  H295  1  0.41118315  0.33635315  0.57315136  1
  H+  H296  1  0.46094421  0.09094264  0.84489724  1
  H+  H297  1  0.93679751  0.58863056  0.89979841  1
  H+  H298  1  0.94728546  0.89430014  0.91183165  1
  H+  H299  1  0.34514495  0.48477319  0.81551157  1
  H+  H300  1  0.10189478  0.42667081  0.06542305  1
  H+  H301  1  0.92107806  0.11115615  0.93532338  1
  H+  H302  1  0.86002369  0.15418117  0.45772078  1
  H+  H303  1  0.92046151  0.06864122  0.61220253  1
  H+  H304  1  0.19326643  0.21905364  0.79891267  1
  H+  H305  1  0.12216387  0.63719717  0.34446872  1
  H+  H306  1  0.10105724  0.17595643  0.72823655  1
  H+  H307  1  0.39781535  0.33135380  0.94658486  1
  H+  H308  1  0.30708655  0.12921508  0.79543110  1
  H+  H309  1  0.32045113  0.17201722  0.37928438  1
  H+  H310  1  0.18348097  0.94918595  0.78707168  1
  H+  H311  1  0.16644326  0.33709821  0.23179331  1
  H+  H312  1  0.72192094  0.10213230  0.67576095  1
  H+  H313  1  0.14350026  0.03543553  0.65421758  1
  H+  H314  1  0.62579439  0.59230087  0.83522513  1
  H+  H315  1  0.20246870  0.84584318  0.94632477  1
  H+  H316  1  0.35191938  0.63875037  0.14247355  1
  H+  H317  1  0.64364131  0.56568825  0.93259153  1
  H+  H318  1  0.15047501  0.08386260  0.23797090  1
  H+  H319  1  0.18700877  0.83633747  0.23554540  1
  H+  H320  1  0.36930492  0.51226623  0.16511486  1
  H+  H321  1  0.09729955  0.46092249  0.83510096  1
  H+  H322  1  0.97675091  0.13314190  0.99634176  1
  H+  H323  1  0.92630815  0.34564049  0.22780999  1
  H+  H324  1  0.84244035  0.93776124  0.09164250  1
  H+  H325  1  0.40463636  0.83823266  0.92830373  1
  H+  H326  1  0.34788588  0.42941562  0.39572042  1
  H+  H327  1  0.82010547  0.16917203  0.37406895  1
  H+  H328  1  0.32464018  0.15743860  0.07103161  1
  H+  H329  1  0.32157243  0.67408179  0.05493763  1
  H+  H330  1  0.77586255  0.43557535  0.81573680  1
  H+  H331  1  0.16776642  0.33083409  0.94481901  1
  H+  H332  1  0.83679892  0.66605703  0.73555992  1
  H+  H333  1  0.89101851  0.58966408  0.17366365  1
  H+  H334  1  0.63500076  0.03282863  0.16052989  1
  H+  H335  1  0.57517353  0.92459145  0.09777994  1
  H+  H336  1  0.25667581  0.39567233  0.82014006  1
  H+  H337  1  0.51282095  0.87901463  0.33697316  1
  H+  H338  1  0.93435951  0.58557479  0.26938777  1
  H+  H339  1  0.16831591  0.09193875  0.56331818  1
  H+  H340  1  0.38931498  0.61845291  0.33311043  1
  H+  H341  1  0.44060203  0.58526273  0.56032560  1
  H+  H342  1  0.60735974  0.92429988  0.44826795  1
  H+  H343  1  0.57288592  0.15943746  0.77620883  1
  H+  H344  1  1.01871610  0.13924272  0.16058776  1
  H+  H345  1  0.09493603  0.18805905  0.44429590  1
  H+  H346  1  0.58632237  0.15356065  0.44752723  1
  H+  H347  1  0.64230211  0.25653656  0.15112065  1
  H+  H348  1  0.10687773  0.92553191  0.07717378  1
  H+  H349  1  0.38885222  0.37408682  0.66240331  1
  H+  H350  1  0.17247587  0.58582761  0.26994761  1
  H+  H351  1  0.86615060  0.23533787  0.16117155  1
  H+  H352  1  0.33308785  0.65446201  0.40273273  1
  H+  H353  1  0.31999869  0.92468225  0.41994904  1
  H+  H354  1  0.39590343  0.86665183  0.65342581  1
  H+  H355  1  0.08299344  0.41273990  0.39592901  1
  H+  H356  1  0.28099274  0.80836432  0.30405773  1
  H+  H357  1  0.32204137  0.90633188  0.76142952  1
  H+  H358  1  0.42965354  0.33818677  0.26506208  1
  H+  H359  1  0.16776784  0.58632255  0.59169579  1
  H+  H360  1  0.57006306  0.39486187  0.75867133  1
  H+  H361  1  0.68486794  0.61463789  0.59967012  1
  H+  H362  1  0.93659069  0.61458501  0.56434410  1
  H+  H363  1  0.86479165  0.28982251  1.00422961  1
  H+  H364  1  0.34217560  0.18441426  0.71395722  1
  H+  H365  1  0.40705272  0.07190757  0.94013031  1
  H+  H366  1  0.90328284  0.08364283  0.22145197  1
  H+  H367  1  0.91332034  0.31289107  0.55215822  1
  H+  H368  1  0.67678124  0.85338868  0.61535849  1
  H+  H369  1  0.58353421  0.65760072  0.76712155  1
  H+  H370  1  0.51493213  0.12698396  0.30610922  1
  H+  H371  1  0.85830341  0.67695144  0.42377889  1
  H+  H372  1  0.43086689  0.07566747  0.61341285  1
  H+  H373  1  0.59608808  0.36459702  0.83831848  1
  H+  H374  1  0.59808549  0.18573266  0.08755166  1
  H+  H375  1  0.09759061  0.68330182  0.76271808  1
  H+  H376  1  0.80210430  0.59850394  0.06218522  1
  H+  H377  1  0.37942088  0.33664001  0.18020446  1
  H+  H378  1  0.40976005  0.58751563  0.89197041  1
  H+  H379  1  0.90462817  0.49952224  0.98119813  1
  H+  H380  1  0.86143936  0.43667961  0.70521242  1
  H+  H381  1  0.89637021  0.33510412  0.91127872  1
  H+  H382  1  0.56571573  0.40050170  0.10040822  1
  H+  H383  1  0.09826192  0.68798383  0.43327052  1
  O2-  O384  1  0.08040746  0.16522704  0.14731959  1
  O2-  O385  1  0.09027450  0.18429440  0.48974765  1
  O2-  O386  1  0.13154516  0.18141973  0.80464342  1
  O2-  O387  1  0.09494077  0.42372353  0.14039404  1
  O2-  O388  1  0.08009072  0.40890000  0.48023250  1
  O2-  O389  1  0.06346338  0.39960861  0.82213821  1
  O2-  O390  1  0.08873837  0.66827302  0.14886279  1
  O2-  O391  1  0.09458090  0.68323088  0.47915955  1
  O2-  O392  1  0.09822480  0.67185069  0.80657509  1
  O2-  O393  1  0.09571279  0.92645369  0.15295662  1
  O2-  O394  1  0.10153299  0.91487671  0.49216257  1
  O2-  O395  1  0.12706997  0.92111764  0.80630953  1
  O2-  O396  1  0.32250878  0.14122980  0.15261167  1
  O2-  O397  1  0.31731739  0.18283503  0.45991428  1
  O2-  O398  1  0.31401249  0.14018195  0.83886802  1
  O2-  O399  1  0.32906738  0.38979681  0.15847794  1
  O2-  O400  1  0.33560373  0.41863075  0.47516819  1
  O2-  O401  1  0.30676758  0.43035457  0.79369870  1
  O2-  O402  1  0.32335221  0.67300162  0.13555939  1
  O2-  O403  1  0.35163087  0.66093398  0.48966281  1
  O2-  O404  1  0.33647903  0.66758485  0.79623497  1
  O2-  O405  1  0.34397234  0.95269065  0.15972418  1
  O2-  O406  1  0.34010095  0.89874978  0.48959411  1
  O2-  O407  1  0.32375533  0.90428428  0.80655796  1
  O2-  O408  1  0.60710286  0.18893332  0.13390361  1
  O2-  O409  1  0.58854131  0.16336008  0.49139192  1
  O2-  O410  1  0.56388822  0.14563925  0.82043780  1
  O2-  O411  1  0.56912422  0.38853817  0.14653316  1
  O2-  O412  1  0.61877220  0.47193415  0.46470349  1
  O2-  O413  1  0.57106055  0.39659885  0.81725776  1
  O2-  O414  1  0.55233585  0.67314487  0.12594454  1
  O2-  O415  1  0.54968029  0.69799307  0.43105887  1
  O2-  O416  1  0.58050978  0.64939621  0.81245801  1
  O2-  O417  1  0.57679235  0.92983587  0.14312471  1
  O2-  O418  1  0.59820739  0.91806140  0.49268508  1
  O2-  O419  1  0.57544604  0.91858436  0.81077152  1
  O2-  O420  1  0.83060337  0.17550617  0.14479385  1
  O2-  O421  1  0.82399637  0.17987085  0.45254717  1
  O2-  O422  1  0.82877384  0.16835685  0.81745036  1
  O2-  O423  1  0.84887477  0.41549505  0.12822172  1
  O2-  O424  1  0.82122056  0.41627433  0.50147476  1
  O2-  O425  1  0.80852131  0.42278561  0.84525433  1
  O2-  O426  1  0.80859970  0.60797554  0.14060061  1
  O2-  O427  1  0.85638490  0.67137621  0.46986570  1
  O2-  O428  1  0.82537762  0.64266062  0.81422473  1
  O2-  O429  1  0.84811295  0.94121514  0.13660819  1
  O2-  O430  1  0.83438738  0.90407192  0.46904686  1
  O2-  O431  1  0.83977643  0.93590481  0.81528685  1
  O2-  O432  1  0.15959438  0.08589380  0.19340772  1
  O2-  O433  1  0.15867647  0.08852509  0.51804909  1
  O2-  O434  1  0.15067069  0.06409044  0.86564052  1
  O2-  O435  1  0.16338903  0.33019239  0.18684091  1
  O2-  O436  1  0.15769576  0.34051379  0.52988373  1
  O2-  O437  1  0.15975980  0.33270246  0.86524782  1
  O2-  O438  1  0.16838061  0.58415560  0.19225724  1
  O2-  O439  1  0.15775851  0.57966061  0.50475760  1
  O2-  O440  1  0.16962648  0.57037568  0.83349490  1
  O2-  O441  1  0.17702164  0.84329162  0.19241598  1
  O2-  O442  1  0.18061289  0.84168932  0.53740227  1
  O2-  O443  1  0.17780260  0.82514161  0.86992842  1
  O2-  O444  1  0.38761535  0.03927798  0.18763640  1
  O2-  O445  1  0.43339782  0.05693384  0.53751382  1
  O2-  O446  1  0.40160209  0.05757897  0.86194462  1
  O2-  O447  1  0.41135812  0.30811127  0.19662498  1
  O2-  O448  1  0.40720898  0.32908645  0.52707454  1
  O2-  O449  1  0.39797916  0.31753227  0.87014213  1
  O2-  O450  1  0.38772434  0.56185275  0.13750654  1
  O2-  O451  1  0.43697750  0.58441227  0.51432794  1
  O2-  O452  1  0.41115036  0.58587978  0.84623283  1
  O2-  O453  1  0.41327956  0.84104821  0.18520087  1
  O2-  O454  1  0.43317653  0.82581758  0.47932865  1
  O2-  O455  1  0.40864305  0.82743927  0.84997829  1
  O2-  O456  1  0.66602089  0.09349441  0.17714400  1
  O2-  O457  1  0.69667058  0.09969400  0.52675922  1
  O2-  O458  1  0.66192925  0.07773160  0.85761301  1
  O2-  O459  1  0.67898850  0.33689907  0.17047680  1
  O2-  O460  1  0.65805493  0.33642280  0.48861856  1
  O2-  O461  1  0.63209357  0.30306250  0.87341664  1
  O2-  O462  1  0.66268686  0.54423642  0.20727425  1
  O2-  O463  1  0.70105979  0.64043268  0.51849050  1
  O2-  O464  1  0.65110775  0.55735985  0.85173920  1
  O2-  O465  1  0.63423010  0.83048378  0.18638901  1
  O2-  O466  1  0.66749637  0.80866399  0.50809673  1
  O2-  O467  1  0.60020358  0.79823387  0.86654837  1
  O2-  O468  1  0.91490335  0.09491985  0.17749316  1
  O2-  O469  1  0.92849926  0.06005684  0.52459939  1
  O2-  O470  1  0.91967036  0.09828525  0.85322153  1
  O2-  O471  1  0.92967413  0.33977499  0.18276709  1
  O2-  O472  1  0.91594482  0.33105404  0.50941943  1
  O2-  O473  1  0.89779607  0.32951230  0.86547898  1
  O2-  O474  1  0.92864659  0.56884941  0.18947592  1
  O2-  O475  1  0.93787680  0.60946074  0.51807825  1
  O2-  O476  1  0.93571899  0.59487582  0.85389861  1
  O2-  O477  1  0.93840567  0.86505179  0.19032460  1
  O2-  O478  1  0.86357524  0.79774966  0.53739445  1
  O2-  O479  1  0.92848815  0.87538046  0.86912013  1
  O2-  O480  1  0.13943721  0.07908790  0.31987647  1
  O2-  O481  1  0.17759614  0.09675745  0.63945145  1
  O2-  O482  1  0.16389982  0.08416534  0.98427391  1
  O2-  O483  1  0.18427524  0.35217458  0.31057733  1
  O2-  O484  1  0.17265895  0.35113366  0.64383745  1
  O2-  O485  1  0.16567470  0.33099887  0.99000408  1
  O2-  O486  1  0.17306619  0.58481361  0.31585823  1
  O2-  O487  1  0.17349256  0.59803197  0.63582137  1
  O2-  O488  1  0.17157380  0.55755981  0.96157758  1
  O2-  O489  1  0.23055424  0.81864298  0.31037992  1
  O2-  O490  1  0.17711294  0.84560945  0.60490452  1
  O2-  O491  1  0.20154267  0.84831543  0.99225866  1
  O2-  O492  1  0.40156777  0.06243904  0.30942139  1
  O2-  O493  1  0.42591386  0.08351954  0.65784124  1
  O2-  O494  1  0.40627300  0.07736189  0.98532284  1
  O2-  O495  1  0.44018226  0.36011096  0.30926177  1
  O2-  O496  1  0.42275723  0.34640204  0.64685626  1
  O2-  O497  1  0.39850429  0.33576078  0.99209608  1
  O2-  O498  1  0.42814437  0.59482040  0.31894767  1
  O2-  O499  1  0.42936578  0.58411569  0.63580369  1
  O2-  O500  1  0.41251511  0.59698382  0.96786294  1
  O2-  O501  1  0.37511600  0.81341699  0.30585678  1
  O2-  O502  1  0.43366034  0.84433853  0.63980376  1
  O2-  O503  1  0.39959380  0.84070560  0.97348121  1
  O2-  O504  1  0.65986430  0.06482047  0.29822938  1
  O2-  O505  1  0.65829094  0.07605867  0.66458640  1
  O2-  O506  1  0.66103903  0.09239300  0.98200758  1
  O2-  O507  1  0.67529676  0.34135644  0.28782773  1
  O2-  O508  1  0.66129540  0.33746044  0.64860910  1
  O2-  O509  1  0.64768234  0.32999468  0.93811234  1
  O2-  O510  1  0.69231859  0.64149548  0.31366040  1
  O2-  O511  1  0.67588435  0.60306182  0.64380429  1
  O2-  O512  1  0.64353380  0.57420145  0.97726436  1
  O2-  O513  1  0.64279075  0.81102353  0.31699816  1
  O2-  O514  1  0.67062129  0.84539731  0.65925200  1
  O2-  O515  1  0.66688810  0.85065761  0.97572485  1
  O2-  O516  1  0.87987566  0.05674351  0.30050688  1
  O2-  O517  1  0.92160135  0.09011538  0.65337991  1
  O2-  O518  1  0.91716647  0.11168149  0.98023988  1
  O2-  O519  1  0.91690683  0.34384957  0.30732199  1
  O2-  O520  1  0.90998629  0.29741392  0.63281122  1
  O2-  O521  1  0.89810875  0.35001556  0.98707797  1
  O2-  O522  1  0.94155137  0.59903144  0.31377853  1
  O2-  O523  1  0.93533875  0.62016094  0.63620626  1
  O2-  O524  1  0.92458561  0.56126488  0.97187461  1
  O2-  O525  1  0.91616672  0.84022835  0.31197960  1
  O2-  O526  1  0.91807813  0.84484279  0.65471191  1
  O2-  O527  1  0.95708687  0.89486475  0.98950478  1
  O2-  O528  1  0.07632484  0.16441192  0.02435129  1
  O2-  O529  1  0.10354103  0.19409064  0.36637586  1
  O2-  O530  1  0.09499783  0.17745048  0.68326392  1
  O2-  O531  1  0.10222224  0.41931904  0.01983718  1
  O2-  O532  1  0.08521063  0.41790614  0.35114161  1
  O2-  O533  1  0.13155203  0.45415853  0.71133738  1
  O2-  O534  1  0.09297687  0.67210030  0.03017307  1
  O2-  O535  1  0.10197360  0.67777189  0.35726384  1
  O2-  O536  1  0.09667274  0.69055890  0.67307716  1
  O2-  O537  1  0.10868194  0.92722023  0.03154977  1
  O2-  O538  1  0.06901975  0.91668984  0.36585068  1
  O2-  O539  1  0.09008549  0.93158946  0.67373193  1
  O2-  O540  1  0.32576408  0.16536153  0.02619016  1
  O2-  O541  1  0.31317995  0.15009050  0.33683282  1
  O2-  O542  1  0.34065219  0.17539945  0.67020937  1
  O2-  O543  1  0.36659700  0.45623501  0.04100377  1
  O2-  O544  1  0.35208977  0.43583204  0.35058704  1
  O2-  O545  1  0.33321137  0.42001705  0.68019253  1
  O2-  O546  1  0.32580824  0.67350336  0.00980598  1
  O2-  O547  1  0.33267414  0.65366555  0.35793779  1
  O2-  O548  1  0.34946944  0.67294229  0.67335421  1
  O2-  O549  1  0.29252255  0.90000481  0.01190802  1
  O2-  O550  1  0.29841323  0.93745990  0.38129511  1
  O2-  O551  1  0.32894145  0.91073038  0.67958458  1
  O2-  O552  1  0.58271464  0.17940925  0.01578874  1
  O2-  O553  1  0.57750764  0.15914298  0.29663174  1
  O2-  O554  1  0.58774195  0.16859057  0.69756764  1
  O2-  O555  1  0.55965711  0.41124967  0.03349197  1
  O2-  O556  1  0.62194994  0.45010147  0.33357559  1
  O2-  O557  1  0.57008185  0.39939910  0.70670769  1
  O2-  O558  1  0.58115711  0.68183721  0.00401742  1
  O2-  O559  1  0.57021559  0.67100257  0.37249107  1
  O2-  O560  1  0.58508297  0.66731795  0.68996432  1
  O2-  O561  1  0.57000027  0.92334593  0.01826710  1
  O2-  O562  1  0.57219780  0.90578039  0.35209760  1
  O2-  O563  1  0.58155302  0.92338984  0.69214689  1
  O2-  O564  1  0.82586256  0.18581246  0.02321015  1
  O2-  O565  1  0.82491620  0.16334069  0.32953091  1
  O2-  O566  1  0.81925171  0.14249578  0.69404706  1
  O2-  O567  1  0.84789348  0.39174294  0.00395054  1
  O2-  O568  1  0.86845512  0.44611391  0.38492419  1
  O2-  O569  1  0.83893462  0.44528606  0.66700100  1
  O2-  O570  1  0.80450754  0.60198343  0.01684730  1
  O2-  O571  1  0.85284620  0.67788082  0.35061103  1
  O2-  O572  1  0.84113274  0.68136842  0.69178630  1
  O2-  O573  1  0.83449174  0.94494016  0.01229025  1
  O2-  O574  1  0.80902567  0.89683125  0.34724260  1
  O2-  O575  1  0.83058852  0.91086866  0.70676430  1
