# generated using pymatgen
data_H2O
_symmetry_space_group_name_H-M   'P 1'
_cell_length_a   17.97970102
_cell_length_b   17.97737421
_cell_length_c   21.99374114
_cell_angle_alpha   89.97825714
_cell_angle_beta   90.00805780
_cell_angle_gamma   120.01547402
_symmetry_Int_Tables_number   1
_chemical_formula_structural   H2O
_chemical_formula_sum   'H384 O192'
_cell_volume   6155.60429761
_cell_formula_units_Z   192
loop_
 _symmetry_equiv_pos_site_id
 _symmetry_equiv_pos_as_xyz
  1  'x, y, z'
loop_
 _atom_type_symbol
 _atom_type_oxidation_number
  H+  1.0
  O2-  -2.0
loop_
 _atom_site_type_symbol
 _atom_site_label
 _atom_site_symmetry_multiplicity
 _atom_site_fract_x
 _atom_site_fract_y
 _atom_site_fract_z
 _atom_site_occupancy
  H+  H0  1  0.50443707  0.37353561  0.02965246  1
  H+  H1  1  0.63785764  0.61087255  0.32964773  1
  H+  H2  1  0.61088576  0.62919087  0.84285347  1
  H+  H3  1  0.86738820  0.72633049  0.67481638  1
  H+  H4  1  0.52927593  0.88849919  0.48775243  1
  H+  H5  1  -0.02158224  0.11065623  0.84362921  1
  H+  H6  1  0.88751500  0.02565072  0.16534220  1
  H+  H7  1  0.11656604  0.74296799  0.31791738  1
  H+  H8  1  0.11257849  0.63824931  0.00732166  1
  H+  H9  1  0.10992335  0.38034438  -0.03279070  1
  H+  H10  1  0.26545317  0.38542427  0.83198418  1
  H+  H11  1  0.91694254  0.07866738  0.90469747  1
  H+  H12  1  0.61434680  0.47561971  0.00421061  1
  H+  H13  1  0.89695454  0.13184899  0.65576992  1
  H+  H14  1  0.05517102  0.58781714  0.83314685  1
  H+  H15  1  0.36198743  0.64011360  0.82974590  1
  H+  H16  1  0.73452801  0.84272524  0.99909446  1
  H+  H17  1  0.72778732  0.61354733  0.33325706  1
  H+  H18  1  0.97909364  0.60860561  0.67027897  1
  H+  H19  1  0.02408498  0.38723922  0.67526071  1
  H+  H20  1  0.40299286  0.13963592  0.31719043  1
  H+  H21  1  0.13369150  0.27398940  0.66226252  1
  H+  H22  1  0.28932166  0.39166746  0.33393907  1
  H+  H23  1  0.38009010  0.22637681  0.67825818  1
  H+  H24  1  0.61971173  0.69468861  0.00645262  1
  H+  H25  1  0.39790801  1.02375486  0.66906878  1
  H+  H26  1  0.24260368  0.86298407  0.33829470  1
  H+  H27  1  0.09481617  0.88787348  0.33309440  1
  H+  H28  1  0.35359948  0.47596314  0.83470765  1
  H+  H29  1  0.68611030  0.09418978  0.91429201  1
  H+  H30  1  0.49159800  0.62522752  0.50298471  1
  H+  H31  1  0.07259558  0.89669425  0.73998172  1
  H+  H32  1  0.22707134  0.61873066  0.98720553  1
  H+  H33  1  0.37073716  0.73406448  0.15553438  1
  H+  H34  1  0.22491712  0.10997852  0.17086156  1
  H+  H35  1  0.39125561  0.35743659  0.50850919  1
  H+  H36  1  0.40995232  0.57707259  0.23073887  1
  H+  H37  1  0.73575539  0.14714656  0.51338107  1
  H+  H38  1  0.61291587  0.24478952  0.09426679  1
  H+  H39  1  0.86964686  0.59246608  0.16872025  1
  H+  H40  1  0.72760933  0.62183287  0.86023137  1
  H+  H41  1  0.14439315  0.76020325  0.84994251  1
  H+  H42  1  0.13341097  0.86295052  0.99754130  1
  H+  H43  1  0.64603457  0.86064789  0.84785759  1
  H+  H44  1  0.95132743  0.62078878  0.85486956  1
  H+  H45  1  0.47983593  0.35058404  0.17863605  1
  H+  H46  1  0.47645388  0.35166617  0.50370546  1
  H+  H47  1  0.22460605  0.61622072  0.17433745  1
  H+  H48  1  0.88173128  0.09943182  0.99107914  1
  H+  H49  1  0.64271830  0.55633405  0.49186118  1
  H+  H50  1  0.86251315  0.47453914  0.67634832  1
  H+  H51  1  0.38974362  0.34923726  0.17221226  1
  H+  H52  1  0.62472295  0.42764177  0.48809132  1
  H+  H53  1  0.27657677  0.13428312  0.33473069  1
  H+  H54  1  0.91145809  0.26743661  0.32842066  1
  H+  H55  1  0.61218047  0.83346511  0.18055939  1
  H+  H56  1  0.84675885  0.51035319  0.35043365  1
  H+  H57  1  1.04417068  0.38251557  0.33680290  1
  H+  H58  1  0.13881717  0.15307328  0.33817407  1
  H+  H59  1  0.72003244  1.00084093  0.62267061  1
  H+  H60  1  0.86715425  0.23649332  0.67018511  1
  H+  H61  1  0.39288936  0.77764287  0.66252857  1
  H+  H62  1  0.08745628  0.94997517  0.83321687  1
  H+  H63  1  0.13238512  0.02335626  0.17220496  1
  H+  H64  1  0.67027121  0.10494050  0.56816505  1
  H+  H65  1  0.66486097  0.74468604  0.63184943  1
  H+  H66  1  0.36365575  0.46425260  0.15969386  1
  H+  H67  1  0.17252109  0.68255935  0.46568973  1
  H+  H68  1  0.37910925  0.85064388  0.32703511  1
  H+  H69  1  0.83780937  0.34481392  0.30561283  1
  H+  H70  1  0.39982104  0.53706442  0.50350879  1
  H+  H71  1  0.10987383  0.22556961  1.00102334  1
  H+  H72  1  0.77593524  0.89151104  0.83750064  1
  H+  H73  1  0.37674871  0.60209311  0.17076962  1
  H+  H74  1  0.96833824  0.87750799  0.18061785  1
  H+  H75  1  0.50956981  0.61777066  0.68771665  1
  H+  H76  1  0.21520072  0.37010731  0.50023440  1
  H+  H77  1  0.63700049  0.26177052  0.83906849  1
  H+  H78  1  0.38344753  1.02126843  0.84253328  1
  H+  H79  1  0.14220634  0.62340747  0.32427492  1
  H+  H80  1  0.14036458  1.02863691  0.50046573  1
  H+  H81  1  0.09109681  0.71164730  0.16448664  1
  H+  H82  1  0.63201625  0.02794137  0.31698605  1
  H+  H83  1  0.40724281  0.88315822  0.17433786  1
  H+  H84  1  0.21203462  0.10254631  0.99321645  1
  H+  H85  1  0.62247961  0.65995269  0.48366543  1
  H+  H86  1  0.10059449  -0.03139136  1.00649447  1
  H+  H87  1  0.07219783  0.91554846  0.10423555  1
  H+  H88  1  0.11790971  0.14007494  0.15774049  1
  H+  H89  1  0.61227747  0.47391864  0.33954487  1
  H+  H90  1  0.26112670  0.38167415  0.00461534  1
  H+  H91  1  0.86061452  0.95701448  0.00888080  1
  H+  H92  1  0.64842675  0.78490068  0.49110770  1
  H+  H93  1  0.47156435  0.61216378  0.84633024  1
  H+  H94  1  0.75282111  0.10371267  0.34638122  1
  H+  H95  1  0.37370581  0.26970573  1.02316712  1
  H+  H96  1  0.80119136  0.92103380  0.67848318  1
  H+  H97  1  0.11500803  0.09426428  0.65751217  1
  H+  H98  1  0.33351457  0.94160587  0.35227009  1
  H+  H99  1  0.62029205  0.94577758  0.01137095  1
  H+  H100  1  0.88436544  0.48488028  0.01086245  1
  H+  H101  1  0.54725319  0.17040678  0.32683433  1
  H+  H102  1  0.34768443  0.12738313  0.82771256  1
  H+  H103  1  0.52536817  0.63932907  0.33211993  1
  H+  H104  1  0.62456842  0.46171670  0.67675673  1
  H+  H105  1  0.98078130  0.85660397  0.66598854  1
  H+  H106  1  0.88781604  0.36785354  0.65868566  1
  H+  H107  1  0.85808871  0.89252889  0.16504042  1
  H+  H108  1  0.34656661  0.21419546  0.81432749  1
  H+  H109  1  0.39278495  0.86653609  0.66431319  1
  H+  H110  1  0.58061801  0.35112764  0.02074938  1
  H+  H111  1  0.77525949  0.38089940  0.67454145  1
  H+  H112  1  0.20691201  0.09534512  0.83720622  1
  H+  H113  1  0.10885041  0.46961546  -0.03173387  1
  H+  H114  1  0.42482184  0.06527982  0.31497530  1
  H+  H115  1  0.49130480  0.10389666  0.47897826  1
  H+  H116  1  0.38992946  0.27366784  0.32664358  1
  H+  H117  1  0.77335194  0.39209111  0.82544920  1
  H+  H118  1  0.27262824  0.88270368  0.83312823  1
  H+  H119  1  0.08482519  0.41605244  0.42276741  1
  H+  H120  1  0.78049112  0.63778822  0.68079682  1
  H+  H121  1  0.36244418  0.21821269  0.49334291  1
  H+  H122  1  0.84604135  0.46779844  0.50548748  1
  H+  H123  1  0.11012987  0.88871915  0.48947919  1
  H+  H124  1  0.01959206  0.87065647  0.01108218  1
  H+  H125  1  0.22380968  0.61286774  0.66256840  1
  H+  H126  1  0.61494878  0.12660971  0.67553919  1
  H+  H127  1  1.02353513  0.13770077  0.67724700  1
  H+  H128  1  0.61773565  0.38804571  0.83809717  1
  H+  H129  1  0.60203108  0.87854794  0.68703519  1
  H+  H130  1  0.14041748  0.77384414  0.49575394  1
  H+  H131  1  0.38955321  0.53273738  0.66072621  1
  H+  H132  1  0.60644880  0.12985093  0.48804870  1
  H+  H133  1  0.19727260  0.84086035  0.17143438  1
  H+  H134  1  0.61819514  0.89061118  0.48683744  1
  H+  H135  1  0.76732732  0.62488187  0.15589344  1
  H+  H136  1  0.88189625  0.14081655  0.15221783  1
  H+  H137  1  0.79319119  0.89268834  0.48454051  1
  H+  H138  1  0.89439046  0.99184474  0.68920286  1
  H+  H139  1  0.83507925  0.67755478  0.10371874  1
  H+  H140  1  0.89172988  0.63375229  0.32223907  1
  H+  H141  1  0.64339867  0.25979112  0.66358568  1
  H+  H142  1  0.39172441  0.86338718  0.50857531  1
  H+  H143  1  0.78673414  0.35465843  0.14915753  1
  H+  H144  1  0.86091347  0.66083956  0.85141181  1
  H+  H145  1  0.88803549  0.28431094  0.83345993  1
  H+  H146  1  0.13080330  0.36109879  0.84897698  1
  H+  H147  1  0.90125005  0.03317953  0.49717298  1
  H+  H148  1  0.35863023  0.89189455  0.00641206  1
  H+  H149  1  0.89690396  0.78164031  0.51157926  1
  H+  H150  1  0.63698470  0.82087308  0.99804048  1
  H+  H151  1  0.47009531  0.11187739  0.83957111  1
  H+  H152  1  0.85532872  0.04176154  0.62716428  1
  H+  H153  1  0.89358984  0.28387937  0.49848789  1
  H+  H154  1  0.39526166  0.52606676  0.32442359  1
  H+  H155  1  0.36685678  0.73185459  0.00452464  1
  H+  H156  1  0.63045781  0.60028898  0.17697516  1
  H+  H157  1  0.41897743  0.32895249  0.26501932  1
  H+  H158  1  0.62465455  0.31477778  0.50486138  1
  H+  H159  1  0.13860992  0.76196963  0.66837154  1
  H+  H160  1  0.73754296  0.86062018  0.32318633  1
  H+  H161  1  0.60889930  0.13169611  0.83111709  1
  H+  H162  1  0.36382066  0.64428649  0.67168500  1
  H+  H163  1  0.87300348  0.14891621  0.49479372  1
  H+  H164  1  0.64184432  1.04536863  0.16161268  1
  H+  H165  1  0.94080531  0.81028381  0.84693728  1
  H+  H166  1  0.52395898  0.12653073  0.67771721  1
  H+  H167  1  0.90511447  0.36361941  0.17325274  1
  H+  H168  1  0.65641313  0.77987922  0.64229428  1
  H+  H169  1  0.51693356  0.88424349  0.68274409  1
  H+  H170  1  0.09977533  0.62697591  0.16436174  1
  H+  H171  1  0.09392286  0.65324154  0.73735152  1
  H+  H172  1  0.26931274  0.89149063  1.00733479  1
  H+  H173  1  0.87346067  0.38362536  0.32103456  1
  H+  H174  1  0.29071763  0.48570693  0.45075294  1
  H+  H175  1  0.11004239  0.87207228  0.68149877  1
  H+  H176  1  0.09428973  0.86524116  0.83413789  1
  H+  H177  1  0.89752255  0.01176865  0.31343939  1
  H+  H178  1  0.38929090  0.61308003  0.32463829  1
  H+  H179  1  0.88003645  0.38304790  1.00725556  1
  H+  H180  1  0.60948347  0.25733620  0.98121705  1
  H+  H181  1  0.70330284  0.09525524  1.01566165  1
  H+  H182  1  0.61721160  0.72772657  0.33240290  1
  H+  H183  1  0.41267528  0.37582216  0.66812368  1
  H+  H184  1  0.40175741  0.11481540  0.66794169  1
  H+  H185  1  0.13339496  0.27385279  0.50119396  1
  H+  H186  1  0.88200884  0.89484015  0.49257079  1
  H+  H187  1  0.75914342  0.14211026  0.17865277  1
  H+  H188  1  0.61713618  0.72008043  0.83263592  1
  H+  H189  1  0.10712343  0.37722292  0.48928610  1
  H+  H190  1  0.38091178  0.73614886  0.49152010  1
  H+  H191  1  0.60938720  0.46395946  0.17356467  1
  H+  H192  1  0.51286789  0.62081108  0.15898730  1
  H+  H193  1  0.13275597  0.52955757  0.82941066  1
  H+  H194  1  0.47528992  0.88321707  0.99737728  1
  H+  H195  1  0.53796400  0.37619551  0.68180144  1
  H+  H196  1  0.16991270  0.08320090  0.26391024  1
  H+  H197  1  0.76566864  0.88719497  0.16069785  1
  H+  H198  1  0.28842622  0.80455750  0.13353124  1
  H+  H199  1  1.02682328  0.89587024  0.49297189  1
  H+  H200  1  0.76548510  0.37238855  0.49673547  1
  H+  H201  1  0.38058580  0.35744320  0.81567022  1
  H+  H202  1  0.09511313  0.88063702  0.16348097  1
  H+  H203  1  0.95115692  0.59227830  0.51961551  1
  H+  H204  1  0.60334994  0.70814725  0.16035504  1
  H+  H205  1  0.46824027  0.35621735  0.81815408  1
  H+  H206  1  0.90858497  0.27562417  0.16566462  1
  H+  H207  1  0.86157781  0.63940491  0.50392095  1
  H+  H208  1  0.58776943  0.04376455  0.90901809  1
  H+  H209  1  0.33394108  0.16326069  0.39570470  1
  H+  H210  1  0.89555564  0.86340933  0.66697431  1
  H+  H211  1  0.78115628  0.65341921  0.49886871  1
  H+  H212  1  0.87503647  0.08538724  0.32176836  1
  H+  H213  1  0.01459150  0.38555837  0.48664665  1
  H+  H214  1  0.47855150  0.86099230  0.84691698  1
  H+  H215  1  0.27571559  0.88018627  0.67724552  1
  H+  H216  1  0.35540557  0.12221473  0.15493972  1
  H+  H217  1  0.15153292  0.54415134  0.49141487  1
  H+  H218  1  0.97464362  0.10667542  0.99372617  1
  H+  H219  1  0.35034677  0.13481453  0.00605177  1
  H+  H220  1  0.00712570  0.61668896  0.44590056  1
  H+  H221  1  0.10437813  0.12850603  0.83197851  1
  H+  H222  1  0.39163998  1.03749436  -0.00096038  1
  H+  H223  1  0.13356084  0.77369304  0.99926599  1
  H+  H224  1  0.84586262  0.17049345  0.09458214  1
  H+  H225  1  0.27650745  0.37558194  0.16002599  1
  H+  H226  1  0.65825411  0.29291472  0.32529309  1
  H+  H227  1  0.38626329  0.10900437  0.49092160  1
  H+  H228  1  0.84817818  0.81213322  0.02805072  1
  H+  H229  1  0.78376608  0.14071966  0.82447037  1
  H+  H230  1  0.73965589  0.40305054  0.34061052  1
  H+  H231  1  0.87101124  0.14009613  0.83000117  1
  H+  H232  1  0.38567388  0.64951180  0.49242404  1
  H+  H233  1  0.16031845  0.37164434  0.32602036  1
  H+  H234  1  1.03604061  0.14420926  0.48780457  1
  H+  H235  1  0.61472460  0.96896542  0.84254580  1
  H+  H236  1  0.64860158  0.96324621  0.14652896  1
  H+  H237  1  0.02957102  0.38294222  0.18737244  1
  H+  H238  1  0.12450991  0.10491159  -0.00926134  1
  H+  H239  1  0.85417939  0.74058818  0.34794340  1
  H+  H240  1  0.16154461  0.82038151  0.60901982  1
  H+  H241  1  0.13758844  0.52159184  0.66534754  1
  H+  H242  1  0.46968634  0.60089105  0.99651546  1
  H+  H243  1  0.11125169  0.38309009  0.67611872  1
  H+  H244  1  0.36279857  0.21534304  0.16113656  1
  H+  H245  1  0.11317067  0.00432106  0.65682216  1
  H+  H246  1  0.16946345  0.59957902  0.92769358  1
  H+  H247  1  0.64379330  0.34869776  0.66358570  1
  H+  H248  1  0.89080802  0.37259138  0.49804688  1
  H+  H249  1  1.02016781  0.58840717  0.46282048  1
  H+  H250  1  0.84125810  0.92702194  0.77644490  1
  H+  H251  1  0.24705760  0.62400598  0.49042221  1
  H+  H252  1  0.64659330  0.52550758  0.84818418  1
  H+  H253  1  0.85682343  0.45866115  0.16340937  1
  H+  H254  1  0.63711579  0.37154129  0.32097304  1
  H+  H255  1  -0.02162017  0.35813660  -0.02671562  1
  H+  H256  1  0.36309432  0.88592153  0.83335359  1
  H+  H257  1  0.11518390  0.62595342  0.67411747  1
  H+  H258  1  0.51691902  0.19254314  0.00668933  1
  H+  H259  1  0.03026444  0.65413287  0.32772683  1
  H+  H260  1  0.36833034  0.72509842  0.33410598  1
  H+  H261  1  0.12860615  0.38254703  0.18767103  1
  H+  H262  1  0.87014723  0.52810758  0.84624226  1
  H+  H263  1  0.37889042  0.36233600  1.01924011  1
  H+  H264  1  0.13512361  0.02520950  0.32425483  1
  H+  H265  1  0.02850285  0.13906247  0.15703340  1
  H+  H266  1  0.13801279  0.26947822  0.17292916  1
  H+  H267  1  0.62266286  0.57799736  1.00393418  1
  H+  H268  1  0.02720404  0.40074308  0.82853512  1
  H+  H269  1  0.14292917  0.33825083  1.02920938  1
  H+  H270  1  0.44797549  0.49232150  0.71549932  1
  H+  H271  1  0.12086353  0.48393281  0.34243817  1
  H+  H272  1  0.59521477  0.57326685  0.65798888  1
  H+  H273  1  0.50623534  0.91166731  0.17690666  1
  H+  H274  1  0.22980688  0.61893612  0.32957529  1
  H+  H275  1  0.37825851  0.39102094  0.33879936  1
  H+  H276  1  0.62789838  0.15578641  0.33147124  1
  H+  H277  1  0.27308438  0.87683134  0.50259499  1
  H+  H278  1  0.87178761  0.99464963  0.83881386  1
  H+  H279  1  0.36362597  0.00293376  0.17630447  1
  H+  H280  1  0.88469235  0.37271525  0.83466783  1
  H+  H281  1  0.31390465  0.88823644  0.09503006  1
  H+  H282  1  0.12731841  0.48188195  0.18867902  1
  H+  H283  1  0.73634582  0.30600686  0.91907503  1
  H+  H284  1  0.53088854  0.88622390  0.33371131  1
  H+  H285  1  0.73515695  0.10772733  0.66742708  1
  H+  H286  1  -0.02268653  0.60453838  0.00273300  1
  H+  H287  1  0.06567881  0.76889985  0.53792732  1
  H+  H288  1  0.95935907  0.88555715  0.33805635  1
  H+  H289  1  0.10642318  0.22007213  0.83508874  1
  H+  H290  1  0.91892965  0.08249309  0.22554187  1
  H+  H291  1  0.27252674  0.13093316  0.49304845  1
  H+  H292  1  0.55202259  0.49143485  0.61704352  1
  H+  H293  1  0.59005846  0.91870698  0.39237432  1
  H+  H294  1  0.90335486  0.32916564  0.92790829  1
  H+  H295  1  0.36406612  0.64052529  0.00543460  1
  H+  H296  1  0.82812939  0.16229791  0.43823297  1
  H+  H297  1  0.17134507  0.58992840  0.23761477  1
  H+  H298  1  0.37528018  0.51852325  0.99562672  1
  H+  H299  1  0.58952958  0.97759768  0.06689149  1
  H+  H300  1  0.33754331  0.67500562  0.73213207  1
  H+  H301  1  0.17806521  0.32720889  0.23513997  1
  H+  H302  1  0.58584910  0.67881021  0.42200322  1
  H+  H303  1  0.15872747  0.07780816  0.56327967  1
  H+  H304  1  0.90520786  0.57133714  0.94943724  1
  H+  H305  1  0.07844258  0.66092143  0.06893753  1
  H+  H306  1  0.66778776  0.31082314  0.56722847  1
  H+  H307  1  0.84692589  0.17928397  0.73129431  1
  H+  H308  1  0.05096381  0.42432935  0.07632529  1
  H+  H309  1  0.07954242  0.16428885  0.73764144  1
  H+  H310  1  0.66232093  0.82144490  0.23498811  1
  H+  H311  1  0.83924012  0.67820596  0.40361350  1
  H+  H312  1  0.58617059  0.91379515  0.78050150  1
  H+  H313  1  0.42220230  0.59202989  0.60088932  1
  H+  H314  1  0.65143431  0.58787610  0.55969890  1
  H+  H315  1  0.42627199  0.84328023  0.26738440  1
  H+  H316  1  0.38014798  1.01484993  0.49379561  1
  H+  H317  1  0.52181893  0.38313166  0.33378193  1
  H+  H318  1  0.90913744  0.85669880  0.23995593  1
  H+  H319  1  0.60049057  0.41933207  0.77531435  1
  H+  H320  1  0.92591622  0.84120797  0.57112780  1
  H+  H321  1  0.89111024  0.61362472  0.67162547  1
  H+  H322  1  0.81430593  0.44542194  0.41125139  1
  H+  H323  1  0.31165356  0.88825707  0.43698094  1
  H+  H324  1  0.67951918  0.10224451  0.26481062  1
  H+  H325  1  0.42655712  0.83883684  0.56779633  1
  H+  H326  1  0.57776588  0.39367932  0.42415642  1
  H+  H327  1  0.83474086  0.42658503  0.76725780  1
  H+  H328  1  0.42146713  0.08339368  0.21694037  1
  H+  H329  1  0.40901724  0.28745054  0.91798038  1
  H+  H330  1  0.66798831  0.57908026  0.23636826  1
  H+  H331  1  0.86154551  0.22502393  -0.00521060  1
  H+  H332  1  0.38750101  0.77436316  0.84435346  1
  H+  H333  1  0.94429702  0.31095106  0.26406779  1
  H+  H334  1  0.69658800  0.18222738  0.17402719  1
  H+  H335  1  0.32333374  0.41517372  0.06386222  1
  H+  H336  1  0.12575225  0.14482908  0.49463027  1
  H+  H337  1  0.58360973  0.40159705  0.11757947  1
  H+  H338  1  0.16029411  0.28084539  0.32903751  1
  H+  H339  1  0.14473352  0.82562654  0.23363775  1
  H+  H340  1  0.33075853  0.43416320  0.42273637  1
  H+  H341  1  0.31594640  0.15284891  0.06802318  1
  H+  H342  1  0.90301943  0.77228063  0.94709521  1
  H+  H343  1  0.67885959  0.82428817  0.90305113  1
  H+  H344  1  0.13875526  0.71621710  0.41046643  1
  H+  H345  1  0.20056780  0.91685914  0.28726485  1
  H+  H346  1  0.95803547  0.59284788  0.17352877  1
  H+  H347  1  0.90701700  0.58517473  0.26590429  1
  H+  H348  1  0.85916450  0.90378387  0.39205835  1
  H+  H349  1  0.33335685  0.91060487  0.73720209  1
  H+  H350  1  0.34493748  0.67125222  0.39583165  1
  H+  H351  1  0.91933074  0.34193549  0.59772666  1
  H+  H352  1  0.40993880  0.58430521  0.90415724  1
  H+  H353  1  0.57841897  0.15477064  0.42098552  1
  H+  H354  1  0.07398042  0.91989075  0.39540882  1
  H+  H355  1  0.41860372  0.84076858  0.93767167  1
  H+  H356  1  0.58016549  0.64164882  0.06795093  1
  H+  H357  1  0.64179445  1.01735854  0.67325220  1
  H+  H358  1  0.33119241  0.67482100  0.09651052  1
  H+  H359  1  0.16289826  0.82358414  0.90575317  1
  H+  H360  1  0.09918584  0.44628826  0.07663659  1
  H+  H361  1  0.08093501  0.16444428  0.05996644  1
  H+  H362  1  0.45571582  0.30075407  0.91963677  1
  H+  H363  1  0.56532330  0.62885346  0.74935236  1
  H+  H364  1  0.42856603  0.33750406  0.60560212  1
  H+  H365  1  0.15607547  0.33114393  0.60280213  1
  H+  H366  1  0.85430670  0.41298626  0.07361387  1
  H+  H367  1  0.15061405  0.06841730  0.89813477  1
  H+  H368  1  0.08467205  0.42221979  0.76827479  1
  H+  H369  1  0.58670837  0.16014097  0.76681929  1
  H+  H370  1  0.41465503  0.08946208  0.93651057  1
  H+  H371  1  0.93162706  0.09466482  0.55586431  1
  H+  H372  1  0.35582332  0.42999284  0.74149050  1
  H+  H373  1  0.27571759  0.64567649  0.82338604  1
  H+  H374  1  0.73590621  0.94342692  0.57548464  1
  H+  H375  1  0.65139696  0.86966603  0.32561576  1
  H+  H376  1  0.15843745  0.32816700  0.90707817  1
  H+  H377  1  0.33171745  0.15649250  0.72889219  1
  H+  H378  1  0.67761928  0.81561685  0.55666033  1
  H+  H379  1  0.90364273  0.57626255  0.58324367  1
  H+  H380  1  0.11207775  0.18451444  0.39832109  1
  H+  H381  1  0.76849993  0.04360281  0.38946103  1
  H+  H382  1  0.82509548  0.90950393  0.07332119  1
  H+  H383  1  0.65621004  0.55267354  0.94190370  1
  O2-  O384  1  0.08942701  0.17242405  0.14256490  1
  O2-  O385  1  0.09849733  0.17790325  0.47791863  1
  O2-  O386  1  0.07397774  0.16017755  0.81851035  1
  O2-  O387  1  0.09629840  0.41662982  0.19511430  1
  O2-  O388  1  0.07853973  0.41120981  0.47135252  1
  O2-  O389  1  0.08766498  0.43099207  0.81383186  1
  O2-  O390  1  0.06624796  0.65206305  0.14711928  1
  O2-  O391  1  0.17047114  0.73378861  0.44952656  1
  O2-  O392  1  0.11301501  0.63132954  0.81993283  1
  O2-  O393  1  0.07196352  0.91794304  0.14966512  1
  O2-  O394  1  0.08515693  0.92335280  0.47377724  1
  O2-  O395  1  0.05804552  0.88882226  0.81947833  1
  O2-  O396  1  0.32628536  0.15578850  0.14463479  1
  O2-  O397  1  0.33248421  0.15984027  0.47529140  1
  O2-  O398  1  0.31199727  0.14999569  0.81028419  1
  O2-  O399  1  0.33591985  0.40480772  0.14335155  1
  O2-  O400  1  0.31409230  0.44934909  0.46330024  1
  O2-  O401  1  0.32533365  0.41761938  0.81614704  1
  O2-  O402  1  0.33106214  0.67477571  0.14242619  1
  O2-  O403  1  0.35537777  0.67720379  0.47325124  1
  O2-  O404  1  0.33765538  0.67530206  0.81265773  1
  O2-  O405  1  0.30502532  0.86486935  0.13841457  1
  O2-  O406  1  0.32745509  0.90592258  0.48052381  1
  O2-  O407  1  0.33258819  0.91544082  0.81738673  1
  O2-  O408  1  0.62144421  0.24588812  0.13903687  1
  O2-  O409  1  0.55754782  0.11971496  0.45900347  1
  O2-  O410  1  0.58427911  0.16466132  0.81282237  1
  O2-  O411  1  0.57858040  0.40213523  0.16215966  1
  O2-  O412  1  0.57308621  0.38134526  0.46957155  1
  O2-  O413  1  0.59578033  0.42379565  0.82025507  1
  O2-  O414  1  0.57381864  0.64840365  0.14456130  1
  O2-  O415  1  0.58892892  0.68626435  0.46790328  1
  O2-  O416  1  0.58126534  0.65788973  0.82366656  1
  O2-  O417  1  0.60757258  0.98344466  0.14264294  1
  O2-  O418  1  0.58667491  0.91592088  0.46778180  1
  O2-  O419  1  0.58901484  0.90995584  0.82577227  1
  O2-  O420  1  0.85546013  0.17670157  0.13893736  1
  O2-  O421  1  0.84231922  0.17967550  0.48161291  1
  O2-  O422  1  0.84372153  0.17166212  0.81164610  1
  O2-  O423  1  0.84787284  0.40416630  0.14381376  1
  O2-  O424  1  0.82612095  0.41418709  0.48144320  1
  O2-  O425  1  0.83439932  0.42986585  0.81305817  1
  O2-  O426  1  0.82743690  0.64728552  0.14222326  1
  O2-  O427  1  0.84137633  0.67681027  0.48503228  1
  O2-  O428  1  0.83574479  0.69659472  0.83793009  1
  O2-  O429  1  0.82510494  0.91970967  0.14518663  1
  O2-  O430  1  0.85378727  0.92347559  0.47052977  1
  O2-  O431  1  0.83857410  0.92863203  0.82228188  1
  O2-  O432  1  0.16452928  0.08440594  0.18672684  1
  O2-  O433  1  0.17165107  0.08774676  0.51809950  1
  O2-  O434  1  0.14616304  0.06565651  0.85261739  1
  O2-  O435  1  0.17156842  0.33017951  0.18968571  1
  O2-  O436  1  0.15479066  0.33589023  0.51435339  1
  O2-  O437  1  0.15778776  0.32713816  0.86181013  1
  O2-  O438  1  0.16596177  0.58168541  0.19204683  1
  O2-  O439  1  0.18550612  0.60616380  0.49663484  1
  O2-  O440  1  0.16443025  0.59376713  0.84377122  1
  O2-  O441  1  0.13815025  0.81522856  0.18744707  1
  O2-  O442  1  0.12575680  0.80778156  0.52768681  1
  O2-  O443  1  0.16390213  0.82037429  0.85998704  1
  O2-  O444  1  0.40300557  0.06467308  0.17474999  1
  O2-  O445  1  0.41795193  0.07769215  0.50156448  1
  O2-  O446  1  0.41168461  0.08198841  0.85741769  1
  O2-  O447  1  0.41646336  0.31816462  0.19145142  1
  O2-  O448  1  0.41895018  0.32645064  0.52395761  1
  O2-  O449  1  0.40785178  0.32292571  0.80539627  1
  O2-  O450  1  0.40742822  0.57262669  0.18517016  1
  O2-  O451  1  0.43377105  0.59435032  0.52285324  1
  O2-  O452  1  0.41008546  0.58531944  0.85850178  1
  O2-  O453  1  0.44810979  0.86646896  0.19060844  1
  O2-  O454  1  0.42593444  0.83688596  0.52238739  1
  O2-  O455  1  0.41792908  0.83467506  0.86092524  1
  O2-  O456  1  0.70065949  0.12843316  0.19219875  1
  O2-  O457  1  0.67932174  0.13488492  0.52922347  1
  O2-  O458  1  0.63922876  0.06632851  0.88359715  1
  O2-  O459  1  0.70475547  0.25644398  0.14560663  1
  O2-  O460  1  0.67120607  0.30805691  0.52206164  1
  O2-  O461  1  0.67165560  0.32376341  0.85489433  1
  O2-  O462  1  0.66475653  0.57425222  0.19128898  1
  O2-  O463  1  0.67119934  0.60817712  0.51665779  1
  O2-  O464  1  0.66665516  0.58067905  0.87131149  1
  O2-  O465  1  0.65436455  0.81604188  0.18943630  1
  O2-  O466  1  0.68496443  0.83936666  0.51553601  1
  O2-  O467  1  0.68111344  0.83296069  0.85783000  1
  O2-  O468  1  0.92278871  0.08646910  0.17954332  1
  O2-  O469  1  0.92872480  0.09432335  0.51078235  1
  O2-  O470  1  0.91564138  0.07956745  0.85819962  1
  O2-  O471  1  0.93655128  0.33305120  0.18705329  1
  O2-  O472  1  0.92614925  0.34610901  0.51141519  1
  O2-  O473  1  0.91493481  0.34289682  0.85089786  1
  O2-  O474  1  0.89781384  0.56195853  0.18886265  1
  O2-  O475  1  0.89436537  0.57261775  0.53734273  1
  O2-  O476  1  0.89273165  0.58399275  0.86913206  1
  O2-  O477  1  0.90836311  0.85458067  0.19529352  1
  O2-  O478  1  0.92668467  0.84282940  0.52546183  1
  O2-  O479  1  0.88645515  0.77833175  0.87083739  1
  O2-  O480  1  0.17489208  0.08475977  0.30948407  1
  O2-  O481  1  0.12046064  0.05265122  0.63127856  1
  O2-  O482  1  0.15171522  0.07082916  0.97694094  1
  O2-  O483  1  0.18989772  0.34215464  0.30973524  1
  O2-  O484  1  0.15831578  0.33391710  0.64744296  1
  O2-  O485  1  0.15987113  0.32606099  0.98999495  1
  O2-  O486  1  0.16926324  0.58787808  0.31393342  1
  O2-  O487  1  0.16270106  0.58146966  0.64994081  1
  O2-  O488  1  0.16669331  0.59175607  0.97236254  1
  O2-  O489  1  0.16477483  0.85867737  0.30302138  1
  O2-  O490  1  0.16734904  0.82315501  0.65381859  1
  O2-  O491  1  0.16476973  0.83334001  0.98230661  1
  O2-  O492  1  0.44356197  0.12210791  0.29837143  1
  O2-  O493  1  0.43421933  0.08443112  0.65666744  1
  O2-  O494  1  0.41689521  0.09610463  0.98176489  1
  O2-  O495  1  0.42200293  0.33403281  0.31123419  1
  O2-  O496  1  0.44231748  0.34672388  0.64951603  1
  O2-  O497  1  0.41075513  0.33239151  1.03079611  1
  O2-  O498  1  0.42219341  0.58606496  0.30786240  1
  O2-  O499  1  0.41552016  0.59304441  0.64583399  1
  O2-  O500  1  0.41039473  0.58084875  0.98203078  1
  O2-  O501  1  0.41886443  0.83131946  0.31203206  1
  O2-  O502  1  0.42704650  0.83974241  0.64921354  1
  O2-  O503  1  0.41633892  0.84211822  0.98336975  1
  O2-  O504  1  0.66710454  0.09107369  0.30977669  1
  O2-  O505  1  0.67951385  0.06731624  0.64675338  1
  O2-  O506  1  0.74215864  0.13527589  0.98440610  1
  O2-  O507  1  0.68227839  0.35473794  0.31181512  1
  O2-  O508  1  0.67431032  0.31975812  0.64659630  1
  O2-  O509  1  0.68593606  0.31362831  0.91952202  1
  O2-  O510  1  0.66760315  0.57871696  0.31796723  1
  O2-  O511  1  0.60871785  0.54097652  0.62592393  1
  O2-  O512  1  0.64974575  0.54360355  0.98784555  1
  O2-  O513  1  0.67692315  0.83470882  0.30993281  1
  O2-  O514  1  0.74784388  0.96485904  0.61734964  1
  O2-  O515  1  0.67551596  0.80408759  0.97931321  1
  O2-  O516  1  0.91162440  0.06905993  0.29872082  1
  O2-  O517  1  0.91343203  0.09047158  0.63780317  1
  O2-  O518  1  0.91358281  0.07065420  0.97766635  1
  O2-  O519  1  0.96309664  0.30187751  0.30456306  1
  O2-  O520  1  0.91717272  0.33675690  0.64257594  1
  O2-  O521  1  0.91216793  0.32676454  0.97277798  1
  O2-  O522  1  0.91646687  0.59700136  0.31083836  1
  O2-  O523  1  0.91801395  0.57985679  0.65565163  1
  O2-  O524  1  0.91467594  0.56535304  0.99315238  1
  O2-  O525  1  0.89587779  0.85126512  0.32624149  1
  O2-  O526  1  0.92049811  0.83092327  0.64838013  1
  O2-  O527  1  0.92411258  0.77813535  0.98997218  1
  O2-  O528  1  0.07601909  0.16168808  0.01480992  1
  O2-  O529  1  0.11806191  0.19151236  0.35353764  1
  O2-  O530  1  0.08277906  0.16567056  0.69232145  1
  O2-  O531  1  0.07529215  0.40856692  -0.04330630  1
  O2-  O532  1  0.09928295  0.42427732  0.35867414  1
  O2-  O533  1  0.08265358  0.41521609  0.69301952  1
  O2-  O534  1  0.08047767  0.66618879  0.02349808  1
  O2-  O535  1  0.09347214  0.68494276  0.33546667  1
  O2-  O536  1  0.08532385  0.65696737  0.69345945  1
  O2-  O537  1  0.07904204  0.91059692  0.02557956  1
  O2-  O538  1  0.06498680  0.91846483  0.35046844  1
  O2-  O539  1  0.07634460  0.89961343  0.69462972  1
  O2-  O540  1  0.31363559  0.15722555  0.02260689  1
  O2-  O541  1  0.33750860  0.16701024  0.35031875  1
  O2-  O542  1  0.34808970  0.16406322  0.68526450  1
  O2-  O543  1  0.32399205  0.41858986  0.01858285  1
  O2-  O544  1  0.34898890  0.42360256  0.35218143  1
  O2-  O545  1  0.38962941  0.44787564  0.70258420  1
  O2-  O546  1  0.33332350  0.67130396  0.01914484  1
  O2-  O547  1  0.33714692  0.66504499  0.35056337  1
  O2-  O548  1  0.33572512  0.67667882  0.68688951  1
  O2-  O549  1  0.32883074  0.92065679  0.02499782  1
  O2-  O550  1  0.30194958  0.87974740  0.35851638  1
  O2-  O551  1  0.33636199  0.91022794  0.69191859  1
  O2-  O552  1  0.57155484  0.24581847  0.01649844  1
  O2-  O553  1  0.60399389  0.19205113  0.34743844  1
  O2-  O554  1  0.58844133  0.15814077  0.69280044  1
  O2-  O555  1  0.57133891  0.39960066  0.03155519  1
  O2-  O556  1  0.58229693  0.41127609  0.35091364  1
  O2-  O557  1  0.59905770  0.40510414  0.69672742  1
  O2-  O558  1  0.58146938  0.63586327  0.02247586  1
  O2-  O559  1  0.58558913  0.66793952  0.34877965  1
  O2-  O560  1  0.54871873  0.60139359  0.70821412  1
  O2-  O561  1  0.58578003  0.97209550  0.02122983  1
  O2-  O562  1  0.59233899  0.91915588  0.34629908  1
  O2-  O563  1  0.57745813  0.91279630  0.70193042  1
  O2-  O564  1  0.82856287  0.16266411  0.00947984  1
  O2-  O565  1  0.79867892  0.10093561  0.37146685  1
  O2-  O566  1  0.84122634  0.17591360  0.68624906  1
  O2-  O567  1  0.85468989  0.41708585  0.02684683  1
  O2-  O568  1  0.79652050  0.46337255  0.37325137  1
  O2-  O569  1  0.83527232  0.41386446  0.69150385  1
  O2-  O570  1  0.84713249  0.75621305  0.02626007  1
  O2-  O571  1  0.83400026  0.67976498  0.35863057  1
  O2-  O572  1  0.84135775  0.66626295  0.69055626  1
  O2-  O573  1  0.82582072  0.89953807  0.02771885  1
  O2-  O574  1  0.85478162  0.90074120  0.34623202  1
  O2-  O575  1  0.85281298  0.93229825  0.70152395  1
