# generated using pymatgen
data_H2O
_symmetry_space_group_name_H-M   'P 1'
_cell_length_a   17.98691947
_cell_length_b   17.98268732
_cell_length_c   22.00478983
_cell_angle_alpha   90.01298532
_cell_angle_beta   89.99141111
_cell_angle_gamma   119.98088313
_symmetry_Int_Tables_number   1
_chemical_formula_structural   H2O
_chemical_formula_sum   'H384 O192'
_cell_volume   6165.13876331
_cell_formula_units_Z   192
loop_
 _symmetry_equiv_pos_site_id
 _symmetry_equiv_pos_as_xyz
  1  'x, y, z'
loop_
 _atom_type_symbol
 _atom_type_oxidation_number
  H+  1.0
  O2-  -2.0
loop_
 _atom_site_type_symbol
 _atom_site_label
 _atom_site_symmetry_multiplicity
 _atom_site_fract_x
 _atom_site_fract_y
 _atom_site_fract_z
 _atom_site_occupancy
  H+  H0  1  0.72796174  0.60574050  0.50634845  1
  H+  H1  1  0.35537972  0.88344766  0.82680895  1
  H+  H2  1  0.12057926  0.62190618  0.83955113  1
  H+  H3  1  0.22218028  0.60911596  0.50028747  1
  H+  H4  1  0.61171628  0.48551324  0.18481385  1
  H+  H5  1  0.64893551  0.08033218  0.88937129  1
  H+  H6  1  0.38067270  0.58028539  0.85414058  1
  H+  H7  1  0.97441553  0.61617167  0.65382811  1
  H+  H8  1  0.98084059  0.85806784  0.50632950  1
  H+  H9  1  0.37944031  0.10449986  0.65028470  1
  H+  H10  1  0.13695674  0.52640708  -0.01945823  1
  H+  H11  1  0.14131505  0.28012168  1.03388454  1
  H+  H12  1  0.21755360  0.63108975  0.83790574  1
  H+  H13  1  0.85831031  0.63784649  0.33511942  1
  H+  H14  1  0.80644659  0.62639101  0.15918365  1
  H+  H15  1  0.22575469  0.34246537  0.82849796  1
  H+  H16  1  0.19888431  0.05168986  0.97190596  1
  H+  H17  1  0.61439946  0.97583904  0.00906202  1
  H+  H18  1  0.85373151  0.87218620  0.68239056  1
  H+  H19  1  0.53240816  0.64248511  0.83386072  1
  H+  H20  1  0.79968459  0.16970185  0.33367571  1
  H+  H21  1  0.63652812  0.27813690  0.84733740  1
  H+  H22  1  0.61904092  0.12859376  0.34002206  1
  H+  H23  1  0.23390336  0.35643021  0.65686776  1
  H+  H24  1  0.36655494  0.37901480  0.33488356  1
  H+  H25  1  0.72926704  0.36668988  0.00303856  1
  H+  H26  1  0.62170890  0.64649285  0.82878335  1
  H+  H27  1  0.86856829  0.39721451  0.32994045  1
  H+  H28  1  0.38843656  0.02630297  0.84198696  1
  H+  H29  1  0.10898298  -0.01871361  0.34061067  1
  H+  H30  1  0.85150156  0.85069050  0.16750675  1
  H+  H31  1  0.21743816  0.11469775  0.49836435  1
  H+  H32  1  0.92890114  0.10093270  0.60215944  1
  H+  H33  1  0.51962285  0.88800844  0.65956402  1
  H+  H34  1  0.14081435  0.77353076  0.50117492  1
  H+  H35  1  0.12779971  0.86159765  0.33185411  1
  H+  H36  1  0.18634480  0.52836281  0.18591429  1
  H+  H37  1  0.36676351  0.47060320  0.67262103  1
  H+  H38  1  0.07848405  0.91901043  -0.01036033  1
  H+  H39  1  0.15058047  0.02055606  0.17743646  1
  H+  H40  1  0.61207008  0.14469248  0.82475440  1
  H+  H41  1  0.23631461  0.63565952  0.32415339  1
  H+  H42  1  0.67215638  0.80550540  0.83801134  1
  H+  H43  1  0.48042891  0.12368839  0.99597833  1
  H+  H44  1  0.28265976  0.87522717  0.15544135  1
  H+  H45  1  0.64584131  0.61588800  0.50513327  1
  H+  H46  1  0.16489167  0.40072518  0.97251947  1
  H+  H47  1  0.12864150  0.25176696  0.06160304  1
  H+  H48  1  0.60919379  0.88948255  0.67049091  1
  H+  H49  1  0.46648613  0.84759541  0.50131245  1
  H+  H50  1  0.88678605  0.78848070  0.83024891  1
  H+  H51  1  0.39242389  0.86445011  0.17353696  1
  H+  H52  1  0.52271010  0.14421011  0.83060036  1
  H+  H53  1  0.87154964  0.14991924  0.49033740  1
  H+  H54  1  0.67350237  0.33774896  0.94138642  1
  H+  H55  1  0.88986379  0.94186016  0.04862536  1
  H+  H56  1  0.97417049  0.86749824  0.32712963  1
  H+  H57  1  0.37838108  0.36003199  0.50335983  1
  H+  H58  1  0.11682810  0.37580375  0.81916932  1
  H+  H59  1  0.31708738  0.16623349  0.42732035  1
  H+  H60  1  0.68611357  0.84744561  0.90338364  1
  H+  H61  1  0.90856203  0.61258963  0.16965326  1
  H+  H62  1  0.51639151  0.89835427  0.81634381  1
  H+  H63  1  0.35699910  0.96936627  0.66745777  1
  H+  H64  1  1.00061714  0.06928019  0.98832928  1
  H+  H65  1  0.71992587  0.83177761  0.18314286  1
  H+  H66  1  0.90552853  0.29556256  0.31952152  1
  H+  H67  1  0.52863886  0.39348147  0.83496614  1
  H+  H68  1  0.77535320  0.64673344  0.82340192  1
  H+  H69  1  0.27996622  0.66084886  0.15533250  1
  H+  H70  1  0.39379676  0.51826504  0.00161361  1
  H+  H71  1  0.73448198  0.36367210  0.17678804  1
  H+  H72  1  0.11169683  0.71357414  1.01475430  1
  H+  H73  1  0.11475497  0.14093990  0.34310936  1
  H+  H74  1  0.72589011  0.36484723  0.84384375  1
  H+  H75  1  0.36513962  0.45765619  0.82774778  1
  H+  H76  1  0.86849715  0.48551742  0.66777620  1
  H+  H77  1  0.11189172  -0.02313977  0.49466256  1
  H+  H78  1  0.76397340  0.12907377  0.82579758  1
  H+  H79  1  0.35393217  0.63676482  0.33464563  1
  H+  H80  1  0.35760450  0.23173401  0.33139764  1
  H+  H81  1  0.86443612  0.38150589  0.00978788  1
  H+  H82  1  0.76939356  0.63537700  0.66906975  1
  H+  H83  1  0.74373839  0.37499766  0.64889783  1
  H+  H84  1  0.35388775  0.88520460  0.33430988  1
  H+  H85  1  0.66113300  0.28199022  0.64782853  1
  H+  H86  1  0.88594353  0.52882143  0.32736524  1
  H+  H87  1  0.27720007  0.14304799  0.15923548  1
  H+  H88  1  0.94296057  0.98079296  0.45101934  1
  H+  H89  1  0.88273582  0.48500287  0.48840908  1
  H+  H90  1  0.60317864  0.65547534  0.34245195  1
  H+  H91  1  0.40272477  0.13547013  0.17138032  1
  H+  H92  1  0.82910739  0.40668595  0.75137926  1
  H+  H93  1  0.62352383  1.03013766  0.82547453  1
  H+  H94  1  0.52374247  0.63459346  0.99961851  1
  H+  H95  1  0.36022530  0.87390505  0.49011680  1
  H+  H96  1  0.02989925  0.87932531  0.16520918  1
  H+  H97  1  0.64146720  0.53057346  0.83877488  1
  H+  H98  1  0.14650186  0.36081089  0.65829555  1
  H+  H99  1  0.39276619  0.26734189  0.83861886  1
  H+  H100  1  0.86034051  0.88933422  0.32800298  1
  H+  H101  1  0.90615351  0.94301779  0.82825268  1
  H+  H102  1  0.09159143  0.46307173  0.17036408  1
  H+  H103  1  0.89414744  0.89335619  0.48736157  1
  H+  H104  1  0.61873101  0.88705810  0.16518711  1
  H+  H105  1  0.04512911  0.41267548  0.31175858  1
  H+  H106  1  0.37697138  0.99318138  0.01157284  1
  H+  H107  1  0.61501627  0.22885059  0.01105264  1
  H+  H108  1  0.60463784  0.90101370  0.34190087  1
  H+  H109  1  0.29615332  0.89799948  0.01967858  1
  H+  H110  1  0.87234693  0.47396214  0.16824197  1
  H+  H111  1  0.11673750  0.98048901  0.82078157  1
  H+  H112  1  0.11523671  0.47126940  0.49129920  1
  H+  H113  1  0.71881779  0.04903569  0.30285986  1
  H+  H114  1  1.02558644  0.64035818  0.33788515  1
  H+  H115  1  0.64386707  0.11750622  0.16812671  1
  H+  H116  1  0.36601242  0.22086411  0.66335250  1
  H+  H117  1  1.03111313  0.37871084  0.81914963  1
  H+  H118  1  0.37459671  0.74067331  0.16122855  1
  H+  H119  1  0.94323526  0.82786415  0.99528706  1
  H+  H120  1  0.70240827  0.63746073  0.17394460  1
  H+  H121  1  0.88806029  0.77059986  0.50274346  1
  H+  H122  1  0.27426307  0.88209477  0.49215743  1
  H+  H123  1  0.12315714  0.22786509  0.66889181  1
  H+  H124  1  0.17185161  0.33358833  0.56438663  1
  H+  H125  1  0.25675452  0.14673265  0.98860250  1
  H+  H126  1  0.58712752  0.71891544  0.15217168  1
  H+  H127  1  0.61791745  0.39659971  0.83929943  1
  H+  H128  1  0.28003501  0.63201856  1.00291819  1
  H+  H129  1  0.72184688  0.85463853  0.67968379  1
  H+  H130  1  0.71041678  0.11948041  0.97278427  1
  H+  H131  1  0.12855585  0.86505314  0.82378314  1
  H+  H132  1  0.83968679  0.10808190  0.82274055  1
  H+  H133  1  0.63270311  0.60797590  0.65995514  1
  H+  H134  1  0.98358599  0.12344413  0.33368869  1
  H+  H135  1  0.63723164  0.61646424  0.99225326  1
  H+  H136  1  0.12342694  0.46923460  0.66605541  1
  H+  H137  1  0.86416951  -0.00025429  0.98159610  1
  H+  H138  1  0.37430883  0.52148944  0.17252387  1
  H+  H139  1  0.32684866  0.66004931  0.43209152  1
  H+  H140  1  0.99048528  0.60152265  0.17694462  1
  H+  H141  1  0.61698938  0.38387900  0.65216944  1
  H+  H142  1  0.11734691  0.23490225  0.49551108  1
  H+  H143  1  0.38868242  0.00005618  0.50276622  1
  H+  H144  1  0.10038623  0.09295845  -0.00636659  1
  H+  H145  1  0.87563892  0.51950184  0.83926234  1
  H+  H146  1  0.22478928  0.11586892  0.32752805  1
  H+  H147  1  0.86380093  0.64748222  0.82432957  1
  H+  H148  1  0.41108948  0.82919086  0.59000781  1
  H+  H149  1  0.88787052  0.26255486  0.83930143  1
  H+  H150  1  1.02183173  0.11509650  0.15769928  1
  H+  H151  1  0.77071891  0.64320057  0.33666474  1
  H+  H152  1  0.63392078  0.34731257  0.32766822  1
  H+  H153  1  0.38229886  0.60824875  0.66110476  1
  H+  H154  1  0.89576268  0.28199955  0.50642751  1
  H+  H155  1  0.90246025  0.37415974  0.50483926  1
  H+  H156  1  0.35402396  0.62566557  0.49233916  1
  H+  H157  1  0.33100715  0.91609495  0.39560606  1
  H+  H158  1  0.46530210  0.86484151  0.32657530  1
  H+  H159  1  0.27980756  0.13737311  0.81521307  1
  H+  H160  1  0.60537120  0.71876234  0.68159834  1
  H+  H161  1  0.36921112  0.38169724  0.66969520  1
  H+  H162  1  0.47520049  0.10802981  0.32614023  1
  H+  H163  1  0.87758834  0.12939067  0.99668690  1
  H+  H164  1  0.36611388  0.47114912  0.33928037  1
  H+  H165  1  0.37668394  0.15499764  0.01202136  1
  H+  H166  1  0.48398142  0.87048497  0.99458086  1
  H+  H167  1  0.47443040  0.78924960  0.86945063  1
  H+  H168  1  0.11681002  0.88914556  0.49287475  1
  H+  H169  1  0.52861311  0.14212593  0.16026638  1
  H+  H170  1  0.13764645  0.02228879  0.65522463  1
  H+  H171  1  0.61661232  0.13242632  0.49513716  1
  H+  H172  1  0.36147297  0.14316729  0.33424576  1
  H+  H173  1  0.64836856  1.03009850  0.16884937  1
  H+  H174  1  0.60238626  0.74392451  0.34540454  1
  H+  H175  1  0.13599548  0.84701073  0.14760506  1
  H+  H176  1  0.59729130  -0.01508703  0.33843954  1
  H+  H177  1  0.77442952  0.13744608  0.67259707  1
  H+  H178  1  0.42576391  0.33387571  0.92943545  1
  H+  H179  1  0.26819435  0.38186492  0.49106210  1
  H+  H180  1  0.02903420  0.38280267  0.49780561  1
  H+  H181  1  0.61906173  0.39178016  -0.00086809  1
  H+  H182  1  0.34608046  0.22187676  0.48798824  1
  H+  H183  1  -0.09082747  0.83256737  0.89389386  1
  H+  H184  1  0.47119424  0.60818970  0.66342387  1
  H+  H185  1  0.36775282  0.38796581  1.00937910  1
  H+  H186  1  0.63254133  0.02580211  0.65557814  1
  H+  H187  1  0.54957707  0.22957896  0.69131874  1
  H+  H188  1  0.62651284  0.54040603  0.33029190  1
  H+  H189  1  0.60666460  0.61679786  0.16912824  1
  H+  H190  1  1.01650011  0.10151428  0.80707415  1
  H+  H191  1  0.93221453  1.09494232  0.23531203  1
  H+  H192  1  0.38344080  0.86054003  0.65090496  1
  H+  H193  1  0.35607568  0.73166490  0.82918862  1
  H+  H194  1  0.13162588  0.85779539  0.65610538  1
  H+  H195  1  0.47598089  0.35313666  0.65037106  1
  H+  H196  1  0.49072802  0.09855111  0.50092255  1
  H+  H197  1  0.89995381  0.04135054  0.50882707  1
  H+  H198  1  0.13150886  0.60609564  0.65204844  1
  H+  H199  1  0.79358625  0.15155946  0.15758772  1
  H+  H200  1  0.84838358  0.18579561  0.43043348  1
  H+  H201  1  0.38773168  0.11435876  0.83725656  1
  H+  H202  1  0.65125579  0.74974652  0.49183354  1
  H+  H203  1  0.89051879  0.51823130  -0.00568763  1
  H+  H204  1  0.02989188  0.14100438  0.66795699  1
  H+  H205  1  0.37616576  0.61332994  0.17192158  1
  H+  H206  1  0.61748025  0.26357347  0.49939392  1
  H+  H207  1  1.00919925  0.62953440  0.82221616  1
  H+  H208  1  0.89916991  0.12509747  0.66268320  1
  H+  H209  1  0.46648132  0.35845353  0.50076297  1
  H+  H210  1  0.46054784  0.35273543  0.32126646  1
  H+  H211  1  0.21851028  0.36752438  0.18449084  1
  H+  H212  1  0.01995248  0.88374802  0.66649522  1
  H+  H213  1  0.36223396  0.73044251  0.65847887  1
  H+  H214  1  0.11368118  0.14195932  0.49671060  1
  H+  H215  1  0.11117010  0.60623366  0.15801164  1
  H+  H216  1  0.61764924  0.88818529  0.00968538  1
  H+  H217  1  0.26809744  0.88437367  0.82045072  1
  H+  H218  1  0.73818945  0.13538408  0.50310973  1
  H+  H219  1  0.90274345  0.76584482  0.17358775  1
  H+  H220  1  0.22070439  0.85716782  0.65756360  1
  H+  H221  1  0.89564233  0.27397542  0.98942137  1
  H+  H222  1  0.13629500  0.10046950  0.16946805  1
  H+  H223  1  0.48353689  0.86474409  0.17520343  1
  H+  H224  1  0.60657761  0.47104784  0.49181414  1
  H+  H225  1  0.95264369  0.33379460  0.21669695  1
  H+  H226  1  0.28638540  0.40161407  0.99987391  1
  H+  H227  1  0.08788567  0.34370812  0.18779252  1
  H+  H228  1  0.88993196  0.35149794  0.83286169  1
  H+  H229  1  0.46606268  0.62068024  0.32804846  1
  H+  H230  1  0.02233606  0.39007777  -0.00509267  1
  H+  H231  1  0.78124430  0.57308742  0.03758165  1
  H+  H232  1  0.13898654  0.36508823  0.50538764  1
  H+  H233  1  0.64599875  0.36573784  0.18171808  1
  H+  H234  1  0.01969337  0.62598248  0.00407400  1
  H+  H235  1  0.17144058  0.33870608  0.24978360  1
  H+  H236  1  0.61619438  0.48420231  -0.00577481  1
  H+  H237  1  0.90378708  0.12345137  0.17629292  1
  H+  H238  1  0.91010038  0.57530619  0.89977341  1
  H+  H239  1  0.37258561  0.51614194  0.50428247  1
  H+  H240  1  0.58458830  0.16594764  0.06919752  1
  H+  H241  1  -0.01367795  0.13131418  0.50732475  1
  H+  H242  1  0.23595038  0.36763681  0.33795835  1
  H+  H243  1  0.32968969  0.63932522  0.80292978  1
  H+  H244  1  0.88391326  0.77089878  0.65758156  1
  H+  H245  1  0.40195134  0.57547806  0.56320404  1
  H+  H246  1  0.76470768  0.89937325  0.48002254  1
  H+  H247  1  0.63543955  0.11553464  0.65898381  1
  H+  H248  1  0.13839069  0.63275374  0.32399687  1
  H+  H249  1  0.88471130  0.61648729  0.65481897  1
  H+  H250  1  0.13951529  0.75712857  0.14903162  1
  H+  H251  1  0.03739547  0.96949406  0.01906512  1
  H+  H252  1  0.77833862  0.31892341  0.78416704  1
  H+  H253  1  0.85922024  0.73599552  -0.00870466  1
  H+  H254  1  0.86933802  0.63953674  0.49050999  1
  H+  H255  1  0.21720607  0.86320614  0.33031335  1
  H+  H256  1  0.77497267  0.38515495  0.33678427  1
  H+  H257  1  0.72732526  0.88212050  0.33303990  1
  H+  H258  1  0.60836275  0.88292542  0.48310842  1
  H+  H259  1  0.17743896  0.82396421  1.06729191  1
  H+  H260  1  0.35947421  0.72993389  0.33660149  1
  H+  H261  1  0.85210337  0.85779187  1.00767921  1
  H+  H262  1  0.88388221  0.16160179  0.33722042  1
  H+  H263  1  0.40272578  0.88387939  0.99060334  1
  H+  H264  1  0.38617909  0.35273497  0.83857806  1
  H+  H265  1  0.87671580  0.27721811  0.65868111  1
  H+  H266  1  0.86496179  0.39107288  0.66495403  1
  H+  H267  1  -0.01521692  0.62200889  0.50199171  1
  H+  H268  1  0.63547328  0.77193175  0.99378484  1
  H+  H269  1  0.60072959  0.37817181  0.48859498  1
  H+  H270  1  0.10982442  0.72209630  0.66654895  1
  H+  H271  1  0.38875685  0.60565198  0.99630216  1
  H+  H272  1  0.27587738  0.13213784  0.66600323  1
  H+  H273  1  0.72376688  0.85924361  0.00186075  1
  H+  H274  1  0.62204436  0.11126291  0.99107049  1
  H+  H275  1  0.58161245  0.41807359  0.23665253  1
  H+  H276  1  0.89138035  1.03674962  0.32879132  1
  H+  H277  1  0.49688179  0.62961325  0.15425213  1
  H+  H278  1  0.79740485  0.12333287  0.02894704  1
  H+  H279  1  0.40375721  0.28285088  0.99531656  1
  H+  H280  1  0.14033713  0.11283963  0.65700554  1
  H+  H281  1  0.86351788  0.38322405  0.18083784  1
  H+  H282  1  0.37528518  0.75853535  0.50208144  1
  H+  H283  1  0.38345661  0.02405792  0.32314661  1
  H+  H284  1  0.13968482  1.11275090  0.82458784  1
  H+  H285  1  0.11670972  0.63620110  0.49036136  1
  H+  H286  1  0.05952425  0.10455704  0.09494470  1
  H+  H287  1  0.46712863  0.10474553  0.65717461  1
  H+  H288  1  0.80587298  0.86505233  0.10965307  1
  H+  H289  1  0.42749168  0.09867060  0.22906354  1
  H+  H290  1  0.11312238  0.73375350  0.33863572  1
  H+  H291  1  0.35937011  0.23777583  0.16329204  1
  H+  H292  1  0.16164239  0.59576976  0.90683339  1
  H+  H293  1  0.08167367  0.63869274  0.10056827  1
  H+  H294  1  0.83388102  0.66748945  0.43293261  1
  H+  H295  1  0.46211764  0.36654999  0.18274195  1
  H+  H296  1  0.91668150  0.33076456  0.92929432  1
  H+  H297  1  0.34451672  0.18725910  0.07093139  1
  H+  H298  1  0.16449607  0.08479425  0.26924840  1
  H+  H299  1  0.13551356  0.61437919  0.98925295  1
  H+  H300  1  0.42180657  0.56433348  0.91123504  1
  H+  H301  1  0.92090857  0.58723336  0.26835772  1
  H+  H302  1  0.13355133  0.25653307  0.83301356  1
  H+  H303  1  0.88703686  0.60526260  0.99576469  1
  H+  H304  1  0.56946291  0.92991984  0.75336715  1
  H+  H305  1  0.88563067  0.77640210  0.32634116  1
  H+  H306  1  0.84317934  0.91996466  0.39060256  1
  H+  H307  1  0.42770031  0.82774275  0.90973412  1
  H+  H308  1  0.67824846  0.46751120  0.36357955  1
  H+  H309  1  0.09839777  0.41281745  0.72679979  1
  H+  H310  1  0.19121563  0.36016024  0.91806992  1
  H+  H311  1  0.86246737  0.18343563  0.10472427  1
  H+  H312  1  0.08609125  0.17085123  0.40388186  1
  H+  H313  1  0.33059282  0.41075454  0.43210269  1
  H+  H314  1  0.92312845  0.82604433  0.23384438  1
  H+  H315  1  0.90973054  0.33623891  0.59845552  1
  H+  H316  1  0.59422520  0.42467293  0.40276049  1
  H+  H317  1  0.85236981  0.42401108  0.43068725  1
  H+  H318  1  0.59455137  0.68378973  0.44135282  1
  H+  H319  1  0.64985218  0.76297350  0.22862004  1
  H+  H320  1  0.14131453  0.28329385  0.33892534  1
  H+  H321  1  0.22354474  0.61294920  0.64958169  1
  H+  H322  1  0.08262438  0.15629889  0.75432993  1
  H+  H323  1  0.72623865  0.61403913  0.99396567  1
  H+  H324  1  0.08030503  0.91505365  0.72511557  1
  H+  H325  1  0.16152276  0.57915852  0.55925061  1
  H+  H326  1  0.33726601  0.66284556  0.06271368  1
  H+  H327  1  0.66527619  0.85589241  0.27623269  1
  H+  H328  1  0.41212138  0.83134318  0.26479838  1
  H+  H329  1  0.02424009  0.89344241  0.82397889  1
  H+  H330  1  0.92119131  0.58995516  0.55987334  1
  H+  H331  1  0.32623202  0.41594270  0.10646596  1
  H+  H332  1  0.60805849  0.46624615  0.66141270  1
  H+  H333  1  0.16736026  0.83096165  0.56150728  1
  H+  H334  1  0.07808211  0.91509294  0.10323734  1
  H+  H335  1  0.84707428  0.65580155  0.09035840  1
  H+  H336  1  0.40147032  0.33260437  0.24415225  1
  H+  H337  1  0.07839440  0.92057011  0.39998254  1
  H+  H338  1  0.41888294  0.09366586  0.93717869  1
  H+  H339  1  0.59223072  0.91689114  0.10447834  1
  H+  H340  1  0.13379089  0.41370761  0.32432305  1
  H+  H341  1  0.83105199  0.66874354  0.72770394  1
  H+  H342  1  0.57781528  0.66493581  0.05982162  1
  H+  H343  1  0.62147214  0.22646103  0.15818106  1
  H+  H344  1  0.33971756  0.40633138  0.76384800  1
  H+  H345  1  0.51520185  0.38412350  -0.00938641  1
  H+  H346  1  0.78846591  -0.05262840  0.84691321  1
  H+  H347  1  0.32221929  0.67995925  0.71943645  1
  H+  H348  1  0.66646181  0.32119581  0.26785455  1
  H+  H349  1  0.15348712  0.82738115  0.88024670  1
  H+  H350  1  0.57525029  0.14896823  0.43368048  1
  H+  H351  1  0.00887451  0.31467411  0.14050973  1
  H+  H352  1  0.67437470  0.59357029  0.89560247  1
  H+  H353  1  0.09659354  0.72123988  0.81587057  1
  H+  H354  1  0.08924918  0.42479141  0.05007859  1
  H+  H355  1  0.16310913  0.08391228  0.56118366  1
  H+  H356  1  0.66700933  0.82013656  0.61890429  1
  H+  H357  1  0.35416102  0.38949953  0.16835011  1
  H+  H358  1  0.40882429  0.58467125  0.26762635  1
  H+  H359  1  0.64901112  0.59731300  0.27015111  1
  H+  H360  1  0.57182098  0.17907258  0.73894230  1
  H+  H361  1  0.34319896  0.16600480  0.75826787  1
  H+  H362  1  0.33118343  0.91180561  0.72745284  1
  H+  H363  1  0.15707046  0.85653270  1.00495649  1
  H+  H364  1  0.07558651  0.65843603  0.72391476  1
  H+  H365  1  0.56731803  0.91443902  0.43367750  1
  H+  H366  1  0.14573002  0.54130202  0.30918606  1
  H+  H367  1  0.66383118  0.33231396  0.55156658  1
  H+  H368  1  0.84679909  0.93073867  0.73412991  1
  H+  H369  1  0.67926551  0.10183287  0.56307046  1
  H+  H370  1  0.66464200  0.58226850  0.59906914  1
  H+  H371  1  0.35876722  0.92822775  0.11075953  1
  H+  H372  1  0.88605354  0.04423306  0.91780481  1
  H+  H373  1  0.61667303  0.21527431  0.34045648  1
  H+  H374  1  0.72340151  0.90556027  0.53969444  1
  H+  H375  1  0.84057788  0.41088664  0.07222752  1
  H+  H376  1  0.40983605  0.32462255  0.59453185  1
  H+  H377  1  0.91286737  0.83254153  0.59964196  1
  H+  H378  1  0.08841603  0.66863237  0.43106624  1
  H+  H379  1  0.83176761  0.16578979  0.73232623  1
  H+  H380  1  0.57754752  0.65785930  0.73809802  1
  H+  H381  1  0.18230791  0.09875522  0.88479851  1
  H+  H382  1  0.68625409  0.09044208  0.25411687  1
  H+  H383  1  0.42034826  0.06715927  0.56403706  1
  O2-  O384  1  0.07653364  0.12880111  0.13580257  1
  O2-  O385  1  0.08309134  0.17253291  0.48146172  1
  O2-  O386  1  0.07658603  0.14675204  0.80052707  1
  O2-  O387  1  0.03657928  0.35316336  0.17462143  1
  O2-  O388  1  0.08884329  0.40947264  0.48122953  1
  O2-  O389  1  0.09093508  0.41013561  0.80487159  1
  O2-  O390  1  0.08843943  0.64449544  0.14563486  1
  O2-  O391  1  0.08906941  0.67058053  0.47635164  1
  O2-  O392  1  0.06967537  0.65878640  0.80628074  1
  O2-  O393  1  0.08861049  0.90786563  0.14619500  1
  O2-  O394  1  0.08198274  0.91562018  0.47976849  1
  O2-  O395  1  0.08370464  0.91905800  0.80695105  1
  O2-  O396  1  0.33691613  0.18009580  0.14307428  1
  O2-  O397  1  0.31083250  0.16232371  0.47240408  1
  O2-  O398  1  0.34194410  0.16579666  0.80391210  1
  O2-  O399  1  0.32539329  0.42122782  0.15145705  1
  O2-  O400  1  0.33001991  0.41242302  0.47759734  1
  O2-  O401  1  0.33523905  0.39938986  0.80954362  1
  O2-  O402  1  0.33898405  0.67893249  0.14459000  1
  O2-  O403  1  0.32545596  0.65962980  0.47712299  1
  O2-  O404  1  0.31006466  0.68088894  0.80497024  1
  O2-  O405  1  0.34592638  0.90970793  0.15374776  1
  O2-  O406  1  0.33517527  0.91085738  0.47677367  1
  O2-  O407  1  0.33028761  0.91585034  0.80937880  1
  O2-  O408  1  0.58988274  0.16624996  0.14306471  1
  O2-  O409  1  0.57221149  0.14907940  0.47904269  1
  O2-  O410  1  0.58231395  0.17810671  0.81368369  1
  O2-  O411  1  0.58841080  0.42337125  0.19253980  1
  O2-  O412  1  0.57410308  0.41305989  0.47251115  1
  O2-  O413  1  0.59047191  0.42936957  0.82547840  1
  O2-  O414  1  0.55804421  0.65905411  0.13691531  1
  O2-  O415  1  0.61817449  0.68799531  0.48226455  1
  O2-  O416  1  0.59014575  0.67673093  0.81574796  1
  O2-  O417  1  0.59205541  0.91953273  0.15020493  1
  O2-  O418  1  0.56511733  0.90038006  0.47727430  1
  O2-  O419  1  0.57175484  0.93962692  0.79818062  1
  O2-  O420  1  0.85599972  0.18225994  0.14898178  1
  O2-  O421  1  0.84135588  0.18025483  0.47526112  1
  O2-  O422  1  0.82570353  0.15349909  0.81381182  1
  O2-  O423  1  0.84014743  0.41202553  0.15510914  1
  O2-  O424  1  0.85956175  0.42472057  0.47511205  1
  O2-  O425  1  0.81533851  0.37936051  0.79460553  1
  O2-  O426  1  0.86044684  0.66600707  0.13955083  1
  O2-  O427  1  0.83597849  0.66867597  0.47810801  1
  O2-  O428  1  0.83629956  0.67900143  0.80794100  1
  O2-  O429  1  0.80504198  0.86261012  0.15419473  1
  O2-  O430  1  0.88562788  0.93988544  0.46591681  1
  O2-  O431  1  0.90476128  0.99269747  0.80873218  1
  O2-  O432  1  0.17522273  0.08128103  0.18963397  1
  O2-  O433  1  0.15631480  0.08159533  0.51609977  1
  O2-  O434  1  0.17496349  0.08693179  0.84061231  1
  O2-  O435  1  0.16176909  0.33557326  0.20471399  1
  O2-  O436  1  0.16937151  0.33228763  0.51880740  1
  O2-  O437  1  0.16675104  0.31737447  0.84575846  1
  O2-  O438  1  0.13519512  0.52565523  0.16887929  1
  O2-  O439  1  0.16068478  0.58097261  0.51366123  1
  O2-  O440  1  0.15868022  0.59961560  0.85734974  1
  O2-  O441  1  0.17021630  0.81860720  0.13668521  1
  O2-  O442  1  0.17088260  0.83468373  0.51619442  1
  O2-  O443  1  0.15682205  0.82978848  0.83599687  1
  O2-  O444  1  0.43690708  0.10906672  0.18467571  1
  O2-  O445  1  0.42505554  0.06280784  0.51838519  1
  O2-  O446  1  0.41811932  0.08631549  0.85695993  1
  O2-  O447  1  0.40123086  0.33653584  0.19433292  1
  O2-  O448  1  0.40740301  0.32774196  0.51803858  1
  O2-  O449  1  0.41821673  0.32562425  0.85736410  1
  O2-  O450  1  0.40715749  0.58363246  0.18673244  1
  O2-  O451  1  0.39753073  0.57669245  0.51851520  1
  O2-  O452  1  0.42119820  0.56164689  0.86476569  1
  O2-  O453  1  0.42284897  0.83172189  0.18902905  1
  O2-  O454  1  0.40520347  0.82044662  0.51629760  1
  O2-  O455  1  0.43284617  0.80870974  0.86484594  1
  O2-  O456  1  0.67900670  0.09127401  0.18232849  1
  O2-  O457  1  0.67792235  0.10616200  0.51832122  1
  O2-  O458  1  0.65836897  0.08982151  0.84498645  1
  O2-  O459  1  0.67325706  0.33082812  0.19089075  1
  O2-  O460  1  0.64496723  0.32541554  0.50860162  1
  O2-  O461  1  0.66993778  0.33726623  0.86525321  1
  O2-  O462  1  0.64532045  0.59734986  0.18939882  1
  O2-  O463  1  0.66706461  0.57699382  0.52009141  1
  O2-  O464  1  0.67439354  0.59392326  0.85050168  1
  O2-  O465  1  0.65870925  0.80938595  0.20114634  1
  O2-  O466  1  0.70958834  0.87399713  0.50116164  1
  O2-  O467  1  0.70259471  0.86034266  0.85994068  1
  O2-  O468  1  0.92990909  0.08929900  0.19059536  1
  O2-  O469  1  0.92395675  0.10135286  0.52132170  1
  O2-  O470  1  0.84480432  0.00629954  0.84638737  1
  O2-  O471  1  0.90005662  0.33022694  0.23635084  1
  O2-  O472  1  0.92791461  0.34064954  0.52420685  1
  O2-  O473  1  0.91815939  0.32330130  0.85368704  1
  O2-  O474  1  0.92949899  0.57738671  0.19095902  1
  O2-  O475  1  0.92295610  0.59236261  0.51447461  1
  O2-  O476  1  0.90923456  0.57851928  0.85401517  1
  O2-  O477  1  0.92635840  0.82614886  0.18816096  1
  O2-  O478  1  0.91871258  0.83153147  0.51859613  1
  O2-  O479  1  0.91847971  0.84635154  0.85007060  1
  O2-  O480  1  0.16245968  0.08487363  0.31469610  1
  O2-  O481  1  0.17111220  0.08298088  0.64107853  1
  O2-  O482  1  0.20092919  0.10656968  0.96698134  1
  O2-  O483  1  0.17422815  0.34408041  0.32494597  1
  O2-  O484  1  0.17381640  0.32644870  0.64158497  1
  O2-  O485  1  0.21305168  0.39676627  0.95501512  1
  O2-  O486  1  0.17558951  0.60908863  0.30447696  1
  O2-  O487  1  0.16287516  0.57781452  0.63588984  1
  O2-  O488  1  0.16781959  0.58870947  0.96800941  1
  O2-  O489  1  0.15576147  0.82876509  0.31832055  1
  O2-  O490  1  0.16079203  0.82589084  0.64156992  1
  O2-  O491  1  0.18205703  0.82342274  1.02026210  1
  O2-  O492  1  0.41671995  0.08513607  0.30942170  1
  O2-  O493  1  0.40986752  0.07210487  0.63749399  1
  O2-  O494  1  0.41898051  0.09599851  0.98253064  1
  O2-  O495  1  0.40175022  0.32714877  0.30727360  1
  O2-  O496  1  0.41256264  0.32268321  0.64018212  1
  O2-  O497  1  0.43443320  0.34225297  0.97549692  1
  O2-  O498  1  0.40601623  0.58528730  0.31283111  1
  O2-  O499  1  0.41091783  0.57602110  0.64792468  1
  O2-  O500  1  0.42272956  0.57716152  0.98247107  1
  O2-  O501  1  0.40575013  0.83010151  0.31030597  1
  O2-  O502  1  0.41543766  0.83207061  0.63600473  1
  O2-  O503  1  0.42889875  0.85103146  0.97296586  1
  O2-  O504  1  0.69283138  0.08538863  0.30011833  1
  O2-  O505  1  0.66724022  0.08835586  0.64424457  1
  O2-  O506  1  0.64890138  0.07902512  0.97148233  1
  O2-  O507  1  0.66519673  0.31831784  0.31358153  1
  O2-  O508  1  0.68435582  0.33970698  0.63072316  1
  O2-  O509  1  0.66914711  0.33909996  0.98695809  1
  O2-  O510  1  0.65491868  0.60040642  0.31513162  1
  O2-  O511  1  0.66628472  0.58152274  0.64455759  1
  O2-  O512  1  0.66675912  0.58499922  0.97666045  1
  O2-  O513  1  0.66530856  0.85759322  0.32118191  1
  O2-  O514  1  0.66134116  0.82974065  0.66172865  1
  O2-  O515  1  0.66710962  0.83465449  0.98249716  1
  O2-  O516  1  0.92293407  0.09850619  0.31798073  1
  O2-  O517  1  0.93207600  0.09828748  0.64699339  1
  O2-  O518  1  0.90016357  0.05626162  0.96214335  1
  O2-  O519  1  0.92814285  0.35419816  0.29971551  1
  O2-  O520  1  0.89791849  0.33601528  0.64307866  1
  O2-  O521  1  0.91942024  0.33386329  0.97519253  1
  O2-  O522  1  0.91658969  0.59024183  0.31354859  1
  O2-  O523  1  0.91397953  0.58571152  0.63848879  1
  O2-  O524  1  0.91933103  0.57744845  0.97686521  1
  O2-  O525  1  0.91446888  0.83595520  0.30927919  1
  O2-  O526  1  0.91474981  0.83287238  0.64483534  1
  O2-  O527  1  0.88530719  0.79609199  0.97652573  1
  O2-  O528  1  0.04262224  0.06102469  0.01258901  1
  O2-  O529  1  0.08468577  0.17165654  0.35827706  1
  O2-  O530  1  0.09138703  0.16622181  0.68346096  1
  O2-  O531  1  0.08509685  0.42661040  0.00605167  1
  O2-  O532  1  0.10726692  0.45048114  0.31903548  1
  O2-  O533  1  0.10317146  0.41076560  0.68172278  1
  O2-  O534  1  0.07949901  0.65014212  0.02112700  1
  O2-  O535  1  0.08702401  0.67002190  0.35095835  1
  O2-  O536  1  0.07817170  0.66002345  0.67894083  1
  O2-  O537  1  0.04038842  0.91459034  0.02262865  1
  O2-  O538  1  0.07500971  0.91988439  0.35467740  1
  O2-  O539  1  0.08168031  0.91331634  0.68005165  1
  O2-  O540  1  0.34984253  0.19011161  0.02434357  1
  O2-  O541  1  0.32783926  0.16996486  0.34812516  1
  O2-  O542  1  0.33751476  0.15983603  0.67931561  1
  O2-  O543  1  0.33877858  0.41769674  0.02612821  1
  O2-  O544  1  0.33800240  0.41185497  0.35491092  1
  O2-  O545  1  0.33893846  0.41028995  0.68821642  1
  O2-  O546  1  0.33807660  0.65231762  0.01853658  1
  O2-  O547  1  0.32458579  0.66831902  0.35029491  1
  O2-  O548  1  0.32918389  0.67077660  0.67627219  1
  O2-  O549  1  0.35831259  0.93461787  0.02794862  1
  O2-  O550  1  0.32741142  0.91845366  0.35058940  1
  O2-  O551  1  0.32761053  0.90871327  0.68241967  1
  O2-  O552  1  0.58307726  0.16713526  0.02288253  1
  O2-  O553  1  0.58597654  0.15443792  0.35546120  1
  O2-  O554  1  0.56433796  0.18412007  0.69373454  1
  O2-  O555  1  0.58406313  0.42126571  0.00737307  1
  O2-  O556  1  0.61622418  0.43719595  0.35826707  1
  O2-  O557  1  0.57805640  0.40326126  0.66803195  1
  O2-  O558  1  0.58519741  0.66750998  0.01479167  1
  O2-  O559  1  0.56996969  0.68256717  0.35731710  1
  O2-  O560  1  0.57551314  0.65682514  0.69253397  1
  O2-  O561  1  0.58851076  0.91807384  0.02781483  1
  O2-  O562  1  0.56752195  0.92557979  0.35392157  1
  O2-  O563  1  0.57874345  0.92239069  0.67718195  1
  O2-  O564  1  0.85613316  0.16502437  0.01699937  1
  O2-  O565  1  0.85876464  0.19863599  0.34991873  1
  O2-  O566  1  0.83467845  0.16935387  0.68731518  1
  O2-  O567  1  0.83635870  0.41266740  0.02712925  1
  O2-  O568  1  0.83610428  0.42337486  0.34806032  1
  O2-  O569  1  0.83666652  0.42491418  0.68316998  1
  O2-  O570  1  0.82351848  0.63317489  0.02957187  1
  O2-  O571  1  0.83063565  0.67045089  0.35149079  1
  O2-  O572  1  0.83129255  0.66703633  0.68240912  1
  O2-  O573  1  0.83782628  0.90031741  0.02727378  1
  O2-  O574  1  0.83247382  0.92062115  0.34644379  1
  O2-  O575  1  0.81321135  0.88412942  0.70627928  1
