# generated using pymatgen
data_H2O
_symmetry_space_group_name_H-M   'P 1'
_cell_length_a   17.98681102
_cell_length_b   17.98098830
_cell_length_c   21.98342569
_cell_angle_alpha   89.96148862
_cell_angle_beta   90.02287960
_cell_angle_gamma   120.00695674
_symmetry_Int_Tables_number   1
_chemical_formula_structural   H2O
_chemical_formula_sum   'H384 O192'
_cell_volume   6156.91536718
_cell_formula_units_Z   192
loop_
 _symmetry_equiv_pos_site_id
 _symmetry_equiv_pos_as_xyz
  1  'x, y, z'
loop_
 _atom_type_symbol
 _atom_type_oxidation_number
  H+  1.0
  O2-  -2.0
loop_
 _atom_site_type_symbol
 _atom_site_label
 _atom_site_symmetry_multiplicity
 _atom_site_fract_x
 _atom_site_fract_y
 _atom_site_fract_z
 _atom_site_occupancy
  H+  H0  1  0.38344837  0.35878666  0.83676639  1
  H+  H1  1  0.88551827  0.52731243  0.99658910  1
  H+  H2  1  0.36066710  0.88348740  0.68091022  1
  H+  H3  1  0.12103431  0.23176721  0.50033533  1
  H+  H4  1  0.58487933  0.16796034  0.43001317  1
  H+  H5  1  0.85563430  0.13750866  0.67478903  1
  H+  H6  1  0.62727517  0.60568864  0.84244075  1
  H+  H7  1  0.86167382  0.10054902  0.98429375  1
  H+  H8  1  0.64247291  0.51545402  0.47843865  1
  H+  H9  1  0.74838085  0.37196060  0.49981353  1
  H+  H10  1  0.39688084  0.39990422  0.00525730  1
  H+  H11  1  0.25935543  0.37089575  0.33373957  1
  H+  H12  1  0.86238615  0.13452556  0.82558765  1
  H+  H13  1  0.50703933  0.63333220  0.83612595  1
  H+  H14  1  0.11614602  0.13907705  0.50146925  1
  H+  H15  1  0.12639854  0.38482450  0.67417793  1
  H+  H16  1  0.63332260  0.61017575  0.19040655  1
  H+  H17  1  0.37839235  0.27351558  0.66185119  1
  H+  H18  1  0.65257339  0.28229195  0.50251936  1
  H+  H19  1  0.84732416  0.63499256  0.83246131  1
  H+  H20  1  0.03529239  0.63825231  0.32715442  1
  H+  H21  1  0.51469811  0.22988671  0.10996487  1
  H+  H22  1  0.97621107  0.85654755  0.83937539  1
  H+  H23  1  0.34912576  0.62865261  0.67985920  1
  H+  H24  1  0.59119075  -0.03638344  0.14952382  1
  H+  H25  1  0.13950437  0.73298535  0.82787335  1
  H+  H26  1  0.13242049  0.36937725  0.15919036  1
  H+  H27  1  0.02234858  0.39635575  0.12302847  1
  H+  H28  1  0.89556504  0.27149330  0.65370493  1
  H+  H29  1  0.61656173  0.89856119  0.67799574  1
  H+  H30  1  0.10237076  0.36763484  0.32953231  1
  H+  H31  1  0.97501394  0.61620874  0.99898620  1
  H+  H32  1  0.70243537  0.09461618  0.16257721  1
  H+  H33  1  0.31188028  0.58251283  0.37703652  1
  H+  H34  1  0.37449677  0.51394571  0.83911783  1
  H+  H35  1  0.87242538  0.70415304  0.35373105  1
  H+  H36  1  0.34894110  0.62831194  0.82605722  1
  H+  H37  1  0.71791899  0.35361683  0.98831225  1
  H+  H38  1  0.20960684  0.58180244  0.33784066  1
  H+  H39  1  0.86118007  0.72315938  0.67606389  1
  H+  H40  1  0.09647162  0.61870662  0.99978381  1
  H+  H41  1  0.36545638  0.10579705  0.16049193  1
  H+  H42  1  0.82396745  0.17840700  0.42425401  1
  H+  H43  1  1.03108077  0.14023186  0.67337982  1
  H+  H44  1  0.84238048  0.96640567  0.00566927  1
  H+  H45  1  0.99110780  0.85356169  0.50755824  1
  H+  H46  1  0.86439476  0.88026593  0.83249398  1
  H+  H47  1  0.62247589  0.77207931  -0.01022412  1
  H+  H48  1  0.90820684  0.77731502  -0.00116191  1
  H+  H49  1  0.37915411  0.85670711  0.85905815  1
  H+  H50  1  0.34122014  0.10673546  0.49253426  1
  H+  H51  1  0.62867332  0.35743108  0.83635004  1
  H+  H52  1  0.60784755  0.47095813  0.82584058  1
  H+  H53  1  0.12382618  0.64237616  0.31896747  1
  H+  H54  1  0.85732115  0.73228153  0.16586095  1
  H+  H55  1  0.38448270  0.26930131  0.83513815  1
  H+  H56  1  0.49966876  0.62877861  0.68992191  1
  H+  H57  1  0.21982222  0.59972733  0.85122174  1
  H+  H58  1  0.88783795  0.05287995  0.50729131  1
  H+  H59  1  0.37116418  0.22381927  0.01254319  1
  H+  H60  1  0.89880862  0.85930505  0.66349290  1
  H+  H61  1  0.12067570  0.33990410  1.01147779  1
  H+  H62  1  0.11356038  -0.00697280  0.17249798  1
  H+  H63  1  0.95374223  0.21092524  0.11422806  1
  H+  H64  1  0.85342808  0.38121043  0.14195590  1
  H+  H65  1  0.92306293  0.31830327  0.56651955  1
  H+  H66  1  0.61661926  0.13825814  0.33364004  1
  H+  H67  1  0.09840596  0.12020088  0.16686771  1
  H+  H68  1  0.36948052  0.50674949  0.67847768  1
  H+  H69  1  0.32219348  0.72804236  0.03548327  1
  H+  H70  1  0.58964291  0.16507884  0.76200746  1
  H+  H71  1  0.60916971  0.63717501  -0.02688527  1
  H+  H72  1  0.62260360  0.61715762  0.67904626  1
  H+  H73  1  0.36436056  0.89153871  0.49499845  1
  H+  H74  1  0.87796419  0.50011428  0.50799682  1
  H+  H75  1  0.86737057  0.14773307  0.33409747  1
  H+  H76  1  0.35362071  0.31504423  0.49877659  1
  H+  H77  1  0.59422724  0.87662418  0.14643896  1
  H+  H78  1  0.29093778  0.50221758  0.45073188  1
  H+  H79  1  0.31288582  0.65963798  0.77144330  1
  H+  H80  1  0.47628367  0.11299515  0.83151525  1
  H+  H81  1  0.63563509  0.11145654  0.83827536  1
  H+  H82  1  0.38318394  0.35785620  0.17366861  1
  H+  H83  1  0.29627282  0.82681853  -0.00061062  1
  H+  H84  1  0.63991669  0.79018681  0.31546480  1
  H+  H85  1  0.84260900  0.96977081  0.16210965  1
  H+  H86  1  0.60461047  -0.00182529  1.00420289  1
  H+  H87  1  0.12899926  0.62496842  0.15493749  1
  H+  H88  1  0.25450074  0.64397737  0.61680229  1
  H+  H89  1  0.87235039  1.00226852  0.33987216  1
  H+  H90  1  0.72626759  0.87993220  0.33463748  1
  H+  H91  1  0.48323345  0.37827483  0.32628710  1
  H+  H92  1  0.61227623  0.47952250  0.16124701  1
  H+  H93  1  0.76511475  0.64203655  0.67516670  1
  H+  H94  1  0.03701565  0.62058248  0.15794520  1
  H+  H95  1  0.29633336  0.65753296  0.12298537  1
  H+  H96  1  0.72466121  0.61510802  0.99675043  1
  H+  H97  1  0.38645943  0.53792559  0.99570541  1
  H+  H98  1  0.62057170  0.63807856  0.58771882  1
  H+  H99  1  1.10582755  0.90006499  0.17630988  1
  H+  H100  1  0.72802007  0.86224988  0.83424363  1
  H+  H101  1  0.24244478  0.37408618  0.66869978  1
  H+  H102  1  0.34567187  0.65352331  1.02271925  1
  H+  H103  1  0.40694364  0.79254446  0.51360213  1
  H+  H104  1  0.65442523  0.06690705  0.22576067  1
  H+  H105  1  0.88075916  0.60706379  0.66519007  1
  H+  H106  1  0.23063363  0.86138647  0.66704766  1
  H+  H107  1  0.46630776  0.62556258  0.97715141  1
  H+  H108  1  0.77949147  0.38316854  0.34471480  1
  H+  H109  1  0.34413201  0.50400085  0.32668385  1
  H+  H110  1  0.47519581  0.35818332  0.65836419  1
  H+  H111  1  0.11248155  0.96270014  0.83057700  1
  H+  H112  1  0.58847337  0.72154980  0.68721061  1
  H+  H113  1  0.61973615  0.47021533  0.34160111  1
  H+  H114  1  0.55359059  0.91035292  0.06427522  1
  H+  H115  1  -0.01048487  0.35560936  0.64972570  1
  H+  H116  1  0.49652318  0.61320408  0.32379981  1
  H+  H117  1  0.35732065  0.38836961  0.33719669  1
  H+  H118  1  0.61021771  0.88440696  0.49796158  1
  H+  H119  1  0.72246826  0.36627205  0.66120291  1
  H+  H120  1  0.45053814  0.23750698  0.52823601  1
  H+  H121  1  0.28337465  0.72823288  0.35439210  1
  H+  H122  1  0.10403135  0.46356703  1.02233540  1
  H+  H123  1  0.72921987  0.11757002  0.31489825  1
  H+  H124  1  0.08033493  0.64858513  0.06226231  1
  H+  H125  1  0.12075031  0.89757425  0.34171935  1
  H+  H126  1  0.47630311  0.86600935  0.66740520  1
  H+  H127  1  0.63670634  0.38873736  0.48858729  1
  H+  H128  1  0.89024410  0.14162550  0.15955752  1
  H+  H129  1  0.86221706  0.38602658  0.49112207  1
  H+  H130  1  1.02003558  0.37689697  0.83001975  1
  H+  H131  1  0.49463788  0.60444072  0.53851688  1
  H+  H132  1  0.48643242  0.14475333  0.14709050  1
  H+  H133  1  0.39967478  0.81010265  0.32996178  1
  H+  H134  1  0.45058260  0.48056017  0.04624151  1
  H+  H135  1  0.22570209  0.87371504  0.32671246  1
  H+  H136  1  0.27270812  0.88703848  0.49581839  1
  H+  H137  1  0.01190024  0.63640314  0.50663247  1
  H+  H138  1  0.63111288  0.77811837  0.83685209  1
  H+  H139  1  0.89284057  0.82942841  0.50671952  1
  H+  H140  1  0.96152867  1.09025907  0.18258596  1
  H+  H141  1  0.58471573  0.42143707  0.10018475  1
  H+  H142  1  0.22055973  0.87240807  0.16507552  1
  H+  H143  1  0.39500006  0.02019828  0.66503866  1
  H+  H144  1  0.15469702  0.84870927  0.85255450  1
  H+  H145  1  0.13367837  0.77361053  0.51293725  1
  H+  H146  1  0.95231279  0.78320639  0.29743969  1
  H+  H147  1  0.95014795  0.01695410  0.29991518  1
  H+  H148  1  -0.02748407  0.35860766  0.31545917  1
  H+  H149  1  0.22234494  0.38156837  0.50630310  1
  H+  H150  1  0.19189468  0.58137427  0.26570924  1
  H+  H151  1  0.70982293  0.10472600  0.00380366  1
  H+  H152  1  -0.02673217  0.10767909  0.83633847  1
  H+  H153  1  0.01073953  0.92769289  0.00797583  1
  H+  H154  1  0.74157495  0.59513067  0.33192096  1
  H+  H155  1  0.61971805  0.11170019  1.00119339  1
  H+  H156  1  0.35712763  0.72135598  0.67772827  1
  H+  H157  1  0.39556624  0.11697862  0.99064926  1
  H+  H158  1  0.10382057  0.49950692  0.48404234  1
  H+  H159  1  0.13312321  0.50906609  0.84893938  1
  H+  H160  1  0.61641139  0.98868688  0.67553824  1
  H+  H161  1  0.88553813  0.36217140  0.32107859  1
  H+  H162  1  0.11097470  0.21773540  0.83126638  1
  H+  H163  1  0.07947455  0.16874609  0.01478785  1
  H+  H164  1  0.31280505  0.15087894  0.44039971  1
  H+  H165  1  0.62242889  0.27752096  0.17056721  1
  H+  H166  1  0.97467319  0.34549824  0.49733759  1
  H+  H167  1  0.38766517  1.03758119  0.31846970  1
  H+  H168  1  0.21124476  0.09378500  0.50992320  1
  H+  H169  1  0.67199884  0.64588331  0.42674349  1
  H+  H170  1  0.35592163  0.39011500  0.67722506  1
  H+  H171  1  0.48174269  0.36117434  -0.01273292  1
  H+  H172  1  0.76175223  0.37511368  0.14730395  1
  H+  H173  1  0.12824497  0.88938743  0.67765506  1
  H+  H174  1  0.51877866  0.38198547  0.82317057  1
  H+  H175  1  0.29328712  0.71598837  0.32384255  1
  H+  H176  1  0.27999872  0.13686125  0.82154746  1
  H+  H177  1  0.63847677  0.37081912  0.17479311  1
  H+  H178  1  0.63914156  0.35988198  0.32684781  1
  H+  H179  1  0.18243199  0.57758960  0.45488781  1
  H+  H180  1  0.62996416  0.62445628  0.51956814  1
  H+  H181  1  0.43456784  0.86601108  0.99998051  1
  H+  H182  1  0.89723217  0.51001735  0.33103970  1
  H+  H183  1  0.72132884  0.85679599  0.67083284  1
  H+  H184  1  0.16719988  0.76486083  0.98803864  1
  H+  H185  1  0.84610063  0.21508312  0.00621603  1
  H+  H186  1  0.27658002  0.17094741  0.34991083  1
  H+  H187  1  0.36939446  0.76652927  0.86186459  1
  H+  H188  1  0.90677890  0.28527955  0.16007693  1
  H+  H189  1  0.14493017  1.02888448  0.66864205  1
  H+  H190  1  0.27006484  0.87400640  0.83206438  1
  H+  H191  1  0.14028990  0.12295967  0.33078678  1
  H+  H192  1  0.66699990  0.61434638  0.33767955  1
  H+  H193  1  0.03298796  0.96546433  0.25078105  1
  H+  H194  1  0.90908308  0.63428767  0.18042258  1
  H+  H195  1  0.61361677  0.13921788  0.49041069  1
  H+  H196  1  0.77409030  0.13641011  0.82988736  1
  H+  H197  1  0.01742515  0.12582902  0.34924710  1
  H+  H198  1  0.61766641  0.39606550  0.66629276  1
  H+  H199  1  0.61394513  0.22171653  0.82278271  1
  H+  H200  1  0.82680908  0.41765035  0.91310957  1
  H+  H201  1  0.51679192  0.63620717  0.19379512  1
  H+  H202  1  0.86612132  0.96483718  0.67749075  1
  H+  H203  1  0.22711216  0.13030408  0.67020924  1
  H+  H204  1  0.77388396  0.63906546  0.16770320  1
  H+  H205  1  0.48114426  0.11722310  0.31352194  1
  H+  H206  1  -0.05401701  0.09223820  -0.00852694  1
  H+  H207  1  0.64264385  1.02827985  0.32426985  1
  H+  H208  1  0.73586724  0.60161603  0.48685957  1
  H+  H209  1  0.85561751  0.63573369  1.01481961  1
  H+  H210  1  0.42034431  0.60070971  0.12261061  1
  H+  H211  1  0.94007385  0.89647171  0.25439462  1
  H+  H212  1  0.20433870  0.33415643  1.00841855  1
  H+  H213  1  0.10234510  0.71680039  0.67458189  1
  H+  H214  1  0.27935773  0.23509563  0.71249806  1
  H+  H215  1  0.60351633  0.72582576  0.18905469  1
  H+  H216  1  0.26016901  0.12050547  0.99116193  1
  H+  H217  1  0.39055138  0.11915208  0.82937497  1
  H+  H218  1  0.58492606  0.67331104  -0.08397406  1
  H+  H219  1  0.47460421  0.36310602  0.17171905  1
  H+  H220  1  0.10221311  0.37000284  0.48850560  1
  H+  H221  1  1.03872373  0.88711147  0.67815951  1
  H+  H222  1  0.31212482  0.31579697  0.49728979  1
  H+  H223  1  0.85441646  0.47807566  0.68272411  1
  H+  H224  1  0.21525496  0.36099211  0.16657027  1
  H+  H225  1  0.53360625  0.90641097  0.34257688  1
  H+  H226  1  0.15653509  1.04383723  0.33243181  1
  H+  H227  1  0.36010263  0.97308890  0.14478810  1
  H+  H228  1  0.51540630  0.13217558  -0.00506510  1
  H+  H229  1  0.71320849  0.86189690  0.51651717  1
  H+  H230  1  0.86911106  0.86463001  0.16809613  1
  H+  H231  1  0.82487719  0.87994367  0.36617779  1
  H+  H232  1  0.14127238  0.86573813  0.51088826  1
  H+  H233  1  0.84061479  0.90807796  0.73812537  1
  H+  H234  1  0.88247828  0.77091215  0.84036205  1
  H+  H235  1  0.18681626  0.14077279  0.97416415  1
  H+  H236  1  0.09613372  0.63919382  0.48548730  1
  H+  H237  1  0.32903455  0.18154828  0.75973890  1
  H+  H238  1  0.13945792  0.10368184  0.83716966  1
  H+  H239  1  0.54205015  0.37166498  0.49420500  1
  H+  H240  1  0.10643490  0.00768146  1.00286105  1
  H+  H241  1  0.86575487  0.23561644  0.32559898  1
  H+  H242  1  0.32143238  0.67280784  0.53223813  1
  H+  H243  1  0.61833225  0.89770010  0.34013370  1
  H+  H244  1  0.40149312  0.65883297  0.51733002  1
  H+  H245  1  0.71153317  0.86503817  0.16525389  1
  H+  H246  1  0.88447516  0.35714162  0.85817828  1
  H+  H247  1  0.72717243  0.12247699  0.66102615  1
  H+  H248  1  0.97647683  0.76552305  0.28055849  1
  H+  H249  1  0.85675758  0.37738998  -0.00076309  1
  H+  H250  1  0.11990376  0.63568853  0.82955351  1
  H+  H251  1  0.35779357  0.88590165  0.16057624  1
  H+  H252  1  0.61333092  0.38626138  0.00470748  1
  H+  H253  1  0.39792947  0.53596280  0.51471062  1
  H+  H254  1  0.61899631  0.85778682  1.00132615  1
  H+  H255  1  0.52598300  0.13495751  0.67054146  1
  H+  H256  1  0.84869411  0.92341697  0.49866141  1
  H+  H257  1  0.96630397  0.34841450  1.00546744  1
  H+  H258  1  0.36742297  0.91082032  0.33944151  1
  H+  H259  1  0.03994923  0.06308506  0.02475372  1
  H+  H260  1  0.14811578  0.28300844  0.66142218  1
  H+  H261  1  0.82105108  0.66378718  0.76968126  1
  H+  H262  1  0.35764534  0.21372809  0.15433466  1
  H+  H263  1  0.62746677  0.98448130  0.83040967  1
  H+  H264  1  0.64081396  1.02716234  0.50743376  1
  H+  H265  1  0.87380741  0.53093652  0.85433444  1
  H+  H266  1  0.97167937  0.60870242  0.66817749  1
  H+  H267  1  0.63443093  0.88713721  0.82619205  1
  H+  H268  1  0.62731192  0.26500153  -0.00877518  1
  H+  H269  1  0.46288346  0.85193984  0.17067776  1
  H+  H270  1  0.89584235  0.59698923  0.33635104  1
  H+  H271  1  0.20527470  0.59222023  1.00792854  1
  H+  H272  1  0.81472334  0.02369970  0.63020138  1
  H+  H273  1  0.76454890  0.14395798  0.48594055  1
  H+  H274  1  0.13015222  0.35201286  0.84619938  1
  H+  H275  1  0.67337797  0.33930149  0.59676101  1
  H+  H276  1  0.42403026  0.07751498  0.60437810  1
  H+  H277  1  0.10590126  0.97528740  0.50079870  1
  H+  H278  1  0.93748418  0.82628149  0.93632274  1
  H+  H279  1  0.63724680  0.12096343  0.65852746  1
  H+  H280  1  0.13988758  0.78151665  0.31929841  1
  H+  H281  1  0.54400138  0.63882613  0.33025565  1
  H+  H282  1  0.66004592  0.85198706  0.22694106  1
  H+  H283  1  0.48768281  0.88518358  0.51126595  1
  H+  H284  1  0.98783117  0.12455129  0.51487021  1
  H+  H285  1  0.41751136  0.33086232  0.92929994  1
  H+  H286  1  0.87364504  0.25360584  0.49725220  1
  H+  H287  1  0.87708980  0.70496327  0.50178977  1
  H+  H288  1  0.39450261  0.57580885  0.89799782  1
  H+  H289  1  0.40816708  0.57249455  0.62029463  1
  H+  H290  1  0.59739988  0.92911395  0.76509143  1
  H+  H291  1  0.08477337  0.16301998  0.76966103  1
  H+  H292  1  0.62391934  0.69354355  0.40508798  1
  H+  H293  1  0.11646324  0.13311125  0.67414373  1
  H+  H294  1  0.35765420  0.60323884  0.17015292  1
  H+  H295  1  0.18492451  0.10411065  0.23156824  1
  H+  H296  1  0.86719480  0.60943446  0.50359601  1
  H+  H297  1  0.67182083  0.57410819  0.23839647  1
  H+  H298  1  0.34901757  0.46615941  0.15768688  1
  H+  H299  1  0.47891657  0.11378974  0.50371502  1
  H+  H300  1  0.08073344  0.66147265  0.73446620  1
  H+  H301  1  0.91914661  0.32256193  0.93993254  1
  H+  H302  1  0.93664550  0.59780011  0.23710938  1
  H+  H303  1  0.42174053  0.34509221  0.26703269  1
  H+  H304  1  0.71907275  0.61095460  0.83763164  1
  H+  H305  1  0.04511393  0.12344966  0.10966703  1
  H+  H306  1  0.08626202  0.90397334  0.77292054  1
  H+  H307  1  0.51511816  0.71481678  0.08248846  1
  H+  H308  1  0.15655555  0.55484224  0.94346634  1
  H+  H309  1  0.76394296  0.37904137  0.85790745  1
  H+  H310  1  0.90735843  0.07756724  0.89328643  1
  H+  H311  1  0.33708400  0.40934935  0.10088981  1
  H+  H312  1  0.56781101  0.16826272  0.05888317  1
  H+  H313  1  0.39011001  1.02406504  0.50630794  1
  H+  H314  1  0.42052510  0.84012937  0.60692237  1
  H+  H315  1  0.31763201  0.62945182  0.44196041  1
  H+  H316  1  0.17087601  0.84884651  0.22821160  1
  H+  H317  1  0.33142732  0.92829305  0.40068356  1
  H+  H318  1  0.81912930  0.40641896  0.05379214  1
  H+  H319  1  0.15922360  0.07967484  0.57369894  1
  H+  H320  1  0.42262730  0.09229904  0.92662897  1
  H+  H321  1  0.61324374  0.22906419  0.66847156  1
  H+  H322  1  0.65931515  0.08134760  0.90089273  1
  H+  H323  1  0.82588363  0.66726303  0.07291699  1
  H+  H324  1  0.15301565  0.32221904  0.25896113  1
  H+  H325  1  0.40734124  0.07961150  0.21812823  1
  H+  H326  1  0.67035367  0.57978900  0.93385623  1
  H+  H327  1  0.17359360  0.83536662  0.60599796  1
  H+  H328  1  0.33427941  0.16082380  0.07596621  1
  H+  H329  1  0.84341912  0.64605117  0.41393268  1
  H+  H330  1  0.90345026  0.08055776  0.59753793  1
  H+  H331  1  0.80369205  0.92981212  0.43498168  1
  H+  H332  1  0.89926171  0.06566900  0.24084339  1
  H+  H333  1  0.42749341  0.85706120  0.26710633  1
  H+  H334  1  0.83752450  0.41199949  0.40721992  1
  H+  H335  1  0.36543808  0.25863374  0.35430605  1
  H+  H336  1  0.18347080  0.08024588  0.89169044  1
  H+  H337  1  0.06865996  0.38893828  0.42367112  1
  H+  H338  1  0.90528103  0.59802118  0.90721150  1
  H+  H339  1  0.67141907  0.33403419  0.26716505  1
  H+  H340  1  0.34477560  0.86283730  0.06394783  1
  H+  H341  1  0.66034970  0.83356808  0.61250171  1
  H+  H342  1  0.83354545  0.17399663  0.73446681  1
  H+  H343  1  0.37113408  0.76916873  0.18741685  1
  H+  H344  1  0.86196151  0.96928643  0.82902089  1
  H+  H345  1  0.23602597  0.12257352  0.16607455  1
  H+  H346  1  0.19562253  0.61239447  0.55468329  1
  H+  H347  1  0.75553715  0.87954455  0.01781085  1
  H+  H348  1  0.33424259  0.56450384  0.27844246  1
  H+  H349  1  0.15677741  0.31992940  0.90602082  1
  H+  H350  1  0.33192048  0.91336243  0.74130017  1
  H+  H351  1  0.27104194  0.38036173  0.82837304  1
  H+  H352  1  0.10467025  0.45771290  0.33024382  1
  H+  H353  1  0.62948937  0.53462668  0.66144867  1
  H+  H354  1  0.88505238  0.26899931  0.84475094  1
  H+  H355  1  0.12506224  0.26099101  0.31992451  1
  H+  H356  1  0.59163567  0.92253217  0.43670501  1
  H+  H357  1  0.90472648  0.55883587  0.57342834  1
  H+  H358  1  0.61569090  0.47746585  0.00398652  1
  H+  H359  1  0.31744835  0.43664649  0.42837310  1
  H+  H360  1  0.20710423  0.81927315  0.92576369  1
  H+  H361  1  0.96206156  0.87051673  0.17283359  1
  H+  H362  1  0.58680975  0.42051196  0.72738609  1
  H+  H363  1  0.11741842  0.46923509  0.67927205  1
  H+  H364  1  0.66988810  0.09009737  0.56519654  1
  H+  H365  1  0.08110903  0.40455034  0.77077155  1
  H+  H366  1  0.61813385  0.22774053  0.33638137  1
  H+  H367  1  0.53266846  0.68466851  0.08248171  1
  H+  H368  1  0.08246032  0.16975525  0.40584930  1
  H+  H369  1  0.44127829  0.30413655  0.57103974  1
  H+  H370  1  0.04703155  0.92308896  0.33675102  1
  H+  H371  1  0.93073916  0.82637010  0.60631136  1
  H+  H372  1  0.08647533  0.92237011  0.43772817  1
  H+  H373  1  0.92593960  0.34802272  0.21558199  1
  H+  H374  1  0.63937727  0.76386714  0.53228609  1
  H+  H375  1  0.56915834  0.66587214  0.77934272  1
  H+  H376  1  0.81156056  0.42430669  0.74207265  1
  H+  H377  1  0.83228827  0.15761135  0.06390246  1
  H+  H378  1  0.32622682  0.41160777  0.76495285  1
  H+  H379  1  0.81799606  0.91559114  0.09822675  1
  H+  H380  1  0.35923909  -0.02973836  0.82690958  1
  H+  H381  1  0.17214102  0.34410721  0.57000527  1
  H+  H382  1  0.58610713  0.40605697  0.39872635  1
  H+  H383  1  0.64808131  0.32209112  0.89826635  1
  O2-  O384  1  0.05048824  0.13018624  0.15446483  1
  O2-  O385  1  0.08831934  0.17168437  0.48479721  1
  O2-  O386  1  0.08049769  0.15776412  0.81496079  1
  O2-  O387  1  0.08108306  0.41469793  0.10655917  1
  O2-  O388  1  0.06468027  0.39033552  0.46926545  1
  O2-  O389  1  0.08093012  0.40397129  0.81614345  1
  O2-  O390  1  0.07932258  0.61666701  0.13079465  1
  O2-  O391  1  0.07035036  0.67590710  0.49037866  1
  O2-  O392  1  0.10466719  0.67362983  0.80761873  1
  O2-  O393  1  0.07136858  0.93015748  0.17594082  1
  O2-  O394  1  0.08107130  0.91560655  0.48313017  1
  O2-  O395  1  0.07927322  0.90143184  0.81805126  1
  O2-  O396  1  0.32430602  0.15545198  0.13746514  1
  O2-  O397  1  0.29180056  0.10850564  0.47458284  1
  O2-  O398  1  0.33957866  0.17302154  0.80589492  1
  O2-  O399  1  0.32426143  0.40507374  0.14508911  1
  O2-  O400  1  0.30891239  0.46145180  0.46664703  1
  O2-  O401  1  0.33049387  0.41274853  0.81255760  1
  O2-  O402  1  0.30582940  0.65865431  0.16844875  1
  O2-  O403  1  0.36997620  0.68741563  0.50144462  1
  O2-  O404  1  0.31544992  0.65720426  0.81661532  1
  O2-  O405  1  0.33236938  0.91089997  0.13322929  1
  O2-  O406  1  0.33250972  0.91958241  0.47867288  1
  O2-  O407  1  0.33419420  0.91061617  0.81235370  1
  O2-  O408  1  0.53930863  0.19610727  0.12567910  1
  O2-  O409  1  0.58401454  0.17004028  0.47557891  1
  O2-  O410  1  0.58864517  0.16147803  0.80778234  1
  O2-  O411  1  0.58215246  0.41884086  0.14550217  1
  O2-  O412  1  0.59811336  0.41122253  0.47308155  1
  O2-  O413  1  0.58006309  0.41138801  0.80902853  1
  O2-  O414  1  0.57904993  0.66419431  0.19978380  1
  O2-  O415  1  0.60571812  0.65190260  0.54729381  1
  O2-  O416  1  0.57014387  0.66646915  0.82545999  1
  O2-  O417  1  0.56003306  0.90388880  0.13103262  1
  O2-  O418  1  0.58990640  0.92294616  0.48233133  1
  O2-  O419  1  0.60320424  0.92543245  0.81123681  1
  O2-  O420  1  0.89564721  0.18827642  0.13019506  1
  O2-  O421  1  0.82458595  0.17776371  0.46947937  1
  O2-  O422  1  0.83365570  0.16814586  0.81333535  1
  O2-  O423  1  0.81590046  0.40063848  0.12343802  1
  O2-  O424  1  0.83439067  0.41714922  0.47589833  1
  O2-  O425  1  0.82681984  0.41003395  0.86883441  1
  O2-  O426  1  0.83333152  0.67176324  0.15137130  1
  O2-  O427  1  0.84235472  0.64620606  0.48490088  1
  O2-  O428  1  0.81682607  0.66534534  0.81500091  1
  O2-  O429  1  0.81212014  0.91047572  0.14486830  1
  O2-  O430  1  0.80639394  0.93784319  0.48423210  1
  O2-  O431  1  0.83184552  0.90816650  0.81492010  1
  O2-  O432  1  0.17630548  0.09870071  0.18686893  1
  O2-  O433  1  0.15211632  0.07558514  0.52829646  1
  O2-  O434  1  0.17280816  0.07473365  0.84685644  1
  O2-  O435  1  0.15690744  0.34057877  0.18306369  1
  O2-  O436  1  0.16549540  0.33941421  0.52445313  1
  O2-  O437  1  0.16064986  0.32157776  0.86114211  1
  O2-  O438  1  0.21880952  0.61566756  0.19376265  1
  O2-  O439  1  0.13767685  0.56325070  0.48575175  1
  O2-  O440  1  0.16121251  0.56538348  0.87005107  1
  O2-  O441  1  0.16346121  0.85103241  0.18368494  1
  O2-  O442  1  0.17155544  0.83585345  0.52569619  1
  O2-  O443  1  0.19025985  0.82234278  0.85915329  1
  O2-  O444  1  0.40157797  0.07665917  0.17261397  1
  O2-  O445  1  0.42039950  0.08418739  0.52244318  1
  O2-  O446  1  0.41753021  0.08771688  0.84847093  1
  O2-  O447  1  0.41571803  0.33043707  0.18914678  1
  O2-  O448  1  0.45693117  0.29447931  0.52873733  1
  O2-  O449  1  0.41528792  0.33012223  0.85227210  1
  O2-  O450  1  0.39645752  0.57866877  0.16281630  1
  O2-  O451  1  0.43249000  0.58651626  0.54117977  1
  O2-  O452  1  0.40265936  0.57563284  0.85322278  1
  O2-  O453  1  0.40963463  0.83153926  0.19542170  1
  O2-  O454  1  0.42739765  0.85323812  0.52661889  1
  O2-  O455  1  0.39941353  0.82269301  0.88216108  1
  O2-  O456  1  0.64605399  0.05876710  0.18052161  1
  O2-  O457  1  0.66906521  0.08897854  0.51965870  1
  O2-  O458  1  0.66607009  0.08172332  0.85624363  1
  O2-  O459  1  0.66380808  0.33487366  0.18777020  1
  O2-  O460  1  0.68461400  0.34195005  0.51811799  1
  O2-  O461  1  0.65647979  0.32512205  0.85309529  1
  O2-  O462  1  0.66532127  0.57795496  0.19353901  1
  O2-  O463  1  0.67338238  0.58041507  0.47950125  1
  O2-  O464  1  0.65854230  0.57582304  0.85493851  1
  O2-  O465  1  0.65120662  0.83992177  0.18246025  1
  O2-  O466  1  0.65517951  0.82531669  0.53555804  1
  O2-  O467  1  0.66634214  0.84071100  0.84609266  1
  O2-  O468  1  0.89895344  0.06966377  0.19560364  1
  O2-  O469  1  0.92894968  0.10161492  0.53244660  1
  O2-  O470  1  0.91083100  0.07842929  0.84748425  1
  O2-  O471  1  0.92711009  0.34631699  0.17031085  1
  O2-  O472  1  0.91538888  0.31721443  0.51788215  1
  O2-  O473  1  0.91872370  0.32763787  0.86327479  1
  O2-  O474  1  0.95055932  0.61729140  0.19441738  1
  O2-  O475  1  0.90760107  0.56194688  0.52810908  1
  O2-  O476  1  0.89566328  0.59212117  0.86239886  1
  O2-  O477  1  0.90109924  0.83832418  0.18754171  1
  O2-  O478  1  0.93113390  0.81313918  0.52610467  1
  O2-  O479  1  0.91557003  0.83140163  0.85526588  1
  O2-  O480  1  0.17739786  0.10134335  0.31390178  1
  O2-  O481  1  0.16572593  0.08722764  0.65119693  1
  O2-  O482  1  0.20253778  0.09700132  0.96729363  1
  O2-  O483  1  0.15621006  0.32145317  0.30457751  1
  O2-  O484  1  0.17770604  0.34377408  0.64821250  1
  O2-  O485  1  0.14635312  0.30802416  0.99199557  1
  O2-  O486  1  0.16419244  0.56150047  0.30703326  1
  O2-  O487  1  0.24729685  0.65863459  0.57472315  1
  O2-  O488  1  0.14927330  0.55023049  0.98943298  1
  O2-  O489  1  0.16578889  0.84484677  0.31072612  1
  O2-  O490  1  0.17000403  0.83295060  0.65126547  1
  O2-  O491  1  0.21779184  0.81698808  0.97246455  1
  O2-  O492  1  0.42359802  0.08996566  0.29434496  1
  O2-  O493  1  0.43085491  0.07984823  0.64918266  1
  O2-  O494  1  0.42888834  0.09219627  0.97185870  1
  O2-  O495  1  0.42298978  0.35557764  0.31180348  1
  O2-  O496  1  0.41849814  0.32851333  0.63807187  1
  O2-  O497  1  0.41992879  0.33367252  0.97512473  1
  O2-  O498  1  0.35706947  0.56478573  0.31852931  1
  O2-  O499  1  0.40268382  0.57236399  0.66526697  1
  O2-  O500  1  0.40226063  0.59479276  0.97850212  1
  O2-  O501  1  0.43364125  0.86745414  0.31261715  1
  O2-  O502  1  0.41680525  0.83174302  0.65197056  1
  O2-  O503  1  0.49156006  0.87849255  0.97611695  1
  O2-  O504  1  0.66806970  0.08434664  0.30181614  1
  O2-  O505  1  0.66761303  0.08900415  0.64444272  1
  O2-  O506  1  0.64873480  0.07552726  0.98787511  1
  O2-  O507  1  0.67225693  0.33191954  0.31253758  1
  O2-  O508  1  0.66395795  0.33603995  0.64190026  1
  O2-  O509  1  0.65590810  0.32600575  0.97614747  1
  O2-  O510  1  0.68207188  0.57457900  0.31660767  1
  O2-  O511  1  0.65553895  0.59777176  0.65358304  1
  O2-  O512  1  0.66461660  0.58210907  0.97897881  1
  O2-  O513  1  0.66843080  0.85180467  0.30785444  1
  O2-  O514  1  0.66094429  0.83575200  0.65824315  1
  O2-  O515  1  0.64943129  0.82735283  1.01190509  1
  O2-  O516  1  0.92265032  0.05000742  0.31515183  1
  O2-  O517  1  0.87512051  0.06088463  0.64047203  1
  O2-  O518  1  0.89081856  0.07041611  0.96769597  1
  O2-  O519  1  0.91268605  0.33247381  0.29879276  1
  O2-  O520  1  0.93202775  0.32501780  0.63002295  1
  O2-  O521  1  0.90934261  0.31927601  0.98518315  1
  O2-  O522  1  0.92677945  0.57104577  0.31626775  1
  O2-  O523  1  0.90962395  0.57492682  0.65242639  1
  O2-  O524  1  0.91254194  0.58891648  0.98621494  1
  O2-  O525  1  0.98464157  0.94466146  0.27997305  1
  O2-  O526  1  0.92949538  0.82829951  0.65146660  1
  O2-  O527  1  0.95633668  0.82724148  0.97876681  1
  O2-  O528  1  0.03116404  0.11597802  0.03077281  1
  O2-  O529  1  0.07857873  0.16614466  0.36038463  1
  O2-  O530  1  0.08898746  0.16798394  0.68992920  1
  O2-  O531  1  0.07077258  0.40102596  0.04014004  1
  O2-  O532  1  0.07184781  0.39747873  0.34634932  1
  O2-  O533  1  0.08815186  0.40859162  0.69017437  1
  O2-  O534  1  0.07654640  0.65647751  0.01682296  1
  O2-  O535  1  0.09837470  0.67708659  0.33183763  1
  O2-  O536  1  0.06859811  0.65704491  0.68937702  1
  O2-  O537  1  0.05142327  0.98654511  0.02433506  1
  O2-  O538  1  0.09814276  0.93366624  0.36064082  1
  O2-  O539  1  0.09831363  0.92035651  0.69385955  1
  O2-  O540  1  0.34269566  0.16327966  0.02567234  1
  O2-  O541  1  0.32488291  0.20692803  0.37749972  1
  O2-  O542  1  0.30333938  0.19953410  0.69949335  1
  O2-  O543  1  0.39264389  0.44608637  0.02992190  1
  O2-  O544  1  0.31755573  0.40898041  0.35158009  1
  O2-  O545  1  0.32303853  0.41463902  0.69558795  1
  O2-  O546  1  0.30530415  0.66625215  0.04438828  1
  O2-  O547  1  0.27744439  0.58217965  0.41345449  1
  O2-  O548  1  0.31743570  0.66010935  0.68845891  1
  O2-  O549  1  0.34735608  0.83186060  0.02713822  1
  O2-  O550  1  0.32962475  0.93166270  0.35521833  1
  O2-  O551  1  0.33196677  0.91554466  0.69441559  1
  O2-  O552  1  0.57785986  0.16166908  0.01477421  1
  O2-  O553  1  0.58616559  0.16674732  0.35116236  1
  O2-  O554  1  0.58868422  0.16940301  0.68497023  1
  O2-  O555  1  0.58314418  0.41685059  0.01959296  1
  O2-  O556  1  0.58396593  0.40833726  0.35285197  1
  O2-  O557  1  0.58802465  0.42671631  0.68235710  1
  O2-  O558  1  0.57701731  0.66700085  -0.03981251  1
  O2-  O559  1  0.67229478  0.68604340  0.39470045  1
  O2-  O560  1  0.56176783  0.66317295  0.70497685  1
  O2-  O561  1  0.56598281  0.92492282  0.01681620  1
  O2-  O562  1  0.59301211  0.93101563  0.35928524  1
  O2-  O563  1  0.58742041  0.92947981  0.69411090  1
  O2-  O564  1  0.81266477  0.15405755  0.02097195  1
  O2-  O565  1  0.83429755  0.17555600  0.34429138  1
  O2-  O566  1  0.83221287  0.17439694  0.68892774  1
  O2-  O567  1  0.82433197  0.40807539  0.00683012  1
  O2-  O568  1  0.83957892  0.40894138  0.35949415  1
  O2-  O569  1  0.81698553  0.41787293  0.69871778  1
  O2-  O570  1  0.82284081  0.66460694  0.02735072  1
  O2-  O571  1  0.84057946  0.64468024  0.36733830  1
  O2-  O572  1  0.82436106  0.66310429  0.69100943  1
  O2-  O573  1  0.81810184  0.91144059  0.02794415  1
  O2-  O574  1  0.80239745  0.91892727  0.37137696  1
  O2-  O575  1  0.83836942  0.90482764  0.69230015  1
