# generated using pymatgen
data_H2O
_symmetry_space_group_name_H-M   'P 1'
_cell_length_a   17.98538376
_cell_length_b   17.95345591
_cell_length_c   21.98380468
_cell_angle_alpha   89.93462206
_cell_angle_beta   90.06350787
_cell_angle_gamma   120.00842574
_symmetry_Int_Tables_number   1
_chemical_formula_structural   H2O
_chemical_formula_sum   'H384 O192'
_cell_volume   6147.01129401
_cell_formula_units_Z   192
loop_
 _symmetry_equiv_pos_site_id
 _symmetry_equiv_pos_as_xyz
  1  'x, y, z'
loop_
 _atom_type_symbol
 _atom_type_oxidation_number
  H+  1.0
  O2-  -2.0
loop_
 _atom_site_type_symbol
 _atom_site_label
 _atom_site_symmetry_multiplicity
 _atom_site_fract_x
 _atom_site_fract_y
 _atom_site_fract_z
 _atom_site_occupancy
  H+  H0  1  0.13242266  0.36415759  0.32876131  1
  H+  H1  1  0.63902416  0.76874855  -0.01033586  1
  H+  H2  1  0.40305463  0.53575820  0.97001918  1
  H+  H3  1  0.66762506  0.51085754  0.82565582  1
  H+  H4  1  0.10924857  0.67023619  0.10523637  1
  H+  H5  1  0.66183323  0.15766773  0.47585807  1
  H+  H6  1  0.36227527  0.35089547  0.32993891  1
  H+  H7  1  0.09405697  0.67483996  -0.14392369  1
  H+  H8  1  0.35812638  0.73981910  0.68482989  1
  H+  H9  1  0.77491478  0.39280311  0.49650707  1
  H+  H10  1  0.61109599  0.63823853  0.33198042  1
  H+  H11  1  0.86955007  0.45944510  0.16431044  1
  H+  H12  1  0.94363397  0.87348145  0.84315677  1
  H+  H13  1  0.21745136  0.09269557  0.84893939  1
  H+  H14  1  0.87563812  0.23651401  0.01784787  1
  H+  H15  1  0.62849118  0.85817028  0.16626042  1
  H+  H16  1  0.24252565  0.85803324  0.96979707  1
  H+  H17  1  0.09038104  -0.03553573  0.49607559  1
  H+  H18  1  0.52211126  0.88071423  0.34713060  1
  H+  H19  1  0.65802387  0.83100667  0.22819346  1
  H+  H20  1  0.39667602  0.53688111  0.51268678  1
  H+  H21  1  0.38617534  0.28435072  0.67852817  1
  H+  H22  1  0.49005115  0.62192200  0.50895209  1
  H+  H23  1  0.38065770  0.76422600  0.50303824  1
  H+  H24  1  1.04178670  0.64877200  0.97418098  1
  H+  H25  1  1.02367439  0.38384526  0.83603653  1
  H+  H26  1  0.13320339  0.36593793  0.50905684  1
  H+  H27  1  0.09420226  0.96761101  0.83561671  1
  H+  H28  1  0.12205850  0.61334675  0.35537006  1
  H+  H29  1  0.41322945  0.58252896  0.26632660  1
  H+  H30  1  0.87569804  0.08898740  0.84400267  1
  H+  H31  1  0.73825857  0.85014030  0.50089537  1
  H+  H32  1  0.63875661  0.61098522  0.16366039  1
  H+  H33  1  0.84274181  1.00171698  0.15483362  1
  H+  H34  1  0.27719733  0.62996987  0.99548821  1
  H+  H35  1  0.89572661  0.61993605  0.50190986  1
  H+  H36  1  0.54828547  0.13600743  -0.01662738  1
  H+  H37  1  0.37315752  0.50084819  0.65919638  1
  H+  H38  1  0.13546643  0.87732427  0.82500288  1
  H+  H39  1  0.53901336  0.38309179  0.00269920  1
  H+  H40  1  0.27912989  0.40442969  0.67738896  1
  H+  H41  1  0.91691088  0.60209256  0.60116658  1
  H+  H42  1  0.73152755  0.86820625  0.99562007  1
  H+  H43  1  0.68326162  0.59207450  0.93499432  1
  H+  H44  1  0.39438426  0.27940634  0.17627414  1
  H+  H45  1  0.78035624  0.63342439  0.46894291  1
  H+  H46  1  0.21549674  0.10401199  0.66481207  1
  H+  H47  1  0.39709991  0.61137221  0.16520963  1
  H+  H48  1  0.31359495  0.89939999  0.72581769  1
  H+  H49  1  0.76300387  0.87141610  0.68725396  1
  H+  H50  1  0.65415637  0.28507753  0.50030676  1
  H+  H51  1  0.08616306  0.89816312  0.15850162  1
  H+  H52  1  0.63876160  0.26680022  0.15959827  1
  H+  H53  1  0.21873520  0.11619631  1.00186784  1
  H+  H54  1  0.87153199  0.21949665  0.17340914  1
  H+  H55  1  0.61675518  0.40069778  0.67564072  1
  H+  H56  1  0.33723071  0.93168596  0.08032282  1
  H+  H57  1  0.27497797  0.39274405  0.81604877  1
  H+  H58  1  0.37664280  0.88491136  1.00156903  1
  H+  H59  1  0.11426900  0.11878317  0.34665756  1
  H+  H60  1  0.88049727  0.33647727  0.17845032  1
  H+  H61  1  0.16096147  0.59594803  0.19440158  1
  H+  H62  1  0.61470835  0.92770673  0.74203405  1
  H+  H63  1  0.84721187  0.41392812  0.07066908  1
  H+  H64  1  0.47749245  0.37418104  0.68455508  1
  H+  H65  1  0.88833414  0.11358171  0.21767070  1
  H+  H66  1  0.38117297  0.36192117  0.99125301  1
  H+  H67  1  0.59159454  0.49526179  0.33956102  1
  H+  H68  1  0.63593978  0.01309510  0.32087844  1
  H+  H69  1  0.79857359  0.40016706  0.00719357  1
  H+  H70  1  0.72549565  0.11456246  0.66158544  1
  H+  H71  1  0.12336990  0.22168635  0.82166872  1
  H+  H72  1  0.26356882  0.62910562  0.35255152  1
  H+  H73  1  0.00192889  0.62523812  0.34507081  1
  H+  H74  1  0.53335680  0.88237512  0.49468694  1
  H+  H75  1  0.44210952  0.94233795  0.84720184  1
  H+  H76  1  0.39115413  0.02343147  0.16451920  1
  H+  H77  1  0.66845287  0.64052541  0.84612198  1
  H+  H78  1  0.87747081  0.54270509  0.66092535  1
  H+  H79  1  0.17035209  0.81049153  0.82188957  1
  H+  H80  1  0.63766662  0.35649344  0.16231950  1
  H+  H81  1  0.86195845  0.41359875  0.67009736  1
  H+  H82  1  0.66335756  0.03120717  0.84295096  1
  H+  H83  1  0.91729133  0.54342373  1.02189468  1
  H+  H84  1  0.52849283  0.39720868  0.49990468  1
  H+  H85  1  0.13655290  0.10764491  0.84483658  1
  H+  H86  1  0.35092340  0.37612257  0.81235019  1
  H+  H87  1  0.88561913  0.29347139  0.66516974  1
  H+  H88  1  0.78215447  0.63545070  0.00755494  1
  H+  H89  1  0.10817746  0.23235022  0.34399521  1
  H+  H90  1  0.87821658  -0.03086832  0.67909058  1
  H+  H91  1  0.77764692  0.13697129  0.49679412  1
  H+  H92  1  0.76843169  0.12948478  0.33912075  1
  H+  H93  1  0.78927126  0.37658017  0.83893623  1
  H+  H94  1  0.12162674  0.76637372  0.67403989  1
  H+  H95  1  0.76111181  0.90459780  0.15984710  1
  H+  H96  1  0.12739677  0.72809729  0.50085286  1
  H+  H97  1  0.34829096  0.19936230  0.83709761  1
  H+  H98  1  0.28296850  0.91010045  0.34053655  1
  H+  H99  1  0.10822943  0.22574203  0.49972657  1
  H+  H100  1  0.36184035  0.87356121  0.49411044  1
  H+  H101  1  0.23997481  0.11124637  0.50015097  1
  H+  H102  1  0.32589521  0.16491860  0.73862071  1
  H+  H103  1  0.36809933  0.38303661  0.16965817  1
  H+  H104  1  0.63860002  0.10329525  0.31365334  1
  H+  H105  1  0.36914522  0.47927762  0.16516157  1
  H+  H106  1  0.72641688  0.60682452  0.16644324  1
  H+  H107  1  0.63503622  0.86234341  0.98528969  1
  H+  H108  1  0.08606071  0.71731459  0.35327544  1
  H+  H109  1  0.39323501  0.63004374  0.66492457  1
  H+  H110  1  0.73933527  0.64078016  0.67320443  1
  H+  H111  1  0.01589335  0.63730646  0.68504383  1
  H+  H112  1  0.64567270  0.52830893  -0.00767417  1
  H+  H113  1  0.63810901  0.03101468  0.65996651  1
  H+  H114  1  0.86208008  0.37984892  0.34140268  1
  H+  H115  1  0.02245911  0.38748203  0.50190428  1
  H+  H116  1  0.65806284  0.02480494  0.99167935  1
  H+  H117  1  0.48474428  0.45927407  0.56060165  1
  H+  H118  1  0.00092405  0.87034812  0.67753637  1
  H+  H119  1  0.22176769  0.36530515  0.32919204  1
  H+  H120  1  0.85920323  0.63084320  0.32259230  1
  H+  H121  1  0.49844825  0.11324488  0.31918130  1
  H+  H122  1  0.08773124  0.87431173  0.49907481  1
  H+  H123  1  0.66631071  0.87610934  0.68149423  1
  H+  H124  1  0.89638238  0.36208851  0.00387169  1
  H+  H125  1  0.98841691  0.87666361  0.15835796  1
  H+  H126  1  0.10211389  0.47165523  0.35246718  1
  H+  H127  1  -0.02500669  0.60370280  0.16595011  1
  H+  H128  1  0.17892904  0.56571847  0.92531545  1
  H+  H129  1  0.90424244  0.60474797  0.86006499  1
  H+  H130  1  0.62207392  0.13204336  0.14737859  1
  H+  H131  1  0.19880867  0.86467281  0.67911060  1
  H+  H132  1  0.63432343  0.36252049  0.50196700  1
  H+  H133  1  0.96605564  0.11429831  0.32118939  1
  H+  H134  1  0.78414043  0.13681425  1.01484772  1
  H+  H135  1  0.83537893  0.66681138  0.38068355  1
  H+  H136  1  0.63148263  0.77046866  0.32277205  1
  H+  H137  1  0.11754082  0.10272458  0.51196727  1
  H+  H138  1  1.01634144  0.13910257  0.49918065  1
  H+  H139  1  0.66531213  0.07039520  0.22348501  1
  H+  H140  1  0.75300832  0.63125454  0.84021975  1
  H+  H141  1  0.63335728  0.14624408  0.82828683  1
  H+  H142  1  0.88028222  0.02436713  0.31850749  1
  H+  H143  1  0.44948820  0.35276240  0.33184184  1
  H+  H144  1  0.72166617  0.85855334  0.32236410  1
  H+  H145  1  0.53303427  0.15972938  0.50931265  1
  H+  H146  1  0.52620273  0.38676793  0.16099286  1
  H+  H147  1  0.89207574  0.53123240  0.51180405  1
  H+  H148  1  0.88744696  0.27783045  0.51027898  1
  H+  H149  1  0.39791098  0.62032717  0.97534391  1
  H+  H150  1  0.11469071  0.14091216  0.67073319  1
  H+  H151  1  0.52684869  0.89223103  0.13513618  1
  H+  H152  1  0.20603853  0.12784973  0.19981201  1
  H+  H153  1  0.51587513  0.44544884  0.82001573  1
  H+  H154  1  0.11980791  0.23170944  0.68534252  1
  H+  H155  1  0.19730331  0.35288229  0.74728753  1
  H+  H156  1  0.84864030  0.92596208  0.84597447  1
  H+  H157  1  0.59098322  0.16105967  0.05046360  1
  H+  H158  1  0.88623558  0.36678449  0.50880251  1
  H+  H159  1  0.23023087  0.60384254  0.52137296  1
  H+  H160  1  0.97768796  0.11382731  0.66446353  1
  H+  H161  1  0.47173049  0.61354019  0.32573083  1
  H+  H162  1  0.63860737  0.27885402  0.84019136  1
  H+  H163  1  0.40340281  0.11777609  0.17264145  1
  H+  H164  1  0.50175594  0.09620210  0.85407942  1
  H+  H165  1  0.09035287  0.87528953  0.67862016  1
  H+  H166  1  0.43294626  0.60610670  0.60727568  1
  H+  H167  1  0.35985144  1.02545246  0.69290383  1
  H+  H168  1  0.61077738  0.88053888  0.33883843  1
  H+  H169  1  0.33974730  0.67292562  0.73681731  1
  H+  H170  1  0.73116611  0.10206967  0.16869213  1
  H+  H171  1  0.02435841  0.38047384  0.01038449  1
  H+  H172  1  0.88543914  0.12547273  0.51053730  1
  H+  H173  1  0.61447656  0.64883738  0.70418109  1
  H+  H174  1  0.27440330  0.39686593  0.49888190  1
  H+  H175  1  0.53545840  0.64425333  -0.00616279  1
  H+  H176  1  0.40959287  0.33180916  0.23854375  1
  H+  H177  1  0.72658681  0.23236328  0.43478878  1
  H+  H178  1  0.29314970  0.63702387  0.15044167  1
  H+  H179  1  0.34454919  0.07962321  0.51596613  1
  H+  H180  1  0.06549998  0.13180011  0.17394683  1
  H+  H181  1  0.38140312  0.87055633  0.13814314  1
  H+  H182  1  0.20246278  0.86103794  0.52091980  1
  H+  H183  1  0.40134278  0.01948411  0.32469492  1
  H+  H184  1  0.14798046  0.51955204  0.83296767  1
  H+  H185  1  0.27244799  0.38279446  0.16805008  1
  H+  H186  1  0.12952778  0.37374436  0.15631252  1
  H+  H187  1  0.38432080  0.76872237  0.83992722  1
  H+  H188  1  0.86222210  0.88219377  0.32883251  1
  H+  H189  1  0.11608389  0.13582893  0.00659515  1
  H+  H190  1  0.33247055  0.19495617  0.50211234  1
  H+  H191  1  0.62098721  0.49334585  0.68067632  1
  H+  H192  1  0.37662461  0.64407923  0.50240323  1
  H+  H193  1  0.48274190  0.60632740  0.16837858  1
  H+  H194  1  0.13298847  0.36167637  0.83347977  1
  H+  H195  1  0.86598713  0.88468085  0.17183867  1
  H+  H196  1  0.88106994  0.51253282  0.32501206  1
  H+  H197  1  0.13812662  0.26943317  0.17157032  1
  H+  H198  1  0.11906207  0.24273605  1.00796021  1
  H+  H199  1  0.35767392  0.47757163  0.34157671  1
  H+  H200  1  0.53300845  0.13045799  0.14842039  1
  H+  H201  1  0.32701772  0.24146935  1.01043104  1
  H+  H202  1  0.55426595  0.88566540  0.68490222  1
  H+  H203  1  0.26793659  0.32868077  0.96668217  1
  H+  H204  1  0.95819204  0.86410019  0.99645821  1
  H+  H205  1  0.85281594  0.10638971  0.68433368  1
  H+  H206  1  0.13070767  0.35228657  0.00612001  1
  H+  H207  1  0.85795946  0.13261733  0.34082880  1
  H+  H208  1  0.90213910  0.26650368  0.85632562  1
  H+  H209  1  0.52329044  0.13903735  0.67976731  1
  H+  H210  1  0.51186800  0.47826632  0.37791077  1
  H+  H211  1  0.25212778  0.92014290  0.76569869  1
  H+  H212  1  0.52975965  0.65487551  0.69536356  1
  H+  H213  1  0.90994712  0.93980420  0.48326758  1
  H+  H214  1  0.43603355  0.08952684  0.52790209  1
  H+  H215  1  0.09502544  0.66659580  0.44388927  1
  H+  H216  1  0.63029541  0.28292990  0.66264535  1
  H+  H217  1  0.11347315  0.47606938  0.50343028  1
  H+  H218  1  0.72457867  0.61233745  0.31685379  1
  H+  H219  1  0.35772671  0.88377999  0.34763840  1
  H+  H220  1  0.43659941  0.36799704  0.58878555  1
  H+  H221  1  0.65891911  0.28006624  0.98924980  1
  H+  H222  1  0.77390197  0.38062458  0.33514290  1
  H+  H223  1  0.64441168  0.02063682  0.50590562  1
  H+  H224  1  0.64076982  0.35799131  0.31096055  1
  H+  H225  1  0.33287289  0.21296720  0.34518564  1
  H+  H226  1  0.54584795  0.14965338  0.53979356  1
  H+  H227  1  0.41186205  0.09611223  0.93573628  1
  H+  H228  1  0.13983715  0.60314954  0.96938655  1
  H+  H229  1  0.63455413  -0.12244021  0.82472797  1
  H+  H230  1  0.82053062  0.57814539  0.78574170  1
  H+  H231  1  0.22485193  0.61880597  0.67009193  1
  H+  H232  1  0.12290619  0.01618088  0.66528044  1
  H+  H233  1  1.01840509  0.88623980  0.33697255  1
  H+  H234  1  0.88324018  0.59360279  0.17074540  1
  H+  H235  1  0.77039211  0.40658446  0.66824413  1
  H+  H236  1  0.10298751  0.63271350  0.68433258  1
  H+  H237  1  0.62108528  0.22415701  0.31983445  1
  H+  H238  1  0.85737636  0.67221103  0.76417705  1
  H+  H239  1  0.35170829  0.96606617  0.50192947  1
  H+  H240  1  0.61577561  0.47415113  0.15717974  1
  H+  H241  1  0.11604807  0.47080301  0.00303031  1
  H+  H242  1  0.78930815  0.14057048  0.83859104  1
  H+  H243  1  0.12826922  0.46640903  0.15495278  1
  H+  H244  1  0.86307908  0.84992097  0.00274518  1
  H+  H245  1  0.88173636  0.26561282  0.33429411  1
  H+  H246  1  0.04716342  0.00320174  0.19198666  1
  H+  H247  1  0.50929098  0.40331795  0.80782058  1
  H+  H248  1  0.37527800  0.72984125  0.14147758  1
  H+  H249  1  0.11232523  1.01972352  0.34527680  1
  H+  H250  1  0.66484972  0.41029783  0.82515918  1
  H+  H251  1  0.87583624  0.46199431  0.85224230  1
  H+  H252  1  0.27122029  0.90168916  0.13719001  1
  H+  H253  1  0.30401757  0.15176227  0.40509480  1
  H+  H254  1  0.38253326  0.63859218  0.81559930  1
  H+  H255  1  0.02801820  0.39059063  0.67331101  1
  H+  H256  1  0.15384443  0.90715784  0.32014021  1
  H+  H257  1  0.61900493  0.97629580  0.14575089  1
  H+  H258  1  0.81797498  0.78746841  0.18669616  1
  H+  H259  1  0.65519493  0.36704820  0.99485054  1
  H+  H260  1  0.85937846  0.72764082  0.47056459  1
  H+  H261  1  0.88864255  0.77059020  0.31513541  1
  H+  H262  1  -0.02804974  0.35476188  0.33479639  1
  H+  H263  1  0.35981857  0.14534107  0.67913845  1
  H+  H264  1  0.19162658  0.10096430  0.17096891  1
  H+  H265  1  0.65461771  0.85976009  0.50136734  1
  H+  H266  1  0.62294384  0.72591855  0.48779978  1
  H+  H267  1  0.91003708  0.62877809  1.01752579  1
  H+  H268  1  0.12369482  0.79378883  0.15533395  1
  H+  H269  1  0.61361617  0.72439005  0.15481861  1
  H+  H270  1  -0.04465432  0.85721688  0.49453510  1
  H+  H271  1  0.92282937  0.32361702  0.94516925  1
  H+  H272  1  0.30027310  0.14863368  0.16612676  1
  H+  H273  1  0.89507471  0.35328272  0.85836396  1
  H+  H274  1  0.97108921  1.00741767  -0.04573379  1
  H+  H275  1  0.37226806  0.40357674  0.66615996  1
  H+  H276  1  0.64508350  0.51690764  0.49431521  1
  H+  H277  1  0.65387398  0.77925974  0.69302562  1
  H+  H278  1  0.77405895  0.06016318  0.72721826  1
  H+  H279  1  0.41777550  0.88005477  0.75126065  1
  H+  H280  1  0.35773171  0.11495216  0.83107556  1
  H+  H281  1  0.86899527  0.87393812  0.68252648  1
  H+  H282  1  0.39484008  0.76967726  0.99535529  1
  H+  H283  1  0.87732545  0.77517010  0.61335671  1
  H+  H284  1  0.87015362  0.70957629  0.15937755  1
  H+  H285  1  0.66205852  0.58134192  0.25899084  1
  H+  H286  1  0.37272448  0.76088197  0.34974323  1
  H+  H287  1  0.39557134  0.52301658  0.81702446  1
  H+  H288  1  0.11631429  0.48062758  0.67872707  1
  H+  H289  1  0.34894664  0.18279908  0.10424688  1
  H+  H290  1  0.13912061  0.58721847  0.29333068  1
  H+  H291  1  0.83470870  0.16713844  0.43572634  1
  H+  H292  1  0.07775086  0.17115310  0.10598215  1
  H+  H293  1  0.35334048  0.62864685  0.34305470  1
  H+  H294  1  0.35420376  0.29995174  0.90660171  1
  H+  H295  1  0.08277658  0.06321463  0.24896842  1
  H+  H296  1  0.42414366  0.91126119  0.68294351  1
  H+  H297  1  0.67014025  0.32920979  0.25126603  1
  H+  H298  1  0.08512239  0.15246746  0.76922348  1
  H+  H299  1  0.36094246  0.17230663  0.01120485  1
  H+  H300  1  0.87217392  0.03251538  0.51412934  1
  H+  H301  1  0.59095828  0.91421837  0.43531793  1
  H+  H302  1  0.16331954  0.08572699  0.93862891  1
  H+  H303  1  0.14411031  0.82729906  0.57989672  1
  H+  H304  1  0.58264185  0.66439839  0.39411769  1
  H+  H305  1  0.91857993  0.57074293  0.26438744  1
  H+  H306  1  0.92545431  0.05031112  0.92081040  1
  H+  H307  1  0.07263931  0.41221624  0.77043432  1
  H+  H308  1  0.38672870  0.05675559  0.62494044  1
  H+  H309  1  0.91002944  0.31088951  0.24030947  1
  H+  H310  1  0.83148760  0.41609417  0.43575348  1
  H+  H311  1  0.16685765  0.61757869  0.83683127  1
  H+  H312  1  0.85710228  0.96763660  0.00235789  1
  H+  H313  1  0.02310362  0.12640606  -0.00210587  1
  H+  H314  1  0.84844893  0.16491904  0.78077756  1
  H+  H315  1  0.88690119  0.84218197  0.90195114  1
  H+  H316  1  0.20758787  0.55453485  0.23025220  1
  H+  H317  1  0.65733875  0.33953157  0.60169360  1
  H+  H318  1  0.65884604  0.11535380  0.99274987  1
  H+  H319  1  0.15035129  0.61618486  0.51374031  1
  H+  H320  1  0.53257742  0.88408336  -0.00485841  1
  H+  H321  1  0.68748667  0.08938719  0.90237947  1
  H+  H322  1  0.14648945  0.06896085  0.57088435  1
  H+  H323  1  0.66517053  0.62259258  0.62662249  1
  H+  H324  1  0.33257100  0.91493843  0.43320578  1
  H+  H325  1  0.41128642  0.82986593  0.55900037  1
  H+  H326  1  0.66970472  0.08451221  0.56373842  1
  H+  H327  1  0.86516763  0.72936858  0.00844453  1
  H+  H328  1  0.43004038  0.07477124  0.25618865  1
  H+  H329  1  0.43691788  0.58787809  0.87244537  1
  H+  H330  1  0.05264892  0.92413514  0.06721650  1
  H+  H331  1  0.56801978  0.41916365  0.43239047  1
  H+  H332  1  0.42185304  0.85416282  0.19515154  1
  H+  H333  1  0.83586215  0.90244736  0.39105274  1
  H+  H334  1  0.95985722  0.59099416  0.90894810  1
  H+  H335  1  0.18100032  0.33568487  0.88427460  1
  H+  H336  1  0.59173085  0.69491198  0.79882333  1
  H+  H337  1  0.91380505  0.08091540  0.60747487  1
  H+  H338  1  0.40035076  0.81443475  0.29044113  1
  H+  H339  1  0.19446922  0.85557786  0.90897024  1
  H+  H340  1  0.09222250  0.97780963  0.00698897  1
  H+  H341  1  0.36658376  0.40436804  0.50315537  1
  H+  H342  1  0.29010639  0.63212226  0.82398333  1
  H+  H343  1  0.62497496  0.64433365  -0.00016416  1
  H+  H344  1  0.63603204  0.44962814  0.76051197  1
  H+  H345  1  0.16410506  0.85436890  0.21363957  1
  H+  H346  1  0.23076580  0.96878009  0.27922017  1
  H+  H347  1  0.38213424  0.97311019  -0.01567830  1
  H+  H348  1  0.91447936  0.83967823  0.26148483  1
  H+  H349  1  0.16461262  0.58458833  0.61163476  1
  H+  H350  1  0.14997410  0.37720521  0.69661773  1
  H+  H351  1  0.59146232  0.16943632  0.77211139  1
  H+  H352  1  0.07035693  0.91049295  0.40135011  1
  H+  H353  1  0.91755275  0.34377261  0.60270819  1
  H+  H354  1  0.58646076  0.66746053  0.09415647  1
  H+  H355  1  0.69010745  0.81339559  0.88066124  1
  H+  H356  1  0.87750464  0.66023561  0.66336905  1
  H+  H357  1  0.84527134  0.16610777  0.07987055  1
  H+  H358  1  0.77782628  0.37420047  0.15867047  1
  H+  H359  1  0.62017067  0.63555206  0.48683287  1
  H+  H360  1  0.07365513  0.17516182  0.40624759  1
  H+  H361  1  0.67275375  0.33971722  0.90049888  1
  H+  H362  1  0.05934597  0.91420596  0.77390875  1
  H+  H363  1  0.07860453  0.40937868  0.40883659  1
  H+  H364  1  0.09819667  0.67558794  0.78234448  1
  H+  H365  1  0.58857249  0.41444450  0.06561912  1
  H+  H366  1  0.70440288  0.58009927  0.54578023  1
  H+  H367  1  0.09517359  0.40872788  0.09038996  1
  H+  H368  1  0.12897008  0.72669317  -0.05227693  1
  H+  H369  1  0.21217408  0.11592605  0.34509848  1
  H+  H370  1  0.81521117  0.92729919  0.06907980  1
  H+  H371  1  0.59595371  0.91490755  0.05263478  1
  H+  H372  1  0.60876092  0.17313264  0.38166762  1
  H+  H373  1  0.33435132  0.66034101  0.44269452  1
  H+  H374  1  0.34027902  0.65650643  0.05336839  1
  H+  H375  1  0.61471071  0.14540153  0.67241020  1
  H+  H376  1  0.16456290  0.33560998  0.56652349  1
  H+  H377  1  0.43114551  0.33413319  0.85965183  1
  H+  H378  1  0.41829459  0.82836869  0.93694115  1
  H+  H379  1  0.32928419  0.42217056  0.40324165  1
  H+  H380  1  0.16803991  0.33464920  0.23201167  1
  H+  H381  1  0.55752064  0.89881642  0.82772088  1
  H+  H382  1  0.83706971  0.65984464  0.09672620  1
  H+  H383  1  0.02396038  0.66132789  0.08035039  1
  O2-  O384  1  0.08208509  0.18536235  0.14948888  1
  O2-  O385  1  0.07644697  0.16574097  0.48353289  1
  O2-  O386  1  0.09679609  0.15938615  0.81335566  1
  O2-  O387  1  0.09921546  0.40679020  0.13792096  1
  O2-  O388  1  0.08328850  0.41553625  0.48691668  1
  O2-  O389  1  0.08132899  0.41415663  0.81541825  1
  O2-  O390  1  0.06355694  0.68183513  0.11666787  1
  O2-  O391  1  0.13753059  0.68741018  0.47706346  1
  O2-  O392  1  0.13249032  0.69323892  0.82056191  1
  O2-  O393  1  0.04749918  0.92108042  0.14844013  1
  O2-  O394  1  0.06114132  0.90515495  0.47836167  1
  O2-  O395  1  0.05970037  0.90823737  0.81876718  1
  O2-  O396  1  0.35908624  0.17938135  0.14957530  1
  O2-  O397  1  0.30194351  0.13695667  0.48494500  1
  O2-  O398  1  0.32495071  0.14148864  0.81677430  1
  O2-  O399  1  0.33600150  0.41433309  0.15445680  1
  O2-  O400  1  0.33476864  0.42977708  0.48365883  1
  O2-  O401  1  0.33112842  0.41399456  0.79507210  1
  O2-  O402  1  0.35175815  0.66730141  0.13346483  1
  O2-  O403  1  0.34039516  0.66879904  0.48771099  1
  O2-  O404  1  0.34966204  0.67061276  0.80791571  1
  O2-  O405  1  0.33306577  0.92905638  0.12657615  1
  O2-  O406  1  0.33047211  0.90714015  0.47963212  1
  O2-  O407  1  0.45155738  0.89716794  0.82785528  1
  O2-  O408  1  0.59153703  0.16155054  0.13072236  1
  O2-  O409  1  0.66711334  0.20500282  0.44875053  1
  O2-  O410  1  0.59543152  0.17010450  0.81747770  1
  O2-  O411  1  0.58431405  0.41273091  0.14261207  1
  O2-  O412  1  0.58178128  0.41495763  0.47592567  1
  O2-  O413  1  0.67045969  0.46402058  0.80105641  1
  O2-  O414  1  0.58487094  0.66367920  0.13949669  1
  O2-  O415  1  0.58775190  0.66380407  0.47331886  1
  O2-  O416  1  0.61681207  0.70687459  0.84051336  1
  O2-  O417  1  0.58922781  0.91652028  0.12778045  1
  O2-  O418  1  0.59349927  0.91450151  0.48091948  1
  O2-  O419  1  0.61727771  0.92082679  0.81397731  1
  O2-  O420  1  0.83979193  0.15470935  0.15259359  1
  O2-  O421  1  0.83822092  0.17231573  0.48136236  1
  O2-  O422  1  0.85115882  0.16624055  0.82586410  1
  O2-  O423  1  0.83967816  0.39963730  0.14779113  1
  O2-  O424  1  0.83472597  0.41717247  0.48103395  1
  O2-  O425  1  0.85175206  0.40374088  0.83391491  1
  O2-  O426  1  0.83407607  0.65182813  0.14302941  1
  O2-  O427  1  0.84085672  0.66851016  0.45531073  1
  O2-  O428  1  0.84218403  0.63636831  0.80142234  1
  O2-  O429  1  0.82086716  0.94032902  0.14326853  1
  O2-  O430  1  0.86313030  0.88235489  0.47207250  1
  O2-  O431  1  0.82158080  0.96386533  0.84336406  1
  O2-  O432  1  0.03945736  0.04498148  0.21695840  1
  O2-  O433  1  0.14417587  0.06779375  0.52501164  1
  O2-  O434  1  0.15914842  0.07197789  0.86564492  1
  O2-  O435  1  0.17462594  0.33538462  0.18649495  1
  O2-  O436  1  0.16588034  0.33558285  0.52211595  1
  O2-  O437  1  0.16922913  0.33394764  0.83958769  1
  O2-  O438  1  0.19097333  0.56340054  0.18961883  1
  O2-  O439  1  0.16909232  0.57692145  0.53339259  1
  O2-  O440  1  0.18846350  0.57834713  0.84940871  1
  O2-  O441  1  0.15771107  0.85434334  0.16913682  1
  O2-  O442  1  0.14261856  0.82929490  0.53401254  1
  O2-  O443  1  0.18881145  0.87235881  0.82668026  1
  O2-  O444  1  0.42682658  0.08004555  0.18619827  1
  O2-  O445  1  0.37392305  0.04884859  0.53339690  1
  O2-  O446  1  0.44531903  0.04789084  0.87014043  1
  O2-  O447  1  0.41737003  0.33919547  0.19316211  1
  O2-  O448  1  0.45182492  0.39878715  0.54862412  1
  O2-  O449  1  0.36897120  0.29599516  0.86203032  1
  O2-  O450  1  0.42147645  0.57685610  0.18329666  1
  O2-  O451  1  0.43170853  0.59677478  0.52840061  1
  O2-  O452  1  0.42957618  0.58521770  0.82795293  1
  O2-  O453  1  0.41476518  0.84177526  0.15172897  1
  O2-  O454  1  0.40867914  0.82903781  0.51457985  1
  O2-  O455  1  0.39060523  0.82027788  0.86344331  1
  O2-  O456  1  0.66846055  0.07458854  0.17794657  1
  O2-  O457  1  0.67460566  0.08259412  0.51857722  1
  O2-  O458  1  0.68635998  0.09130737  0.85698857  1
  O2-  O459  1  0.66812755  0.32616513  0.17724179  1
  O2-  O460  1  0.66779413  0.33874495  0.52192904  1
  O2-  O461  1  0.66966382  0.33991033  0.85472136  1
  O2-  O462  1  0.66556318  0.57809510  0.18062673  1
  O2-  O463  1  0.67991953  0.57963053  0.50606492  1
  O2-  O464  1  0.69317713  0.60314885  0.85651422  1
  O2-  O465  1  0.66031505  0.83005426  0.18264642  1
  O2-  O466  1  0.67805222  0.82257772  0.51388320  1
  O2-  O467  1  0.67284716  0.80211130  0.83764913  1
  O2-  O468  1  0.88767959  0.11122545  0.17241787  1
  O2-  O469  1  0.91187128  0.09103206  0.52760411  1
  O2-  O470  1  0.89778027  0.04858174  0.85320312  1
  O2-  O471  1  0.90702088  0.30347241  0.19512502  1
  O2-  O472  1  0.91732960  0.33793604  0.52605064  1
  O2-  O473  1  0.92951881  0.32570672  0.87422773  1
  O2-  O474  1  0.91825489  0.56815918  0.18555169  1
  O2-  O475  1  0.91978994  0.59112307  0.52673049  1
  O2-  O476  1  0.90697539  0.56105151  0.88528107  1
  O2-  O477  1  0.87604517  0.83698672  0.18626537  1
  O2-  O478  1  0.89144329  0.82713141  0.50342768  1
  O2-  O479  1  0.88630731  0.85832545  0.85890582  1
  O2-  O480  1  0.14375618  0.08375039  0.33284823  1
  O2-  O481  1  0.15631167  0.07563288  0.64784076  1
  O2-  O482  1  0.15950611  0.08807428  0.98472955  1
  O2-  O483  1  0.16248468  0.33448575  0.31165720  1
  O2-  O484  1  0.18889772  0.35199945  0.70293924  1
  O2-  O485  1  0.16216671  0.31841775  1.00770016  1
  O2-  O486  1  0.15268519  0.58504348  0.33602585  1
  O2-  O487  1  0.16353668  0.58528863  0.65723964  1
  O2-  O488  1  0.17014035  0.56907294  0.97043395  1
  O2-  O489  1  0.20375470  0.91099504  0.29674876  1
  O2-  O490  1  0.14459640  0.82566845  0.65648203  1
  O2-  O491  1  0.18571084  0.82957081  0.94992620  1
  O2-  O492  1  0.43487847  0.07754298  0.30360204  1
  O2-  O493  1  0.40155640  0.07570570  0.66741718  1
  O2-  O494  1  0.44776649  0.06909534  0.93586354  1
  O2-  O495  1  0.39044296  0.31786916  0.31549201  1
  O2-  O496  1  0.41913826  0.34686852  0.66610017  1
  O2-  O497  1  0.33304175  0.30909030  0.97548370  1
  O2-  O498  1  0.41031572  0.58297797  0.31147793  1
  O2-  O499  1  0.42487089  0.59932385  0.65252490  1
  O2-  O500  1  0.43491424  0.59688174  0.96007204  1
  O2-  O501  1  0.40244665  0.82265553  0.33439363  1
  O2-  O502  1  0.38945502  0.86374109  0.71044502  1
  O2-  O503  1  0.42745901  0.83143893  0.98221922  1
  O2-  O504  1  0.66825324  0.07140658  0.30170622  1
  O2-  O505  1  0.66690143  0.09053305  0.64373020  1
  O2-  O506  1  0.69373109  0.08750382  0.98192061  1
  O2-  O507  1  0.67024904  0.32767498  0.29758625  1
  O2-  O508  1  0.65623206  0.34299259  0.64694214  1
  O2-  O509  1  0.68801589  0.34160509  0.97652080  1
  O2-  O510  1  0.66243696  0.58440669  0.30448487  1
  O2-  O511  1  0.67464485  0.60639399  0.66707942  1
  O2-  O512  1  0.67717261  0.58982677  0.98031503  1
  O2-  O513  1  0.66103476  0.83125209  0.30759542  1
  O2-  O514  1  0.69285405  0.83878219  0.67490771  1
  O2-  O515  1  0.66984893  0.83188573  0.97413089  1
  O2-  O516  1  0.90623210  0.08551340  0.30613913  1
  O2-  O517  1  0.91606813  0.07551962  0.65242055  1
  O2-  O518  1  0.94396676  0.04173130  0.96326173  1
  O2-  O519  1  0.91229269  0.32599232  0.31806861  1
  O2-  O520  1  0.92116372  0.35101736  0.64824634  1
  O2-  O521  1  0.92223703  0.32532453  0.99213062  1
  O2-  O522  1  0.91235601  0.57333279  0.30942616  1
  O2-  O523  1  0.91258427  0.60538144  0.64709359  1
  O2-  O524  1  0.95161209  0.60745001  1.02265715  1
  O2-  O525  1  0.92059464  0.83414350  0.30592919  1
  O2-  O526  1  0.88821823  0.78234258  0.65753708  1
  O2-  O527  1  0.89576562  0.82583601  0.98298344  1
  O2-  O528  1  0.07962964  0.16396943  0.01943286  1
  O2-  O529  1  0.07498397  0.17217336  0.36062703  1
  O2-  O530  1  0.08219727  0.16855381  0.68633908  1
  O2-  O531  1  0.08710491  0.41181827  0.02299774  1
  O2-  O532  1  0.07743611  0.41007662  0.36312940  1
  O2-  O533  1  0.08639840  0.41860211  0.69199104  1
  O2-  O534  1  0.08859242  0.66163263  -0.05531795  1
  O2-  O535  1  0.06021683  0.65742680  0.36600183  1
  O2-  O536  1  0.07494855  0.66371531  0.70209701  1
  O2-  O537  1  0.05226101  0.91929350  0.02232679  1
  O2-  O538  1  0.07708711  0.92156881  0.35618020  1
  O2-  O539  1  0.06099485  0.90842242  0.69013324  1
  O2-  O540  1  0.32182315  0.18483755  0.03370153  1
  O2-  O541  1  0.29722670  0.15232324  0.36009156  1
  O2-  O542  1  0.32888150  0.17516097  0.69375084  1
  O2-  O543  1  0.22050295  0.34862731  -0.04396226  1
  O2-  O544  1  0.32692658  0.41749565  0.35789143  1
  O2-  O545  1  0.33862378  0.43398694  0.65565183  1
  O2-  O546  1  0.33907527  0.66068427  0.00829603  1
  O2-  O547  1  0.32540937  0.65794470  0.36414386  1
  O2-  O548  1  0.33685260  0.67806823  0.69053898  1
  O2-  O549  1  0.34827851  0.92022478  0.00864171  1
  O2-  O550  1  0.33961500  0.92641494  0.36051376  1
  O2-  O551  1  0.28303295  0.93252871  0.72526682  1
  O2-  O552  1  0.60331070  0.16697330  0.00574384  1
  O2-  O553  1  0.59132496  0.16432102  0.33763375  1
  O2-  O554  1  0.58485231  0.17432190  0.69062279  1
  O2-  O555  1  0.59640130  0.41715839  0.02006231  1
  O2-  O556  1  0.54240965  0.44904798  0.36420667  1
  O2-  O557  1  0.59374415  0.43425560  0.69823253  1
  O2-  O558  1  0.59398828  0.67534158  0.01299203  1
  O2-  O559  1  0.57755431  0.66438143  0.34866431  1
  O2-  O560  1  0.58683203  0.68284763  0.71552672  1
  O2-  O561  1  0.59556598  0.91408577  0.00666074  1
  O2-  O562  1  0.58399794  0.91320717  0.35698490  1
  O2-  O563  1  0.61355346  0.92751082  0.69551861  1
  O2-  O564  1  0.84470682  0.17232759  0.03323392  1
  O2-  O565  1  0.82649983  0.16104076  0.35837286  1
  O2-  O566  1  0.80860445  0.11534757  0.70666113  1
  O2-  O567  1  0.85661008  0.42501371  0.02573630  1
  O2-  O568  1  0.83127290  0.41095940  0.35473344  1
  O2-  O569  1  0.83067032  0.44367703  0.68125403  1
  O2-  O570  1  0.84152264  0.66857107  0.02454593  1
  O2-  O571  1  0.83137617  0.66477944  0.33477793  1
  O2-  O572  1  0.84562128  0.69324576  0.68197790  1
  O2-  O573  1  0.81240293  0.91466915  0.02402789  1
  O2-  O574  1  0.83064377  0.90949307  0.34703925  1
  O2-  O575  1  0.84612034  0.91023663  0.69757436  1
