# generated using pymatgen
data_H2O
_symmetry_space_group_name_H-M   'P 1'
_cell_length_a   17.99144409
_cell_length_b   17.99174549
_cell_length_c   21.99275195
_cell_angle_alpha   90.00004178
_cell_angle_beta   89.95930582
_cell_angle_gamma   120.00399685
_symmetry_Int_Tables_number   1
_chemical_formula_structural   H2O
_chemical_formula_sum   'H384 O192'
_cell_volume   6164.98311801
_cell_formula_units_Z   192
loop_
 _symmetry_equiv_pos_site_id
 _symmetry_equiv_pos_as_xyz
  1  'x, y, z'
loop_
 _atom_type_symbol
 _atom_type_oxidation_number
  H+  1.0
  O2-  -2.0
loop_
 _atom_site_type_symbol
 _atom_site_label
 _atom_site_symmetry_multiplicity
 _atom_site_fract_x
 _atom_site_fract_y
 _atom_site_fract_z
 _atom_site_occupancy
  H+  H0  1  0.64512550  0.89885594  0.64657641  1
  H+  H1  1  0.35410632  0.15934487  0.73835035  1
  H+  H2  1  0.16458296  0.77911323  0.16166844  1
  H+  H3  1  0.42921552  0.32266476  0.89940669  1
  H+  H4  1  0.16715741  0.50000304  -0.05867282  1
  H+  H5  1  0.25326350  0.73752828  0.93497583  1
  H+  H6  1  0.12991854  0.63228029  0.15261373  1
  H+  H7  1  0.34766321  0.12199214  0.34611573  1
  H+  H8  1  0.30137224  0.89632555  0.15626277  1
  H+  H9  1  0.11091309  0.12563300  0.34383846  1
  H+  H10  1  0.35652768  0.09203861  0.50532655  1
  H+  H11  1  0.27176879  0.63389351  0.81302899  1
  H+  H12  1  0.63188713  0.62325252  0.32860472  1
  H+  H13  1  -0.03646687  0.85293267  0.32744554  1
  H+  H14  1  0.85921464  0.13593851  0.67451291  1
  H+  H15  1  0.39580320  0.79441992  0.34597557  1
  H+  H16  1  0.86323865  0.13587066  1.01872195  1
  H+  H17  1  0.60698175  0.71934502  0.82352496  1
  H+  H18  1  0.34523954  0.87656601  0.97333456  1
  H+  H19  1  0.63276162  0.85302050  0.50121903  1
  H+  H20  1  0.39914222  0.02519269  0.65927180  1
  H+  H21  1  0.12310876  0.54783678  0.82402980  1
  H+  H22  1  0.74436799  0.88086395  0.33426613  1
  H+  H23  1  0.11211197  0.45902903  0.15849568  1
  H+  H24  1  0.59710865  0.59088428  0.16125303  1
  H+  H25  1  1.01336603  0.81750850  0.17067152  1
  H+  H26  1  0.24613536  0.33410929  0.85362406  1
  H+  H27  1  0.22412771  0.59551318  0.17043560  1
  H+  H28  1  0.91578078  0.32486374  0.59758710  1
  H+  H29  1  0.83328077  0.91273835  0.43565780  1
  H+  H30  1  0.47949094  0.85022734  0.84404347  1
  H+  H31  1  0.27619222  0.37613601  0.16809952  1
  H+  H32  1  0.37587521  0.52058112  0.99624578  1
  H+  H33  1  0.88325211  0.53436914  0.82966811  1
  H+  H34  1  0.35768800  0.21154915  0.16156203  1
  H+  H35  1  0.27592289  0.30012674  0.47583735  1
  H+  H36  1  0.37967847  0.89961828  0.67730251  1
  H+  H37  1  0.12953593  0.50236911  0.32587566  1
  H+  H38  1  0.72097691  0.11391098  0.50269743  1
  H+  H39  1  0.40024635  0.25491596  0.99313293  1
  H+  H40  1  0.61337541  0.88796930  0.81983643  1
  H+  H41  1  0.08232866  0.22954140  0.50934646  1
  H+  H42  1  0.42596064  0.55247025  0.45861270  1
  H+  H43  1  0.83482456  0.62864052  0.14119271  1
  H+  H44  1  0.98854212  0.61609397  0.33455238  1
  H+  H45  1  0.77986203  0.00798996  0.56024400  1
  H+  H46  1  0.15355344  0.41138443  0.84226744  1
  H+  H47  1  0.14195403  0.73556898  0.49157136  1
  H+  H48  1  0.20871278  0.86157830  0.96842893  1
  H+  H49  1  0.41379767  0.31406361  0.26349911  1
  H+  H50  1  0.02108908  0.37954413  0.34319392  1
  H+  H51  1  0.31108110  0.33137003  0.45525892  1
  H+  H52  1  0.91330315  0.75624102  0.18257748  1
  H+  H53  1  -0.01350720  0.11514569  0.33101238  1
  H+  H54  1  0.62954763  0.90221217  0.34227131  1
  H+  H55  1  0.84451707  0.72625233  0.67375517  1
  H+  H56  1  0.08324862  0.14954427  0.07000208  1
  H+  H57  1  0.39402857  0.75741282  0.83903657  1
  H+  H58  1  0.89966699  0.11777506  0.31451293  1
  H+  H59  1  0.35288939  0.62550594  -0.00068841  1
  H+  H60  1  0.13617039  0.26136558  0.33350795  1
  H+  H61  1  0.84071313  0.95866034  0.50031672  1
  H+  H62  1  0.11509831  0.37060126  0.83190395  1
  H+  H63  1  0.25008107  0.66077498  0.97070300  1
  H+  H64  1  0.86478457  0.22756698  0.67280718  1
  H+  H65  1  0.93834146  0.62493258  0.09136590  1
  H+  H66  1  0.61985759  0.45442617  0.17947454  1
  H+  H67  1  0.64176260  0.74814169  0.98223491  1
  H+  H68  1  0.83622358  0.15951175  0.11935694  1
  H+  H69  1  0.60407793  0.62851480  0.83023145  1
  H+  H70  1  0.71658179  0.61457975  0.99706715  1
  H+  H71  1  0.38577288  0.10986885  0.18381207  1
  H+  H72  1  0.62679813  0.01128216  0.17600312  1
  H+  H73  1  0.65849891  0.60614957  0.50395983  1
  H+  H74  1  0.09953065  0.88303178  0.81850695  1
  H+  H75  1  0.28393385  0.13265515  0.82923040  1
  H+  H76  1  0.97635911  0.87160551  0.99201755  1
  H+  H77  1  0.26267777  0.89402078  0.81545914  1
  H+  H78  1  0.26744442  0.38782093  1.01373881  1
  H+  H79  1  0.52007120  0.13979034  0.00639805  1
  H+  H80  1  0.59328389  0.74268620  0.15234961  1
  H+  H81  1  0.12915854  0.33920494  0.99748862  1
  H+  H82  1  0.33424976  0.51032479  0.52762968  1
  H+  H83  1  0.52206313  0.87734921  0.17297707  1
  H+  H84  1  0.09196947  0.60860281  0.66391785  1
  H+  H85  1  0.53257317  0.12806500  0.84333851  1
  H+  H86  1  0.15680606  0.86435784  0.49472499  1
  H+  H87  1  0.76401880  0.11414208  0.16962728  1
  H+  H88  1  0.11183090  -0.02163182  1.00335104  1
  H+  H89  1  0.67925753  0.31241588  0.22751825  1
  H+  H90  1  0.87752412  0.77681570  0.84110308  1
  H+  H91  1  0.34421937  0.96493143  -0.03191887  1
  H+  H92  1  0.60190774  0.47347434  0.34769331  1
  H+  H93  1  0.85867918  0.65463480  0.00468051  1
  H+  H94  1  0.96889792  0.86499742  0.83533013  1
  H+  H95  1  0.35601831  0.97357666  0.83085516  1
  H+  H96  1  0.70599126  0.23043058  0.28901676  1
  H+  H97  1  0.63893755  0.63127566  0.15506570  1
  H+  H98  1  0.03185223  0.88163234  0.48947972  1
  H+  H99  1  0.86627052  0.88468432  0.34522652  1
  H+  H100  1  0.67544296  0.86580424  0.58948307  1
  H+  H101  1  0.65125998  0.11836702  0.84989312  1
  H+  H102  1  0.77597881  0.90906005  0.67067711  1
  H+  H103  1  0.15961164  0.86522737  0.16110943  1
  H+  H104  1  0.62522202  0.98914137  0.34321172  1
  H+  H105  1  0.14597073  0.64551994  0.34220474  1
  H+  H106  1  0.48473588  0.34785543  -0.00532274  1
  H+  H107  1  0.09118907  0.74106561  0.63941928  1
  H+  H108  1  0.38844356  0.77071790  0.65481836  1
  H+  H109  1  0.91475902  0.50131260  0.68958247  1
  H+  H110  1  0.73322423  0.12011192  0.31211390  1
  H+  H111  1  0.10283608  0.88560213  0.99923223  1
  H+  H112  1  0.83575413  0.41492844  0.09634275  1
  H+  H113  1  0.16310994  0.82416652  0.25555165  1
  H+  H114  1  0.37523532  0.45345268  0.37358771  1
  H+  H115  1  0.26719535  0.70207661  0.36778528  1
  H+  H116  1  0.73309022  0.13339885  0.66200789  1
  H+  H117  1  0.85799685  0.37254972  0.01168610  1
  H+  H118  1  0.38888795  0.35117008  0.17267783  1
  H+  H119  1  0.70848009  0.60839254  0.66859705  1
  H+  H120  1  0.04985699  0.65461871  0.49749827  1
  H+  H121  1  0.63223354  0.38126591  0.68330541  1
  H+  H122  1  0.58769904  0.41603722  0.07354129  1
  H+  H123  1  0.85086864  0.64193317  0.82936984  1
  H+  H124  1  0.61206352  0.88043157  0.17161786  1
  H+  H125  1  0.87655046  0.25994595  0.99781577  1
  H+  H126  1  0.21790817  0.59106813  0.32283235  1
  H+  H127  1  0.47723551  0.34821356  0.17366427  1
  H+  H128  1  0.63512023  1.02280890  0.01404052  1
  H+  H129  1  0.13074259  0.66785122  -0.01159340  1
  H+  H130  1  0.83388654  0.62282827  0.34581771  1
  H+  H131  1  0.37069268  0.00883271  0.50062923  1
  H+  H132  1  0.14169751  0.10739308  0.99225699  1
  H+  H133  1  0.89759582  0.77761582  0.50700762  1
  H+  H134  1  0.74831123  0.85493324  0.17532469  1
  H+  H135  1  0.27415876  0.63878848  0.50124745  1
  H+  H136  1  0.61268428  0.36699069  0.16447792  1
  H+  H137  1  0.37027087  0.60870640  0.51255298  1
  H+  H138  1  0.24879161  0.86778644  0.49511787  1
  H+  H139  1  0.75844716  0.36560022  0.67866863  1
  H+  H140  1  0.49150212  0.36370490  0.84065303  1
  H+  H141  1  0.13831037  1.01805897  0.83484911  1
  H+  H142  1  0.84641596  0.17569859  0.24971900  1
  H+  H143  1  0.79087076  0.63615710  0.49860499  1
  H+  H144  1  0.47122748  0.86635690  0.65528604  1
  H+  H145  1  0.65636193  0.51673227  0.49886280  1
  H+  H146  1  1.00505627  0.88184456  0.66822352  1
  H+  H147  1  0.37779995  0.89525846  0.38390986  1
  H+  H148  1  0.10810636  0.37273493  0.34319947  1
  H+  H149  1  0.89074718  0.36839879  0.33286661  1
  H+  H150  1  0.25555132  0.12876540  0.49522423  1
  H+  H151  1  0.40975472  0.57402320  0.60638986  1
  H+  H152  1  0.36302084  0.63516186  0.66779662  1
  H+  H153  1  0.21271391  0.09512632  0.32896286  1
  H+  H154  1  1.00417971  0.70521504  0.56548822  1
  H+  H155  1  0.37512561  0.63814371  0.32669428  1
  H+  H156  1  0.38339487  0.34883463  0.31877867  1
  H+  H157  1  0.39452770  0.86226915  0.49613220  1
  H+  H158  1  0.86395082  0.38956911  0.49314699  1
  H+  H159  1  0.02459444  0.25739424  0.55036479  1
  H+  H160  1  0.60991899  0.22251277  0.84646674  1
  H+  H161  1  0.39346980  0.10505766  0.85348440  1
  H+  H162  1  0.85421048  0.74045100  0.00413465  1
  H+  H163  1  0.97923226  0.36875363  0.17979789  1
  H+  H164  1  0.22291367  0.35301263  0.33059507  1
  H+  H165  1  0.41449807  0.03757081  0.02561592  1
  H+  H166  1  0.63799080  0.11395934  0.01669577  1
  H+  H167  1  0.59818786  1.01967388  0.68171067  1
  H+  H168  1  0.50316085  0.97048504  0.70683568  1
  H+  H169  1  0.12401088  1.00406260  0.32597062  1
  H+  H170  1  0.51067906  0.63116581  1.00157131  1
  H+  H171  1  0.38377921  0.11261227  0.66058675  1
  H+  H172  1  0.86589962  0.96929393  0.16166334  1
  H+  H173  1  0.82422786  0.45442320  0.33365681  1
  H+  H174  1  0.63419685  0.23405922  0.32439993  1
  H+  H175  1  0.41724909  0.58839071  0.35724847  1
  H+  H176  1  0.57582627  0.90096382  1.05887045  1
  H+  H177  1  0.72857981  0.58571184  0.19339431  1
  H+  H178  1  0.48919911  0.87953046  0.34414510  1
  H+  H179  1  0.59357285  0.61597847  0.67696364  1
  H+  H180  1  0.89492865  0.86517134  0.50346407  1
  H+  H181  1  0.39475278  0.26121877  0.51219937  1
  H+  H182  1  0.77514928  0.13382964  0.83090274  1
  H+  H183  1  0.12042725  0.77551804  0.82385730  1
  H+  H184  1  0.24212738  0.41700878  0.49321280  1
  H+  H185  1  0.76657137  0.35433567  0.33945484  1
  H+  H186  1  -0.03363164  0.62300984  0.83405578  1
  H+  H187  1  0.77493326  0.88229219  0.00327485  1
  H+  H188  1  0.88804332  0.11484280  0.84171640  1
  H+  H189  1  0.13950356  0.26046448  0.17621807  1
  H+  H190  1  0.62916361  0.51442667  0.67385656  1
  H+  H191  1  0.05502868  0.66026312  0.75413601  1
  H+  H192  1  0.15581976  0.77828970  0.31996849  1
  H+  H193  1  0.31651499  0.64773426  0.05921695  1
  H+  H194  1  0.86192783  0.89197680  0.82572198  1
  H+  H195  1  0.35335342  0.46383688  0.30777298  1
  H+  H196  1  0.71931981  0.84751844  0.50194387  1
  H+  H197  1  0.74098126  0.36934319  0.51014034  1
  H+  H198  1  0.11393673  0.12344927  0.16445533  1
  H+  H199  1  0.51684249  0.88331504  1.00196198  1
  H+  H200  1  0.86718928  0.89473455  0.00654778  1
  H+  H201  1  0.37042518  0.11863293  0.01357797  1
  H+  H202  1  0.89746538  0.38326805  0.17900756  1
  H+  H203  1  0.47333352  0.60443455  0.66714635  1
  H+  H204  1  0.88663516  0.27279230  0.49891777  1
  H+  H205  1  0.35432090  0.61989381  0.82011039  1
  H+  H206  1  0.13939855  0.10591686  0.83751489  1
  H+  H207  1  0.68894679  0.84981311  0.27253564  1
  H+  H208  1  0.76068628  0.63905694  0.83329314  1
  H+  H209  1  0.84021734  0.12000004  0.49503919  1
  H+  H210  1  0.08809034  0.91306229  0.09575044  1
  H+  H211  1  0.66973778  0.21077311  0.66602668  1
  H+  H212  1  0.37426969  0.22105193  0.83044932  1
  H+  H213  1  0.63593745  1.02282789  0.50973023  1
  H+  H214  1  0.40905344  0.35495846  0.65896355  1
  H+  H215  1  0.22649569  0.61335469  0.65966005  1
  H+  H216  1  0.87677474  0.56667666  0.26537514  1
  H+  H217  1  0.52827040  0.88633511  0.49367759  1
  H+  H218  1  0.72504623  0.86229490  0.82852726  1
  H+  H219  1  0.12470812  0.49801826  0.93868721  1
  H+  H220  1  0.01290633  0.11586870  0.47946502  1
  H+  H221  1  0.97459405  0.36355345  0.50113084  1
  H+  H222  1  0.88637535  0.02667353  0.66461428  1
  H+  H223  1  0.48745630  0.34792136  0.51051498  1
  H+  H224  1  0.14040693  0.52194686  0.50695071  1
  H+  H225  1  0.55421484  0.62401140  0.53678752  1
  H+  H226  1  0.53310030  0.66961079  0.32151759  1
  H+  H227  1  0.38050893  0.76804006  0.99528554  1
  H+  H228  1  0.59509310  0.41451337  0.78148203  1
  H+  H229  1  0.59045297  0.11730908  0.35176949  1
  H+  H230  1  0.87424011  -0.02035839  0.34548561  1
  H+  H231  1  0.38682684  0.51173422  0.84239481  1
  H+  H232  1  0.87710999  0.86793328  0.65615450  1
  H+  H233  1  -0.00469798  0.46753538  0.78401419  1
  H+  H234  1  0.11878057  0.20853216  0.83451350  1
  H+  H235  1  0.79963044  0.66847828  0.09629093  1
  H+  H236  1  0.11355721  0.47635112  0.66940282  1
  H+  H237  1  0.97486071  0.11654154  0.66047065  1
  H+  H238  1  0.04914075  0.64546043  0.14269610  1
  H+  H239  1  0.10541913  0.65008959  0.80965007  1
  H+  H240  1  0.97445024  0.35784704  0.65719776  1
  H+  H241  1  0.02334638  0.12510682  0.01026620  1
  H+  H242  1  0.62155627  0.37945256  0.49570801  1
  H+  H243  1  0.60734487  0.37199979  0.84971592  1
  H+  H244  1  0.09279632  0.37221055  0.49802411  1
  H+  H245  1  0.87349856  0.23660498  0.30706129  1
  H+  H246  1  0.00025489  0.60117687  0.30590773  1
  H+  H247  1  0.10229664  0.22011087  0.67754047  1
  H+  H248  1  0.52358519  0.13549742  0.16905684  1
  H+  H249  1  0.94932479  0.36191113  0.83979177  1
  H+  H250  1  0.87070292  0.26602342  0.83697591  1
  H+  H251  1  0.64770944  1.02854963  0.84580897  1
  H+  H252  1  0.37277721  0.01337509  0.35186449  1
  H+  H253  1  0.01287770  0.35792625  0.00566192  1
  H+  H254  1  0.53944405  0.37081682  0.67907198  1
  H+  H255  1  0.46930949  0.60598618  0.84008817  1
  H+  H256  1  0.14459096  0.61423544  0.50712955  1
  H+  H257  1  0.73570943  0.36127675  0.16878894  1
  H+  H258  1  0.36487096  0.46572402  0.16936869  1
  H+  H259  1  0.63120297  0.51554705  0.84477786  1
  H+  H260  1  0.38615636  0.98445130  0.16630063  1
  H+  H261  1  0.86065899  0.39316524  0.79264496  1
  H+  H262  1  0.52156101  0.37954087  0.34175694  1
  H+  H263  1  0.12013120  0.01457780  0.66272923  1
  H+  H264  1  0.24120473  0.40765079  0.52688789  1
  H+  H265  1  0.40030552  0.87104543  0.18180285  1
  H+  H266  1  0.35621867  0.61844038  0.15990970  1
  H+  H267  1  0.88725727  0.09843835  0.17863123  1
  H+  H268  1  0.87292293  0.76883944  0.33676539  1
  H+  H269  1  0.38308355  0.37830689  0.83343516  1
  H+  H270  1  0.10007689  0.86832354  0.32657733  1
  H+  H271  1  0.86553572  0.48617350  0.14918976  1
  H+  H272  1  0.63678171  0.27859823  1.00347701  1
  H+  H273  1  0.63236617  0.52032037  0.00158478  1
  H+  H274  1  0.34735117  0.48503546  0.68026155  1
  H+  H275  1  0.62240392  0.39050022  1.01456552  1
  H+  H276  1  0.09279942  0.03090081  0.54693228  1
  H+  H277  1  0.91728153  0.08633070  0.93797045  1
  H+  H278  1  0.11618422  -0.03595764  0.15962055  1
  H+  H279  1  0.88471819  0.02454245  0.99575440  1
  H+  H280  1  0.86128816  0.98108356  0.82785954  1
  H+  H281  1  0.28237483  0.12518060  0.00978981  1
  H+  H282  1  0.61622660  0.22001059  0.16007916  1
  H+  H283  1  0.62611714  0.23560398  0.49488114  1
  H+  H284  1  0.98189175  0.63630041  0.98825252  1
  H+  H285  1  -0.02491172  0.10925557  0.84316978  1
  H+  H286  1  0.02666991  0.12698064  0.16352817  1
  H+  H287  1  0.46048441  0.10008801  0.34375350  1
  H+  H288  1  0.39406197  0.06822350  0.58860575  1
  H+  H289  1  0.41935541  0.83426830  0.56020735  1
  H+  H290  1  0.81762719  0.67257305  0.73479872  1
  H+  H291  1  0.61542775  0.14202058  0.49547671  1
  H+  H292  1  0.67824146  0.55920001  0.25813844  1
  H+  H293  1  0.41208529  0.07918156  0.24513320  1
  H+  H294  1  0.14061247  0.68809447  0.40445769  1
  H+  H295  1  0.36729410  0.72874184  0.49933436  1
  H+  H296  1  0.77262001  0.38016108  0.01182150  1
  H+  H297  1  0.67238019  0.10736985  0.60280962  1
  H+  H298  1  0.77695370  0.53435625  0.26310714  1
  H+  H299  1  0.50853694  0.58173715  0.41998930  1
  H+  H300  1  0.14027841  0.80952525  0.58608376  1
  H+  H301  1  0.72422562  0.76727364  0.94581857  1
  H+  H302  1  0.05814264  0.43778177  0.75875573  1
  H+  H303  1  0.58603970  0.40478783  0.43589780  1
  H+  H304  1  0.68477105  0.33384578  0.57124148  1
  H+  H305  1  0.10687865  0.38355026  0.67541660  1
  H+  H306  1  0.07003593  0.38448349  0.06589710  1
  H+  H307  1  0.11810498  0.96952535  0.48021951  1
  H+  H308  1  0.41605148  0.58709880  0.23624871  1
  H+  H309  1  0.59294490  0.92304284  0.43695781  1
  H+  H310  1  0.08595008  0.87066844  0.66107979  1
  H+  H311  1  0.33055464  0.14876206  0.10392360  1
  H+  H312  1  0.77273147  0.13305850  0.02949700  1
  H+  H313  1  0.31266601  0.15391877  0.43486092  1
  H+  H314  1  0.57524968  0.16580502  0.06787386  1
  H+  H315  1  0.56390936  0.65073367  0.73372687  1
  H+  H316  1  0.82839168  0.41512312  0.43589197  1
  H+  H317  1  0.65463052  0.57676199  0.90351975  1
  H+  H318  1  0.10926730  0.36900930  0.16416290  1
  H+  H319  1  0.41855188  0.07149175  0.91333344  1
  H+  H320  1  0.92727093  0.35360186  0.26939623  1
  H+  H321  1  0.38411158  0.22084964  0.67916288  1
  H+  H322  1  0.08410336  0.41343059  0.43536203  1
  H+  H323  1  0.16407859  0.31846891  0.23644282  1
  H+  H324  1  0.11309905  0.10965697  0.50180149  1
  H+  H325  1  0.17673802  0.62274354  0.87522684  1
  H+  H326  1  0.14513678  0.82952869  0.88618654  1
  H+  H327  1  0.18222063  0.30365245  0.91158390  1
  H+  H328  1  0.15986836  0.06594036  0.23527706  1
  H+  H329  1  0.34230382  0.40556913  0.77754785  1
  H+  H330  1  0.69639348  0.76507677  0.21016025  1
  H+  H331  1  0.42377383  0.84447635  0.24531797  1
  H+  H332  1  0.88908814  0.65553700  0.50747376  1
  H+  H333  1  0.87571074  0.06505177  0.57825459  1
  H+  H334  1  0.13996282  0.25632953  1.00252542  1
  H+  H335  1  0.13718821  0.31217764  0.60279037  1
  H+  H336  1  0.09892519  0.12854039  0.67749302  1
  H+  H337  1  0.17194906  0.07897363  0.93174034  1
  H+  H338  1  0.06917272  0.91311741  0.75988872  1
  H+  H339  1  0.57513763  0.16282088  0.41020925  1
  H+  H340  1  0.91660923  0.84362110  0.93172570  1
  H+  H341  1  0.59651721  0.62480927  0.01058928  1
  H+  H342  1  0.12024583  0.77578612  0.98471219  1
  H+  H343  1  0.26976158  0.44614935  0.72594985  1
  H+  H344  1  0.71545719  0.61685774  0.34612827  1
  H+  H345  1  0.83526102  0.15517022  0.42924765  1
  H+  H346  1  0.43443305  0.31979492  0.59995103  1
  H+  H347  1  0.35916843  0.70807994  0.16025592  1
  H+  H348  1  0.55463647  0.68549012  0.09269493  1
  H+  H349  1  0.95645557  0.67875980  0.15450974  1
  H+  H350  1  0.65522161  0.33498703  0.94345714  1
  H+  H351  1  0.21152173  0.35626978  0.65601927  1
  H+  H352  1  0.83399577  0.16563772  0.76975604  1
  H+  H353  1  0.82995955  0.92219708  0.73317327  1
  H+  H354  1  0.57773702  0.93154009  0.77181914  1
  H+  H355  1  0.83713802  0.66512973  0.41149758  1
  H+  H356  1  0.33483984  0.66603446  0.72641921  1
  H+  H357  1  0.89723567  0.31592090  0.93563802  1
  H+  H358  1  0.07881991  0.89889741  0.38995873  1
  H+  H359  1  0.55358764  0.27967913  0.89259295  1
  H+  H360  1  0.83039936  0.91437349  0.10039449  1
  H+  H361  1  0.17027791  0.09032016  0.61463620  1
  H+  H362  1  0.16036168  0.56500359  0.22790582  1
  H+  H363  1  0.62831297  0.10227247  0.17223614  1
  H+  H364  1  0.10186314  0.67341580  0.05674880  1
  H+  H365  1  0.34992417  0.21173914  0.33892107  1
  H+  H366  1  0.16879953  0.58002560  0.59940128  1
  H+  H367  1  0.40618594  0.57515889  0.93275540  1
  H+  H368  1  0.22264386  0.09792544  0.17668668  1
  H+  H369  1  0.62529167  0.74911434  0.33458327  1
  H+  H370  1  0.96168816  0.60873027  0.58165229  1
  H+  H371  1  0.33001687  0.42195894  0.07133982  1
  H+  H372  1  0.36191063  0.93836665  0.73996683  1
  H+  H373  1  0.65801018  0.08040587  0.26462918  1
  H+  H374  1  0.61370879  0.71251790  0.50588559  1
  H+  H375  1  0.46720515  0.61935589  0.17246836  1
  H+  H376  1  0.92602715  0.07202124  0.23462544  1
  H+  H377  1  0.91038636  0.83705224  0.59785205  1
  H+  H378  1  0.07596332  0.15696206  0.77178677  1
  H+  H379  1  0.91181048  0.59990914  0.93655293  1
  H+  H380  1  0.32306988  0.67769254  0.41055396  1
  H+  H381  1  0.66699806  0.82340645  0.88656360  1
  H+  H382  1  0.08560500  0.16119977  0.40493585  1
  H+  H383  1  0.41399930  0.81848017  0.93189238  1
  O2-  O384  1  0.08766112  0.15756668  0.14888021  1
  O2-  O385  1  0.07414633  0.15715075  0.47649252  1
  O2-  O386  1  0.07706949  0.14998178  0.81664766  1
  O2-  O387  1  0.07736843  0.39692808  0.14812659  1
  O2-  O388  1  0.08166806  0.41715223  0.48080496  1
  O2-  O389  1  0.04142219  0.45615762  0.79695433  1
  O2-  O390  1  0.11129866  0.67145295  0.13408450  1
  O2-  O391  1  0.10751559  0.67316136  0.47896564  1
  O2-  O392  1  0.06573476  0.67208721  0.79828165  1
  O2-  O393  1  0.09506306  0.90654173  0.14032899  1
  O2-  O394  1  0.09041711  0.90763391  0.47050554  1
  O2-  O395  1  0.06932280  0.91498185  0.80532945  1
  O2-  O396  1  0.32689128  0.14956916  0.15000736  1
  O2-  O397  1  0.31481464  0.15336473  0.48043407  1
  O2-  O398  1  0.34530687  0.15963601  0.81679899  1
  O2-  O399  1  0.33696741  0.40596381  0.15350261  1
  O2-  O400  1  0.44561731  0.54722623  0.41709557  1
  O2-  O401  1  0.34917935  0.40826597  0.82197461  1
  O2-  O402  1  0.32628920  0.64909957  0.14430095  1
  O2-  O403  1  0.33494905  0.66671125  0.48534508  1
  O2-  O404  1  0.33301961  0.65652560  0.80133285  1
  O2-  O405  1  0.36414919  0.92672677  0.14804794  1
  O2-  O406  1  0.34788836  0.91456374  0.46819313  1
  O2-  O407  1  0.32356961  0.92393938  0.80289354  1
  O2-  O408  1  0.58059072  0.15807759  0.14874276  1
  O2-  O409  1  0.59226321  0.17664681  0.47743537  1
  O2-  O410  1  0.59340980  0.16395213  0.83103797  1
  O2-  O411  1  0.58411553  0.40130812  0.15532189  1
  O2-  O412  1  0.58798363  0.40657170  0.48156091  1
  O2-  O413  1  0.58962543  0.41903836  0.82581870  1
  O2-  O414  1  0.53952637  0.69939612  0.13309459  1
  O2-  O415  1  0.58777889  0.64924383  0.50007302  1
  O2-  O416  1  0.57182550  0.65675299  0.81448222  1
  O2-  O417  1  0.58150785  0.90747792  0.15440475  1
  O2-  O418  1  0.59077435  0.91797658  0.48244809  1
  O2-  O419  1  0.58148299  0.91964325  0.81541530  1
  O2-  O420  1  0.82733170  0.14319448  0.16345895  1
  O2-  O421  1  0.83036880  0.16300848  0.47254829  1
  O2-  O422  1  0.83755495  0.16613960  0.81498475  1
  O2-  O423  1  0.83782979  0.42393953  0.14364799  1
  O2-  O424  1  0.83290189  0.41971559  0.48077976  1
  O2-  O425  1  0.88732966  0.45318824  0.77735783  1
  O2-  O426  1  0.80032557  0.65720416  0.14080804  1
  O2-  O427  1  0.85380742  0.67638165  0.48673714  1
  O2-  O428  1  0.82119282  0.67424727  0.81799213  1
  O2-  O429  1  0.83241955  0.90954796  0.14544152  1
  O2-  O430  1  0.82650637  0.90315858  0.48116308  1
  O2-  O431  1  0.83121051  0.92161135  0.80969190  1
  O2-  O432  1  0.16089585  0.06630977  0.18962781  1
  O2-  O433  1  0.13814190  0.07158481  0.52017690  1
  O2-  O434  1  0.17211947  0.07747532  0.85163003  1
  O2-  O435  1  0.16846192  0.32131360  0.19125845  1
  O2-  O436  1  0.08297398  0.28138287  0.53491058  1
  O2-  O437  1  0.18811051  0.29142221  0.86805785  1
  O2-  O438  1  0.16208692  0.56635775  0.18247295  1
  O2-  O439  1  0.17309874  0.58183709  0.52321116  1
  O2-  O440  1  0.16821171  0.60955617  0.83097205  1
  O2-  O441  1  0.19234045  0.83852728  0.17807439  1
  O2-  O442  1  0.18792490  0.83647658  0.51189867  1
  O2-  O443  1  0.15095977  0.83488845  0.84086960  1
  O2-  O444  1  0.42221781  0.08692622  0.20068037  1
  O2-  O445  1  0.38362942  0.06140298  0.52468574  1
  O2-  O446  1  0.41909811  0.07034692  0.86784312  1
  O2-  O447  1  0.41567273  0.31704433  0.18703100  1
  O2-  O448  1  0.42986144  0.31832453  0.53094293  1
  O2-  O449  1  0.42810063  0.32718121  0.85345542  1
  O2-  O450  1  0.41213401  0.57390224  0.19241389  1
  O2-  O451  1  0.38786644  0.56552973  0.52655566  1
  O2-  O452  1  0.40768725  0.57320193  0.85361549  1
  O2-  O453  1  0.42292975  0.83454878  0.20103337  1
  O2-  O454  1  0.42279727  0.83090977  0.51473791  1
  O2-  O455  1  0.42191234  0.81190116  0.86207942  1
  O2-  O456  1  0.65682633  0.07208127  0.19118635  1
  O2-  O457  1  0.66502493  0.08387639  0.52387601  1
  O2-  O458  1  0.68480970  0.08865304  0.85889380  1
  O2-  O459  1  0.67522557  0.32391961  0.18379665  1
  O2-  O460  1  0.67973451  0.33516721  0.52678309  1
  O2-  O461  1  0.61293144  0.31367377  0.87881380  1
  O2-  O462  1  0.69937807  0.53802119  0.22329775  1
  O2-  O463  1  0.69385920  0.57859260  0.50860438  1
  O2-  O464  1  0.65694861  0.57854196  0.85828676  1
  O2-  O465  1  0.69054567  0.81414167  0.19831179  1
  O2-  O466  1  0.65998152  0.82124158  0.51935214  1
  O2-  O467  1  0.66345228  0.82905700  0.84185806  1
  O2-  O468  1  0.92343188  0.07194441  0.18928540  1
  O2-  O469  1  0.83653497  0.04280397  0.54120058  1
  O2-  O470  1  0.91421158  0.08088664  0.85830981  1
  O2-  O471  1  0.92460117  0.35455762  0.20089811  1
  O2-  O472  1  0.91459987  0.33081041  0.51714508  1
  O2-  O473  1  0.88901571  0.32564037  0.85252359  1
  O2-  O474  1  0.93817231  0.61913387  0.13558335  1
  O2-  O475  1  0.97064166  0.64824340  0.54608428  1
  O2-  O476  1  0.90682902  0.58992969  0.85085066  1
  O2-  O477  1  0.96935111  0.76047063  0.18762332  1
  O2-  O478  1  0.92930066  0.84005267  0.51986918  1
  O2-  O479  1  0.91025374  0.83867950  0.85442723  1
  O2-  O480  1  0.15260654  0.06630080  0.31295491  1
  O2-  O481  1  0.14734537  0.07789186  0.65591974  1
  O2-  O482  1  0.17202462  0.07710606  0.97721085  1
  O2-  O483  1  0.16230063  0.32205906  0.31727261  1
  O2-  O484  1  0.14912125  0.32152423  0.64749423  1
  O2-  O485  1  0.16835346  0.31599785  0.98616741  1
  O2-  O486  1  0.15919721  0.56112777  0.30633868  1
  O2-  O487  1  0.16567348  0.57937277  0.64500438  1
  O2-  O488  1  0.21436399  0.67688532  0.94420083  1
  O2-  O489  1  0.13882967  0.81470815  0.29728077  1
  O2-  O490  1  0.09467076  0.79065373  0.61744855  1
  O2-  O491  1  0.14364540  0.83280924  0.96438911  1
  O2-  O492  1  0.39953688  0.06795664  0.32875765  1
  O2-  O493  1  0.40869226  0.07845890  0.63584752  1
  O2-  O494  1  0.41642041  0.07417027  0.99227031  1
  O2-  O495  1  0.41068499  0.31422179  0.30922778  1
  O2-  O496  1  0.43632230  0.32211244  0.64720935  1
  O2-  O497  1  0.43016192  0.31192585  0.97281528  1
  O2-  O498  1  0.40705578  0.60832749  0.31711987  1
  O2-  O499  1  0.40882783  0.57558071  0.65138025  1
  O2-  O500  1  0.40845095  0.58116221  0.97797690  1
  O2-  O501  1  0.42719125  0.85591490  0.33412757  1
  O2-  O502  1  0.41440655  0.82957977  0.63642203  1
  O2-  O503  1  0.40599320  0.82613354  0.97710400  1
  O2-  O504  1  0.66936010  0.09164164  0.30992107  1
  O2-  O505  1  0.67409768  0.11883583  0.64722260  1
  O2-  O506  1  0.67156527  0.08482408  1.02386325  1
  O2-  O507  1  0.68666335  0.27123934  0.29851788  1
  O2-  O508  1  0.70284520  0.33366411  0.65664008  1
  O2-  O509  1  0.66911895  0.33977950  0.98927857  1
  O2-  O510  1  0.65851165  0.58599082  0.32517942  1
  O2-  O511  1  0.64613734  0.57230801  0.65834217  1
  O2-  O512  1  0.65501628  0.58007885  0.98478761  1
  O2-  O513  1  0.68398726  0.85523001  0.31725080  1
  O2-  O514  1  0.69574587  0.90673688  0.62486553  1
  O2-  O515  1  0.69224478  0.79501777  0.95902896  1
  O2-  O516  1  0.92672148  0.08125148  0.31372183  1
  O2-  O517  1  0.91322819  0.08556628  0.64580077  1
  O2-  O518  1  0.91916113  0.08613764  0.98345276  1
  O2-  O519  1  0.92417927  0.34245531  0.31580988  1
  O2-  O520  1  0.91517200  0.31973020  0.64245867  1
  O2-  O521  1  0.90676139  0.31951302  0.98031269  1
  O2-  O522  1  0.82508286  0.54032824  0.29026032  1
  O2-  O523  1  0.96894974  0.56560983  0.64753341  1
  O2-  O524  1  0.92035728  0.61537823  0.98016577  1
  O2-  O525  1  0.90092186  0.82790762  0.31970109  1
  O2-  O526  1  0.90577136  0.83527808  0.64318545  1
  O2-  O527  1  0.91501481  0.84328733  0.97739163  1
  O2-  O528  1  0.08402717  0.14969353  0.02456134  1
  O2-  O529  1  0.08652143  0.16199496  0.35819460  1
  O2-  O530  1  0.06858743  0.15970640  0.69232122  1
  O2-  O531  1  0.07229876  0.38054933  0.02114307  1
  O2-  O532  1  0.08221794  0.40716298  0.35856365  1
  O2-  O533  1  0.07958539  0.41769159  0.68771927  1
  O2-  O534  1  0.08838544  0.67552855  0.01286738  1
  O2-  O535  1  0.17156271  0.70055923  0.36466921  1
  O2-  O536  1  0.05166611  0.63037238  0.67460934  1
  O2-  O537  1  0.07641372  0.91756537  0.01895702  1
  O2-  O538  1  0.07344826  0.90147636  0.34515328  1
  O2-  O539  1  0.06724412  0.90831674  0.68079859  1
  O2-  O540  1  0.33977129  0.15222781  0.02905081  1
  O2-  O541  1  0.31586150  0.15284321  0.35688673  1
  O2-  O542  1  0.35437731  0.15999092  0.69283977  1
  O2-  O543  1  0.32619905  0.43157407  0.02753852  1
  O2-  O544  1  0.34080597  0.41932105  0.33810373  1
  O2-  O545  1  0.30312950  0.42879137  0.70075910  1
  O2-  O546  1  0.32107842  0.65513498  0.01457186  1
  O2-  O547  1  0.31475466  0.68770133  0.36664719  1
  O2-  O548  1  0.33332677  0.66742808  0.68060430  1
  O2-  O549  1  0.30806558  0.90154236  -0.03620190  1
  O2-  O550  1  0.34148957  0.91812937  0.40083216  1
  O2-  O551  1  0.39623219  0.95318018  0.69969990  1
  O2-  O552  1  0.58102125  0.17259393  0.02298393  1
  O2-  O553  1  0.56368313  0.15134578  0.36382570  1
  O2-  O554  1  0.65751711  0.25188187  0.68925933  1
  O2-  O555  1  0.58973122  0.42013708  0.02849445  1
  O2-  O556  1  0.57972533  0.41284439  0.35940417  1
  O2-  O557  1  0.59690583  0.40513581  0.69815779  1
  O2-  O558  1  0.57053304  0.66185598  0.01896245  1
  O2-  O559  1  0.58873654  0.68561674  0.33992452  1
  O2-  O560  1  0.56051044  0.64662028  0.68868050  1
  O2-  O561  1  0.57785212  0.90988697  0.01475577  1
  O2-  O562  1  0.59758874  0.92967731  0.36001826  1
  O2-  O563  1  0.55392233  0.96327670  0.69913404  1
  O2-  O564  1  0.83701175  0.16723659  0.03803818  1
  O2-  O565  1  0.84430006  0.17409791  0.29469486  1
  O2-  O566  1  0.82992626  0.16687415  0.68973156  1
  O2-  O567  1  0.83167519  0.40517724  0.02917495  1
  O2-  O568  1  0.82091080  0.40409627  0.35477866  1
  O2-  O569  1  0.86350773  0.44542521  0.71273464  1
  O2-  O570  1  0.82252453  0.67959703  0.01882252  1
  O2-  O571  1  0.82190096  0.66394521  0.36730449  1
  O2-  O572  1  0.81322341  0.66712075  0.68997664  1
  O2-  O573  1  0.83205148  0.92034293  0.02163856  1
  O2-  O574  1  0.83982808  0.92010515  0.36183994  1
  O2-  O575  1  0.83350350  0.92543029  0.68752519  1
