# generated using pymatgen
data_H2O
_symmetry_space_group_name_H-M   'P 1'
_cell_length_a   17.98224201
_cell_length_b   17.98444270
_cell_length_c   21.99189661
_cell_angle_alpha   90.00859118
_cell_angle_beta   89.99522241
_cell_angle_gamma   119.99430255
_symmetry_Int_Tables_number   1
_chemical_formula_structural   H2O
_chemical_formula_sum   'H384 O192'
_cell_volume   6159.69296931
_cell_formula_units_Z   192
loop_
 _symmetry_equiv_pos_site_id
 _symmetry_equiv_pos_as_xyz
  1  'x, y, z'
loop_
 _atom_type_symbol
 _atom_type_oxidation_number
  H+  1.0
  O2-  -2.0
loop_
 _atom_site_type_symbol
 _atom_site_label
 _atom_site_symmetry_multiplicity
 _atom_site_fract_x
 _atom_site_fract_y
 _atom_site_fract_z
 _atom_site_occupancy
  H+  H0  1  0.88131785  0.77629170  0.18193567  1
  H+  H1  1  0.38629518  0.40248311  0.30699797  1
  H+  H2  1  0.03891384  0.88937437  0.34999486  1
  H+  H3  1  0.35722161  0.96647587  0.82301238  1
  H+  H4  1  0.61434307  0.48092908  0.17019128  1
  H+  H5  1  0.78776086  0.13628932  0.34783081  1
  H+  H6  1  0.36028740  0.21392673  0.82318812  1
  H+  H7  1  0.08766193  0.20437921  0.50605827  1
  H+  H8  1  0.85549217  0.63301445  0.67294524  1
  H+  H9  1  -0.02694596  0.35851013  0.17602762  1
  H+  H10  1  0.85324824  0.72177978  0.66954775  1
  H+  H11  1  0.46671647  0.08583973  0.82393093  1
  H+  H12  1  0.36719091  0.63365244  0.48814719  1
  H+  H13  1  0.02114702  0.39255932  0.82507526  1
  H+  H14  1  0.63471870  0.76558208  0.50658900  1
  H+  H15  1  0.14011723  0.52638008  0.99914467  1
  H+  H16  1  0.47544158  0.30144616  0.37123770  1
  H+  H17  1  0.64168693  0.42676859  0.82902473  1
  H+  H18  1  0.99027703  0.61098035  0.32117527  1
  H+  H19  1  0.87242147  0.98033185  0.82712104  1
  H+  H20  1  0.88929652  0.28907206  0.99360272  1
  H+  H21  1  0.40168951  0.35964106  0.50570160  1
  H+  H22  1  0.30176479  0.18248610  0.35338530  1
  H+  H23  1  0.14198015  0.78125441  0.97710903  1
  H+  H24  1  0.89519693  1.02917971  0.66001723  1
  H+  H25  1  0.86228500  0.48791327  1.00963420  1
  H+  H26  1  0.32814041  0.18123465  0.10075556  1
  H+  H27  1  0.40661378  0.52980190  0.31686236  1
  H+  H28  1  0.34785107  0.13048444  0.20415647  1
  H+  H29  1  0.23717327  0.60417975  0.33292526  1
  H+  H30  1  0.65026922  0.52398424  0.33798072  1
  H+  H31  1  0.47407175  0.08955008  0.21286987  1
  H+  H32  1  0.64792573  0.36305614  0.51316018  1
  H+  H33  1  0.11315962  0.88578008  1.00603788  1
  H+  H34  1  0.13232358  0.26112435  0.17393807  1
  H+  H35  1  0.13211306  0.34935776  0.17420306  1
  H+  H36  1  0.10722772  -0.06014444  0.70958485  1
  H+  H37  1  0.09268620  0.37948172  0.50426081  1
  H+  H38  1  0.49612853  0.64956825  1.02551174  1
  H+  H39  1  0.27333146  0.38733179  0.67230408  1
  H+  H40  1  0.04201736  0.56647902  0.71822961  1
  H+  H41  1  0.88348958  0.10806222  0.15727041  1
  H+  H42  1  0.39944595  0.88358878  0.64345693  1
  H+  H43  1  0.60413981  0.63748247  0.82345954  1
  H+  H44  1  0.52109854  0.63250706  0.49830264  1
  H+  H45  1  0.23440254  0.61242150  0.50143137  1
  H+  H46  1  0.77338729  0.65850445  0.82366166  1
  H+  H47  1  0.29212085  0.38823084  0.32560552  1
  H+  H48  1  0.86309519  0.23715927  0.50856950  1
  H+  H49  1  0.89473639  0.78306746  0.83174301  1
  H+  H50  1  0.86438248  0.48016507  0.16400664  1
  H+  H51  1  0.07898752  0.66545253  -0.07549633  1
  H+  H52  1  0.12706151  0.09782315  0.52545495  1
  H+  H53  1  0.89129598  0.27516815  0.33463075  1
  H+  H54  1  0.76845817  0.42233631  0.84595009  1
  H+  H55  1  0.87680392  0.14518522  0.35741787  1
  H+  H56  1  0.03415002  0.88300991  0.50023942  1
  H+  H57  1  0.67384684  -0.00127449  0.83924464  1
  H+  H58  1  0.73896855  0.66047077  0.99205592  1
  H+  H59  1  0.72601908  0.11585522  0.51079498  1
  H+  H60  1  0.73760904  0.36351538  0.51330376  1
  H+  H61  1  0.64753809  0.61059490  0.34165104  1
  H+  H62  1  0.82911425  0.86293874  0.12516705  1
  H+  H63  1  0.36298206  0.20405391  0.66722994  1
  H+  H64  1  0.41124305  0.07610507  0.88662861  1
  H+  H65  1  0.51721724  0.89005046  0.99495234  1
  H+  H66  1  0.61120562  0.13763740  0.49846477  1
  H+  H67  1  0.86387847  0.99008812  -0.00296180  1
  H+  H68  1  0.86776550  0.37786249  0.50610830  1
  H+  H69  1  0.51053472  0.37365512  0.32415324  1
  H+  H70  1  0.63075358  0.78176088  0.98924731  1
  H+  H71  1  0.61317298  0.39232325  1.02171987  1
  H+  H72  1  0.87640340  0.11163838  0.51203608  1
  H+  H73  1  0.14459248  0.61896713  0.65590074  1
  H+  H74  1  0.38674803  0.02969304  0.50592441  1
  H+  H75  1  0.36087785  0.89079314  -0.00067365  1
  H+  H76  1  0.26790028  0.13410448  0.51493018  1
  H+  H77  1  0.48624718  0.36993171  0.00225411  1
  H+  H78  1  0.38414840  0.64441342  0.33133326  1
  H+  H79  1  0.07821241  0.42543009  0.76336435  1
  H+  H80  1  0.41196254  0.89911576  0.32201661  1
  H+  H81  1  0.36268977  0.38525534  0.17044915  1
  H+  H82  1  0.02165014  0.39516310  0.66747246  1
  H+  H83  1  0.13895917  0.85810180  0.32396999  1
  H+  H84  1  0.37299870  0.42546744  0.41134283  1
  H+  H85  1  0.12278771  0.63019658  0.34028903  1
  H+  H86  1  0.63589625  0.61632526  0.66490779  1
  H+  H87  1  0.85797791  0.22541051  0.16142234  1
  H+  H88  1  0.11897291  0.22139551  0.34612724  1
  H+  H89  1  0.12378166  0.78012030  0.83950605  1
  H+  H90  1  0.64656150  0.26504665  0.66853365  1
  H+  H91  1  0.12924919  0.67572994  0.21202866  1
  H+  H92  1  0.77901404  0.38862197  0.68043670  1
  H+  H93  1  0.88445112  0.64132500  0.49841834  1
  H+  H94  1  0.60800675  0.72593411  0.82316993  1
  H+  H95  1  0.58353854  0.91670620  0.40192597  1
  H+  H96  1  0.89509513  0.36589328  0.33199925  1
  H+  H97  1  0.63392235  0.10686499  0.66218450  1
  H+  H98  1  0.57907047  0.42762648  0.07233460  1
  H+  H99  1  0.54288750  0.40093835  0.83502187  1
  H+  H100  1  0.66424900  0.32381599  1.07712610  1
  H+  H101  1  0.85573283  0.64467943  0.16397730  1
  H+  H102  1  0.52923803  0.88605100  0.33921297  1
  H+  H103  1  0.08105784  0.40932656  0.10323977  1
  H+  H104  1  0.60653973  0.07203235  0.31368281  1
  H+  H105  1  0.21668317  0.06681146  0.67618749  1
  H+  H106  1  0.52288536  0.63722581  0.66775726  1
  H+  H107  1  0.12122338  0.46534269  0.34559885  1
  H+  H108  1  0.38218819  0.52816899  1.00677364  1
  H+  H109  1  0.47319649  0.11861277  0.51098984  1
  H+  H110  1  -0.00712806  0.86694822  -0.01218899  1
  H+  H111  1  0.11150037  0.13739388  0.82821009  1
  H+  H112  1  0.38536485  0.52155246  0.65748466  1
  H+  H113  1  0.07129767  0.66748138  0.77977352  1
  H+  H114  1  0.57860460  0.92285162  0.08882953  1
  H+  H115  1  0.87915449  0.72406447  0.34361758  1
  H+  H116  1  0.87985356  0.01829583  0.15177566  1
  H+  H117  1  0.63002138  0.01722336  0.17059599  1
  H+  H118  1  0.12806207  0.97884810  0.34817686  1
  H+  H119  1  0.36687538  0.75967167  0.84001467  1
  H+  H120  1  0.55400754  0.19393239  0.34820521  1
  H+  H121  1  0.76614297  0.02565924  0.29370298  1
  H+  H122  1  0.38421637  0.26396909  0.51786224  1
  H+  H123  1  0.14028468  0.10888232  0.33746314  1
  H+  H124  1  0.16243657  0.69684760  0.18733679  1
  H+  H125  1  0.36595215  0.38824980  0.82814407  1
  H+  H126  1  0.89439471  0.77461453  -0.01102548  1
  H+  H127  1  0.70855602  0.86149741  0.15768175  1
  H+  H128  1  0.14468592  0.28520629  0.00384983  1
  H+  H129  1  0.28217012  0.22310286  0.06795884  1
  H+  H130  1  0.54719754  0.25764422  0.79784311  1
  H+  H131  1  -0.01642481  0.11516400  -0.00910318  1
  H+  H132  1  0.89250717  0.36908189  0.66050252  1
  H+  H133  1  0.86757607  0.39130071  0.16569263  1
  H+  H134  1  0.78046026  0.88339423  0.49849495  1
  H+  H135  1  0.67702582  0.32571383  0.61086600  1
  H+  H136  1  0.64365745  0.64137143  -0.00118959  1
  H+  H137  1  0.10738696  0.13195138  0.16312763  1
  H+  H138  1  0.22430758  0.36575309  0.82677765  1
  H+  H139  1  0.78734241  0.88069893  0.35823160  1
  H+  H140  1  0.88524888  0.10874028  0.84271350  1
  H+  H141  1  0.47509909  0.60133202  0.23426480  1
  H+  H142  1  0.13564070  0.02804201  0.17590213  1
  H+  H143  1  0.61354765  0.39169436  0.16514998  1
  H+  H144  1  0.67136691  -0.01239570  0.32074254  1
  H+  H145  1  0.62325780  0.51168687  0.51036908  1
  H+  H146  1  0.13009362  0.61298030  0.84356047  1
  H+  H147  1  0.37059561  0.07116547  0.67229360  1
  H+  H148  1  0.67671104  0.83015369  0.41863384  1
  H+  H149  1  0.37530488  0.40005076  0.01136007  1
  H+  H150  1  0.28117142  0.64501076  0.66956568  1
  H+  H151  1  0.26906852  0.87931999  0.82317131  1
  H+  H152  1  0.22313625  0.11724589  0.18760121  1
  H+  H153  1  0.36023010  0.64939527  0.01666313  1
  H+  H154  1  0.62447543  0.71653006  0.36125945  1
  H+  H155  1  0.18754413  0.32140351  0.43443032  1
  H+  H156  1  0.95988872  0.62841599  0.16198302  1
  H+  H157  1  0.60855874  -0.02139453  0.99384353  1
  H+  H158  1  0.89056240  0.02342805  0.34767342  1
  H+  H159  1  0.61171401  0.49632251  0.67707958  1
  H+  H160  1  0.23269878  0.86026674  0.49709592  1
  H+  H161  1  0.35755641  0.95728080  0.16126624  1
  H+  H162  1  0.14659997  0.35522698  0.32875017  1
  H+  H163  1  0.51364585  0.39436377  0.67769134  1
  H+  H164  1  0.13983740  0.02220235  0.99753959  1
  H+  H165  1  0.38760748  0.11234772  0.98740347  1
  H+  H166  1  0.35854968  0.12423656  0.81998866  1
  H+  H167  1  0.44191738  1.03792439  0.35817110  1
  H+  H168  1  0.90320069  0.77297681  0.50710398  1
  H+  H169  1  0.02979169  0.37891336  0.34283130  1
  H+  H170  1  0.37419062  0.70838351  0.17782839  1
  H+  H171  1  0.89985296  0.85997061  0.34020376  1
  H+  H172  1  0.88079548  0.85285734  0.65966986  1
  H+  H173  1  0.02184090  0.89554988  0.15954452  1
  H+  H174  1  0.39460490  0.51990258  0.49694534  1
  H+  H175  1  0.12032524  0.72378093  0.49072769  1
  H+  H176  1  0.63339490  0.11235458  -0.01951853  1
  H+  H177  1  0.37069537  0.47933240  0.83118217  1
  H+  H178  1  0.77062934  0.13520711  0.15895975  1
  H+  H179  1  0.49614249  0.61430969  0.33173512  1
  H+  H180  1  0.96702548  0.61937740  0.98511730  1
  H+  H181  1  0.16818517  0.08131215  0.27764171  1
  H+  H182  1  0.13582519  0.76808023  0.31791344  1
  H+  H183  1  0.97684247  0.11194454  0.34038416  1
  H+  H184  1  0.46853241  0.61143130  0.84630698  1
  H+  H185  1  0.11747843  0.45951756  0.16557312  1
  H+  H186  1  0.77909458  0.89143210  0.67219840  1
  H+  H187  1  0.87081478  0.22838572  0.83996777  1
  H+  H188  1  0.23378978  0.37367352  0.00742183  1
  H+  H189  1  0.13674531  0.27941466  0.67086648  1
  H+  H190  1  0.50863735  0.77033883  0.77868953  1
  H+  H191  1  0.77945534  0.13853110  0.66238788  1
  H+  H192  1  0.12785777  0.52244945  0.83758119  1
  H+  H193  1  0.88726724  0.36903125  0.84449011  1
  H+  H194  1  0.86311251  0.64906006  0.00941853  1
  H+  H195  1  0.38988528  0.77234914  0.49867145  1
  H+  H196  1  0.90055285  0.87510918  0.83669564  1
  H+  H197  1  0.92828043  0.47385687  0.80921714  1
  H+  H198  1  0.88557877  0.86506228  0.20080173  1
  H+  H199  1  0.89159963  0.11733381  0.65628796  1
  H+  H200  1  0.52350653  0.03021096  0.78911497  1
  H+  H201  1  -0.03639044  0.35816481  0.51201969  1
  H+  H202  1  0.02312245  0.26881929  0.56186864  1
  H+  H203  1  0.11111118  0.22697150  0.82393297  1
  H+  H204  1  0.48920395  0.83478423  0.81381789  1
  H+  H205  1  0.79024051  0.63460578  0.34428544  1
  H+  H206  1  0.60011958  0.88623706  0.14937342  1
  H+  H207  1  0.62144061  0.77909463  0.17925811  1
  H+  H208  1  0.21961189  0.10817539  0.83778154  1
  H+  H209  1  0.62072299  0.11967330  0.83423026  1
  H+  H210  1  0.36494631  0.22778866  0.19770968  1
  H+  H211  1  0.61651221  0.98132674  0.49540171  1
  H+  H212  1  0.84658005  0.43101414  1.07048281  1
  H+  H213  1  0.98702854  0.60792515  0.50975402  1
  H+  H214  1  0.17734186  0.80544749  0.66047396  1
  H+  H215  1  0.88380267  0.52423087  0.66250993  1
  H+  H216  1  0.63773145  0.86342297  0.65084784  1
  H+  H217  1  0.55701191  0.65956569  0.12469271  1
  H+  H218  1  0.21543436  0.86535262  0.16784206  1
  H+  H219  1  0.11955371  0.14182738  0.00651097  1
  H+  H220  1  0.57747608  0.08240433  0.33182260  1
  H+  H221  1  0.78376179  0.39338191  0.34515794  1
  H+  H222  1  0.36805548  0.89053665  0.48122602  1
  H+  H223  1  0.02107649  0.88536089  0.81375864  1
  H+  H224  1  0.61959145  0.23728498  -0.00945429  1
  H+  H225  1  0.22618963  0.11157736  1.00776860  1
  H+  H226  1  0.78525730  0.88791252  0.82648569  1
  H+  H227  1  0.88665548  0.53778297  0.83738150  1
  H+  H228  1  0.26219216  0.62679694  0.82479673  1
  H+  H229  1  0.38206513  0.77966403  -0.00936310  1
  H+  H230  1  0.52397766  0.37227698  0.50174496  1
  H+  H231  1  0.47767715  0.27842411  0.87342915  1
  H+  H232  1  0.63109526  0.97562090  0.82353343  1
  H+  H233  1  0.30611125  0.38872833  0.46318471  1
  H+  H234  1  0.77719637  0.15100424  0.84151901  1
  H+  H235  1  0.86459284  0.97636948  0.50131951  1
  H+  H236  1  0.63460783  0.84806821  0.82865513  1
  H+  H237  1  0.14308855  0.52380163  0.50522415  1
  H+  H238  1  0.37437069  0.85378142  0.83559295  1
  H+  H239  1  0.08353138  0.16179039  0.40640030  1
  H+  H240  1  0.11482419  0.48376288  0.66759019  1
  H+  H241  1  0.62638270  0.86743178  -0.01826099  1
  H+  H242  1  0.60777397  0.62588724  0.50325270  1
  H+  H243  1  0.61490156  0.89039094  0.49451833  1
  H+  H244  1  0.89703871  0.51870694  0.51350066  1
  H+  H245  1  0.87530726  0.47851798  0.34037629  1
  H+  H246  1  0.13908954  0.37161147  0.66935224  1
  H+  H247  1  0.08243952  0.75793761  0.14216566  1
  H+  H248  1  0.19212440  0.32491147  0.46853822  1
  H+  H249  1  0.35835534  0.13477282  0.50694340  1
  H+  H250  1  0.72472944  0.61127647  0.66567358  1
  H+  H251  1  0.38563706  0.02323622  0.98813564  1
  H+  H252  1  0.61755796  0.12946157  0.19865125  1
  H+  H253  1  0.47803802  0.86334376  0.49937090  1
  H+  H254  1  0.76848646  0.64673701  0.16532157  1
  H+  H255  1  0.37327100  0.72751101  0.33361335  1
  H+  H256  1  0.52139381  0.88489654  0.65951012  1
  H+  H257  1  0.56991051  0.15476348  0.15093823  1
  H+  H258  1  0.36716922  0.99443051  0.31279985  1
  H+  H259  1  0.90257744  0.61338518  0.32404833  1
  H+  H260  1  0.58550286  0.64912199  0.41319406  1
  H+  H261  1  0.00760300  0.61680255  0.68094219  1
  H+  H262  1  0.53565994  0.73623233  0.06151340  1
  H+  H263  1  0.76940927  0.90327388  0.99113704  1
  H+  H264  1  0.63955651  0.85193396  0.36164981  1
  H+  H265  1  1.00800594  0.64862183  0.83637395  1
  H+  H266  1  0.17198814  0.58048613  0.93695963  1
  H+  H267  1  0.52091892  0.11721825  0.67310195  1
  H+  H268  1  0.03201330  0.15017399  0.67331265  1
  H+  H269  1  0.34648536  0.86631121  0.14254345  1
  H+  H270  1  0.38773399  0.36142002  0.66280410  1
  H+  H271  1  1.00632803  0.11630057  0.49657502  1
  H+  H272  1  0.57058399  0.27826608  0.76890060  1
  H+  H273  1  0.39332947  0.28434597  1.00769133  1
  H+  H274  1  0.38174225  0.77145503  0.09899041  1
  H+  H275  1  0.53364998  0.15383978  -0.03271311  1
  H+  H276  1  0.97667497  0.11204473  0.83549198  1
  H+  H277  1  0.62625893  0.34804038  0.33532296  1
  H+  H278  1  0.76913801  0.15244312  1.00196972  1
  H+  H279  1  0.12184156  0.63563253  0.49165568  1
  H+  H280  1  0.25388335  0.58862795  0.19391766  1
  H+  H281  1  0.90042029  0.38195911  0.99377817  1
  H+  H282  1  0.11511907  0.63761137  -0.02070639  1
  H+  H283  1  0.15617277  0.83555245  0.22859340  1
  H+  H284  1  0.64255201  0.27468630  0.18981136  1
  H+  H285  1  0.64172720  0.54422814  0.84369815  1
  H+  H286  1  0.48597830  0.37337208  0.18633651  1
  H+  H287  1  0.11575245  0.88282652  0.82104398  1
  H+  H288  1  0.93103033  0.83429863  0.92127999  1
  H+  H289  1  0.56888372  0.88886766  0.72064638  1
  H+  H290  1  0.85277849  0.91503606  0.41164580  1
  H+  H291  1  0.66255388  0.07935361  0.56783867  1
  H+  H292  1  0.73116673  0.36422819  0.17420076  1
  H+  H293  1  0.34254250  0.41939054  0.07477750  1
  H+  H294  1  0.40906004  0.58512455  0.94591781  1
  H+  H295  1  0.41082739  0.57213800  0.56074933  1
  H+  H296  1  0.41847018  0.83663543  0.59030025  1
  H+  H297  1  0.27369185  0.65164280  0.01569486  1
  H+  H298  1  0.83953054  0.91854248  0.73136055  1
  H+  H299  1  0.22965388  0.87213921  0.98719662  1
  H+  H300  1  0.40776550  0.83228439  0.92737659  1
  H+  H301  1  0.88055016  0.62870918  0.84003775  1
  H+  H302  1  0.67044243  0.83338135  0.56083813  1
  H+  H303  1  0.67455867  0.18771226  0.88618833  1
  H+  H304  1  0.57736825  0.66817262  0.72957129  1
  H+  H305  1  0.34238449  0.66595281  0.42792133  1
  H+  H306  1  0.33403412  0.15382569  0.72947957  1
  H+  H307  1  0.17705031  0.56537774  0.27567559  1
  H+  H308  1  0.67212977  0.61652545  0.89735424  1
  H+  H309  1  0.18897223  0.84100063  0.59271807  1
  H+  H310  1  0.92253695  0.58597833  0.60370488  1
  H+  H311  1  0.08447099  0.41259127  0.43799734  1
  H+  H312  1  0.11060820  0.89601878  0.15782638  1
  H+  H313  1  0.67263212  0.34581469  0.27530424  1
  H+  H314  1  0.63764570  1.01960447  0.65983562  1
  H+  H315  1  0.91619023  0.33773078  0.59605978  1
  H+  H316  1  0.91125859  0.08097625  0.56945759  1
  H+  H317  1  0.46242794  0.84480437  0.13589884  1
  H+  H318  1  0.91391085  0.82223234  0.60252326  1
  H+  H319  1  0.07607324  0.91323953  0.06507456  1
  H+  H320  1  0.16159749  0.84943614  0.89511481  1
  H+  H321  1  0.54441600  0.14609676  0.07447583  1
  H+  H322  1  0.08681953  0.17528501  0.73446927  1
  H+  H323  1  0.16945087  0.08802440  0.90003679  1
  H+  H324  1  0.36918816  0.73308155  0.67178492  1
  H+  H325  1  0.73285611  0.36897151  1.02519853  1
  H+  H326  1  0.56899117  0.13146349  0.73508437  1
  H+  H327  1  0.66916132  0.08803105  0.92656905  1
  H+  H328  1  0.09682096  0.91737667  0.44174781  1
  H+  H329  1  0.14371236  0.85847123  0.50554686  1
  H+  H330  1  0.83932474  0.68717343  0.06863653  1
  H+  H331  1  0.65397032  0.57156055  0.56950919  1
  H+  H332  1  0.17279831  0.59836350  0.18072838  1
  H+  H333  1  0.61828926  0.23007344  0.50224611  1
  H+  H334  1  0.12337979  0.39553415  1.01389978  1
  H+  H335  1  0.58014206  0.43213574  0.74135176  1
  H+  H336  1  0.09107502  0.66244268  0.39710032  1
  H+  H337  1  0.66606708  0.83126278  0.89206582  1
  H+  H338  1  0.57386058  0.39758293  0.43960113  1
  H+  H339  1  0.11857255  0.31283970  0.58691416  1
  H+  H340  1  0.32730653  0.65855721  0.76744579  1
  H+  H341  1  0.92443420  0.34679769  0.90359380  1
  H+  H342  1  0.93114885  0.83233709  0.28060080  1
  H+  H343  1  0.81408366  0.91810685  0.07648817  1
  H+  H344  1  0.30430643  0.93058105  0.64362241  1
  H+  H345  1  0.54348536  0.15849560  0.41503339  1
  H+  H346  1  0.13678455  0.01520309  0.52017125  1
  H+  H347  1  0.91628164  0.33167231  0.23672868  1
  H+  H348  1  0.32937704  0.91888421  0.05962971  1
  H+  H349  1  0.13623348  0.36614262  0.82673335  1
  H+  H350  1  0.69000805  0.35288244  0.88325284  1
  H+  H351  1  0.67060984  0.58363721  0.24333888  1
  H+  H352  1  0.84364733  0.41529076  0.44515655  1
  H+  H353  1  0.42557378  0.85178227  0.26598927  1
  H+  H354  1  0.17026184  0.32266319  0.26798922  1
  H+  H355  1  0.90016676  0.86163036  0.50984353  1
  H+  H356  1  0.90027689  0.59145594  0.93224561  1
  H+  H357  1  0.82424424  0.18307234  0.06327905  1
  H+  H358  1  0.06457747  0.69195314  0.08924359  1
  H+  H359  1  0.85887706  0.67007797  0.43735971  1
  H+  H360  1  0.64071376  0.77644224  0.65412194  1
  H+  H361  1  0.83594827  0.17732548  0.44728928  1
  H+  H362  1  0.86823527  0.22779874  0.66291702  1
  H+  H363  1  0.26895595  0.37290820  0.16241878  1
  H+  H364  1  0.92632285  0.08513983  0.93051188  1
  H+  H365  1  0.34915295  0.93467223  0.42475410  1
  H+  H366  1  0.33445307  0.19743786  0.42063991  1
  H+  H367  1  0.43820434  0.32312267  0.91260673  1
  H+  H368  1  0.62936853  0.60983324  0.18922229  1
  H+  H369  1  0.38759902  0.61216035  0.65621452  1
  H+  H370  1  0.01683820  0.12976114  0.15390368  1
  H+  H371  1  0.91993803  0.58933647  0.22852972  1
  H+  H372  1  0.03305144  0.39546765  0.00898776  1
  H+  H373  1  0.83043312  0.67704458  0.76300051  1
  H+  H374  1  0.68293582  0.05795038  0.23197196  1
  H+  H375  1  0.17696701  0.59284522  0.59513117  1
  H+  H376  1  0.08711573  0.16743581  0.06638741  1
  H+  H377  1  0.49894868  0.13469050  0.08231059  1
  H+  H378  1  0.33748073  0.41875053  0.72938035  1
  H+  H379  1  0.37588785  0.60268939  0.84491390  1
  H+  H380  1  0.39736397  0.63387690  0.18636832  1
  H+  H381  1  0.42502433  0.33515003  0.60569209  1
  H+  H382  1  0.14559051  0.03400111  0.62688031  1
  H+  H383  1  0.84542209  0.43482518  0.73707399  1
  O2-  O384  1  0.08031639  0.16281724  0.14358562  1
  O2-  O385  1  0.06931749  0.14832464  0.48637653  1
  O2-  O386  1  0.07922296  0.16490070  0.81139767  1
  O2-  O387  1  0.07768865  0.40155421  0.14870012  1
  O2-  O388  1  0.08327595  0.42266238  0.48260610  1
  O2-  O389  1  0.08128085  0.42681314  0.80895736  1
  O2-  O390  1  0.03565891  0.71047659  0.11762348  1
  O2-  O391  1  0.08909081  0.66288962  0.47564897  1
  O2-  O392  1  0.07195665  0.67665372  0.82465262  1
  O2-  O393  1  0.07943573  0.92518081  0.14034274  1
  O2-  O394  1  0.09616613  0.91487036  0.48732382  1
  O2-  O395  1  0.08310609  0.91201056  0.79661220  1
  O2-  O396  1  0.33371691  0.16992972  0.17920754  1
  O2-  O397  1  0.32719772  0.16778610  0.49790003  1
  O2-  O398  1  0.32777187  0.15584694  0.80600150  1
  O2-  O399  1  0.32889554  0.40434833  0.14661217  1
  O2-  O400  1  0.36813596  0.42405065  0.45718909  1
  O2-  O401  1  0.34399190  0.42245288  0.80934933  1
  O2-  O402  1  0.35400241  0.65080094  0.19568332  1
  O2-  O403  1  0.33884086  0.66594680  0.47326066  1
  O2-  O404  1  0.32418468  0.65478059  0.81276658  1
  O2-  O405  1  0.32192802  0.90455514  0.13623697  1
  O2-  O406  1  0.33698311  0.92078225  0.46845164  1
  O2-  O407  1  0.32991312  0.90407886  0.81232492  1
  O2-  O408  1  0.58430853  0.16112367  0.19429690  1
  O2-  O409  1  0.58145682  0.16978084  0.48702923  1
  O2-  O410  1  0.54310674  0.09033339  0.79786243  1
  O2-  O411  1  0.58227497  0.42186373  0.15256652  1
  O2-  O412  1  0.58312264  0.40618293  0.48392823  1
  O2-  O413  1  0.59737361  0.44145639  0.81387978  1
  O2-  O414  1  0.56491050  0.65870140  0.16988080  1
  O2-  O415  1  0.58289591  0.66205730  0.48585847  1
  O2-  O416  1  0.57041565  0.66515663  0.80883607  1
  O2-  O417  1  0.56898755  0.91657629  0.13382379  1
  O2-  O418  1  0.58534842  0.92056662  0.47854789  1
  O2-  O419  1  0.53498981  0.83081669  0.78954168  1
  O2-  O420  1  0.82972577  0.16754599  0.14208018  1
  O2-  O421  1  0.83234307  0.17299125  0.49238306  1
  O2-  O422  1  0.83701519  0.16584844  0.83298509  1
  O2-  O423  1  0.83591570  0.41958221  0.14877362  1
  O2-  O424  1  0.84111503  0.41519542  0.49006793  1
  O2-  O425  1  0.86798075  0.45796655  0.81157676  1
  O2-  O426  1  0.82903226  0.67930024  0.14993861  1
  O2-  O427  1  0.86135269  0.67725088  0.48205041  1
  O2-  O428  1  0.83390650  0.68517303  0.80858843  1
  O2-  O429  1  0.80983986  0.90473416  0.12404648  1
  O2-  O430  1  0.84190902  0.91569498  0.48641932  1
  O2-  O431  1  0.84589353  0.91814728  0.81236441  1
  O2-  O432  1  0.16008393  0.08511278  0.19597904  1
  O2-  O433  1  0.16051484  0.07186366  0.54136047  1
  O2-  O434  1  0.16163831  0.08483720  0.85556938  1
  O2-  O435  1  0.16404472  0.32143195  0.19036874  1
  O2-  O436  1  0.08254213  0.29355863  0.54836291  1
  O2-  O437  1  0.16352176  0.33228274  0.83842027  1
  O2-  O438  1  0.18849078  0.55821898  0.19813309  1
  O2-  O439  1  0.17560089  0.58538799  0.51954130  1
  O2-  O440  1  0.16113929  0.58282311  0.85529240  1
  O2-  O441  1  0.15576761  0.84325695  0.18239997  1
  O2-  O442  1  0.17500354  0.82691941  0.51665039  1
  O2-  O443  1  0.15583718  0.84365260  0.84951144  1
  O2-  O444  1  0.41470115  0.03940486  0.20964199  1
  O2-  O445  1  0.41167836  0.08805623  0.52300922  1
  O2-  O446  1  0.40641958  0.07313633  0.84192382  1
  O2-  O447  1  0.42986085  0.34688003  0.20932489  1
  O2-  O448  1  0.42278145  0.32726744  0.52955327  1
  O2-  O449  1  0.45100826  0.31392930  0.86892949  1
  O2-  O450  1  0.47496901  0.60103966  0.18799426  1
  O2-  O451  1  0.41471605  0.57752126  0.51544992  1
  O2-  O452  1  0.40909757  0.57714999  0.86306634  1
  O2-  O453  1  0.39853905  0.80296780  0.13789966  1
  O2-  O454  1  0.41696541  0.83298499  0.51334202  1
  O2-  O455  1  0.40345857  0.82112295  0.85199821  1
  O2-  O456  1  0.66632256  0.07283178  0.19230367  1
  O2-  O457  1  0.66342047  0.08036321  0.52197295  1
  O2-  O458  1  0.67603921  0.14299473  0.86192601  1
  O2-  O459  1  0.66860843  0.33782528  0.18423239  1
  O2-  O460  1  0.67661474  0.33184225  0.52857812  1
  O2-  O461  1  0.71303820  0.40940573  0.86499256  1
  O2-  O462  1  0.66723394  0.58567434  0.19804087  1
  O2-  O463  1  0.64661631  0.57161100  0.52507270  1
  O2-  O464  1  0.66960885  0.60694828  0.85230197  1
  O2-  O465  1  0.65195378  0.84218695  0.17763793  1
  O2-  O466  1  0.66714430  0.82929286  0.51499502  1
  O2-  O467  1  0.67236117  0.82867232  0.84679920  1
  O2-  O468  1  0.91404172  0.07678468  0.16833034  1
  O2-  O469  1  0.90494130  0.07755975  0.52347827  1
  O2-  O470  1  0.91656838  0.07650737  0.85153167  1
  O2-  O471  1  0.91263783  0.33257747  0.19125921  1
  O2-  O472  1  0.90579839  0.32733094  0.52977378  1
  O2-  O473  1  0.92196710  0.34315874  0.85767051  1
  O2-  O474  1  0.90608630  0.58727218  0.18399688  1
  O2-  O475  1  0.92841647  0.58008456  0.52805834  1
  O2-  O476  1  0.91115232  0.60063295  0.85828449  1
  O2-  O477  1  0.91890648  0.83585227  0.19948442  1
  O2-  O478  1  0.93213025  0.83358179  0.52468720  1
  O2-  O479  1  0.93218707  0.84324208  0.84903168  1
  O2-  O480  1  0.17393800  0.08207611  0.32258887  1
  O2-  O481  1  0.15513210  0.02582910  0.66992613  1
  O2-  O482  1  0.17256292  0.08304707  0.98399614  1
  O2-  O483  1  0.17753957  0.32588345  0.31339043  1
  O2-  O484  1  0.16813228  0.34101858  0.65280642  1
  O2-  O485  1  0.17283790  0.34771968  0.99520193  1
  O2-  O486  1  0.17557810  0.57130298  0.32079234  1
  O2-  O487  1  0.17900830  0.59371725  0.64106286  1
  O2-  O488  1  0.16983905  0.58687948  0.98180901  1
  O2-  O489  1  0.16006939  0.82584389  0.29946116  1
  O2-  O490  1  0.20335343  0.85785814  0.63656772  1
  O2-  O491  1  0.16880626  0.84472394  0.97151747  1
  O2-  O492  1  0.36215194  0.06238549  0.24532178  1
  O2-  O493  1  0.39736758  0.03558640  0.68327910  1
  O2-  O494  1  0.41545195  0.08272516  0.97005755  1
  O2-  O495  1  0.45846635  0.39258156  0.26774737  1
  O2-  O496  1  0.42475235  0.33637942  0.65154487  1
  O2-  O497  1  0.42548503  0.33783057  0.98400392  1
  O2-  O498  1  0.44208652  0.59288046  0.30735814  1
  O2-  O499  1  0.41656016  0.58118228  0.64023124  1
  O2-  O500  1  0.40717003  0.58901652  0.99096771  1
  O2-  O501  1  0.42640793  0.85339431  0.31028304  1
  O2-  O502  1  0.41861552  0.84132055  0.63592226  1
  O2-  O503  1  0.41125296  0.83919252  0.97301720  1
  O2-  O504  1  0.71891244  0.03725825  0.29829887  1
  O2-  O505  1  0.66611343  0.07926866  0.64402956  1
  O2-  O506  1  0.66143396  0.07759704  0.97177185  1
  O2-  O507  1  0.67247889  0.33835522  0.31965352  1
  O2-  O508  1  0.67919232  0.32600547  0.65597970  1
  O2-  O509  1  0.66901852  0.33306564  1.03305952  1
  O2-  O510  1  0.67944107  0.58286286  0.32286954  1
  O2-  O511  1  0.66134449  0.57985365  0.65293447  1
  O2-  O512  1  0.68895223  0.65512241  0.96926311  1
  O2-  O513  1  0.67530381  0.82582151  0.37413855  1
  O2-  O514  1  0.67180202  0.83584388  0.63740003  1
  O2-  O515  1  0.65708836  0.83662568  0.96714777  1
  O2-  O516  1  0.91353014  0.08350440  0.33401209  1
  O2-  O517  1  0.92506178  0.08814772  0.64260787  1
  O2-  O518  1  0.92372248  0.08346783  0.97570652  1
  O2-  O519  1  0.92353610  0.33395215  0.31610366  1
  O2-  O520  1  0.92439229  0.34161386  0.64399113  1
  O2-  O521  1  0.92869234  0.35020395  0.97855905  1
  O2-  O522  1  0.92989017  0.58200862  0.30520189  1
  O2-  O523  1  0.91725902  0.58668365  0.64935994  1
  O2-  O524  1  0.90432393  0.59173412  0.97845756  1
  O2-  O525  1  0.93133501  0.83019182  0.32563260  1
  O2-  O526  1  0.90321035  0.81473827  0.64720757  1
  O2-  O527  1  0.93182656  0.83346133  0.96811639  1
  O2-  O528  1  0.09109430  0.17358153  0.02099818  1
  O2-  O529  1  0.08502381  0.16095303  0.36102600  1
  O2-  O530  1  0.09108368  0.18567175  0.68957673  1
  O2-  O531  1  0.09184318  0.42728944  0.02708166  1
  O2-  O532  1  0.08957329  0.40413428  0.35922887  1
  O2-  O533  1  0.08192953  0.42583698  0.68610861  1
  O2-  O534  1  0.08470642  0.67076516  -0.03120082  1
  O2-  O535  1  0.09164489  0.66099603  0.35149155  1
  O2-  O536  1  0.06053430  0.62489494  0.70477012  1
  O2-  O537  1  0.07796836  0.91228897  0.01903334  1
  O2-  O538  1  0.09978618  0.91801451  0.36371426  1
  O2-  O539  1  0.07460148  0.88219724  0.73328831  1
  O2-  O540  1  0.31439980  0.19389532  0.05900338  1
  O2-  O541  1  0.34764180  0.22437077  0.37972803  1
  O2-  O542  1  0.33517524  0.14576493  0.68438331  1
  O2-  O543  1  0.34537085  0.42865079  0.02900527  1
  O2-  O544  1  0.35483625  0.42317686  0.33459872  1
  O2-  O545  1  0.33598803  0.41689842  0.68411454  1
  O2-  O546  1  0.33506269  0.68581507  0.02840557  1
  O2-  O547  1  0.34916236  0.66843479  0.34899535  1
  O2-  O548  1  0.34074262  0.67294099  0.68694939  1
  O2-  O549  1  0.33078053  0.92201117  0.01390314  1
  O2-  O550  1  0.39418437  0.97961789  0.34643274  1
  O2-  O551  1  0.36864720  0.96819704  0.63726366  1
  O2-  O552  1  0.59688673  0.18542641  -0.03554778  1
  O2-  O553  1  0.51480081  0.14683440  0.37444877  1
  O2-  O554  1  0.57960920  0.14978185  0.68962178  1
  O2-  O555  1  0.58028163  0.42258162  0.02729058  1
  O2-  O556  1  0.53020832  0.35348820  0.36029782  1
  O2-  O557  1  0.57549803  0.43257289  0.69518747  1
  O2-  O558  1  0.54943825  0.69244706  0.04900263  1
  O2-  O559  1  0.59255712  0.65298592  0.36718965  1
  O2-  O560  1  0.58279722  0.66908896  0.68416867  1
  O2-  O561  1  0.57789872  0.91753206  0.00992336  1
  O2-  O562  1  0.58727916  0.90681134  0.35726602  1
  O2-  O563  1  0.58031498  0.90765076  0.67745230  1
  O2-  O564  1  0.82308283  0.19794922  0.02000000  1
  O2-  O565  1  0.84342942  0.17552222  0.36704208  1
  O2-  O566  1  0.84111026  0.16589781  0.67302367  1
  O2-  O567  1  0.83987169  0.42832523  0.02516537  1
  O2-  O568  1  0.84462082  0.41978044  0.35853083  1
  O2-  O569  1  0.84147727  0.42734774  0.69137574  1
  O2-  O570  1  0.84160174  0.68846521  0.02315278  1
  O2-  O571  1  0.85186157  0.66212490  0.35549211  1
  O2-  O572  1  0.82204157  0.66031947  0.68745505  1
  O2-  O573  1  0.82570806  0.92795697  0.01141205  1
  O2-  O574  1  0.85022112  0.91246051  0.36578531  1
  O2-  O575  1  0.83976014  0.92025033  0.68601026  1
