# generated using pymatgen
data_H2O
_symmetry_space_group_name_H-M   'P 1'
_cell_length_a   17.99838534
_cell_length_b   18.00063584
_cell_length_c   22.00510939
_cell_angle_alpha   89.97099308
_cell_angle_beta   90.02726952
_cell_angle_gamma   120.01598228
_symmetry_Int_Tables_number   1
_chemical_formula_structural   H2O
_chemical_formula_sum   'H384 O192'
_cell_volume   6173.13138663
_cell_formula_units_Z   192
loop_
 _symmetry_equiv_pos_site_id
 _symmetry_equiv_pos_as_xyz
  1  'x, y, z'
loop_
 _atom_type_symbol
 _atom_type_oxidation_number
  H+  1.0
  O2-  -2.0
loop_
 _atom_site_type_symbol
 _atom_site_label
 _atom_site_symmetry_multiplicity
 _atom_site_fract_x
 _atom_site_fract_y
 _atom_site_fract_z
 _atom_site_occupancy
  H+  H0  1  0.35829359  -0.03091972  1.01092212  1
  H+  H1  1  0.37171935  0.01743856  0.85053976  1
  H+  H2  1  -0.01485034  0.10862768  0.51333425  1
  H+  H3  1  0.56128189  0.12048983  -0.00546400  1
  H+  H4  1  0.36459151  0.48507753  0.00172297  1
  H+  H5  1  0.50529766  0.86496308  0.00830019  1
  H+  H6  1  0.50084784  0.87592350  0.17006338  1
  H+  H7  1  0.14191434  0.96268462  0.11211990  1
  H+  H8  1  0.39905045  0.81985274  0.56673934  1
  H+  H9  1  0.13494838  0.52389224  -0.00272596  1
  H+  H10  1  0.00503405  0.39739768  0.77770958  1
  H+  H11  1  0.25753282  0.36577509  0.80594009  1
  H+  H12  1  0.88742925  0.38873013  0.15961992  1
  H+  H13  1  0.59382525  0.46137445  0.15668797  1
  H+  H14  1  0.38595808  1.03928353  0.33014504  1
  H+  H15  1  0.53213514  0.13970011  0.33998201  1
  H+  H16  1  0.96649432  0.11433984  0.17724052  1
  H+  H17  1  0.35745019  0.24147327  0.66915040  1
  H+  H18  1  0.13777731  0.86400928  0.84358818  1
  H+  H19  1  0.37937230  0.27812988  0.49864547  1
  H+  H20  1  0.37884319  0.62322233  0.68330332  1
  H+  H21  1  0.39956038  0.86871136  0.17366362  1
  H+  H22  1  0.62023389  0.34696684  -0.00698021  1
  H+  H23  1  0.13456258  0.36258883  0.16923105  1
  H+  H24  1  0.97973813  0.35922868  0.33605272  1
  H+  H25  1  0.23000968  0.48740436  0.77965708  1
  H+  H26  1  0.31518383  0.44469765  0.44633434  1
  H+  H27  1  0.25464478  0.64063377  0.32138628  1
  H+  H28  1  0.51805816  0.37866400  0.00039457  1
  H+  H29  1  0.33576898  0.65642627  0.09802001  1
  H+  H30  1  0.26211525  0.38881591  0.50378242  1
  H+  H31  1  0.01762422  0.90091631  -0.01828452  1
  H+  H32  1  0.10401265  0.89210400  0.66717327  1
  H+  H33  1  0.46480144  0.37472369  0.64880908  1
  H+  H34  1  0.13851305  0.87146793  0.49931544  1
  H+  H35  1  0.72657637  0.86338879  0.32337089  1
  H+  H36  1  0.52753197  0.14567183  0.48807830  1
  H+  H37  1  0.86859176  0.38172168  0.34673783  1
  H+  H38  1  0.78584642  0.38855855  0.50087188  1
  H+  H39  1  0.75672329  0.65375970  0.01515867  1
  H+  H40  1  0.00309632  0.52313267  0.55912941  1
  H+  H41  1  0.21110310  0.12778244  -0.00787673  1
  H+  H42  1  0.49337929  0.61913548  0.66421582  1
  H+  H43  1  0.13342223  0.26997470  0.32164288  1
  H+  H44  1  0.36972709  0.76694627  0.50568646  1
  H+  H45  1  0.23375560  0.12630522  0.50159823  1
  H+  H46  1  0.97740552  0.35512380  0.17818496  1
  H+  H47  1  0.66401828  0.83106429  0.22803725  1
  H+  H48  1  0.04522225  0.36514154  0.66491765  1
  H+  H49  1  0.24078889  0.60896636  0.66628397  1
  H+  H50  1  0.62690767  0.97868920  0.48724186  1
  H+  H51  1  0.21288788  0.44388320  0.94010147  1
  H+  H52  1  0.16366142  0.08929424  0.89541650  1
  H+  H53  1  0.37086450  0.88620240  0.01001675  1
  H+  H54  1  0.73005771  0.10831564  0.16941362  1
  H+  H55  1  0.39273871  0.52892023  0.51586152  1
  H+  H56  1  0.11913389  0.98555526  0.49007338  1
  H+  H57  1  0.27348079  0.62354461  0.49582792  1
  H+  H58  1  0.36855169  0.36730972  0.64573506  1
  H+  H59  1  0.36765116  0.64055335  0.85751186  1
  H+  H60  1  0.86968871  0.47138177  0.34869496  1
  H+  H61  1  0.08314054  0.92398269  0.43155379  1
  H+  H62  1  0.64085810  0.51989769  0.50449069  1
  H+  H63  1  0.92228846  0.50191517  0.51968258  1
  H+  H64  1  0.88686584  0.60411642  0.83048615  1
  H+  H65  1  0.65712435  0.08422960  0.71569264  1
  H+  H66  1  0.15355676  0.61627458  0.51407110  1
  H+  H67  1  0.50947734  0.37219698  0.15193299  1
  H+  H68  1  0.38402527  0.82390908  0.67555362  1
  H+  H69  1  0.61182534  0.64108645  0.82150953  1
  H+  H70  1  0.97185099  0.86222264  0.66096000  1
  H+  H71  1  0.77077929  0.88393423  0.50068889  1
  H+  H72  1  0.90079746  0.60664540  0.18619841  1
  H+  H73  1  0.10639622  0.88954852  0.33681052  1
  H+  H74  1  0.42525428  0.83195428  0.94028836  1
  H+  H75  1  0.62367522  0.38594298  0.34542597  1
  H+  H76  1  0.73690036  0.11935564  0.67330177  1
  H+  H77  1  0.37271849  0.15706643  0.48359363  1
  H+  H78  1  0.05113866  0.63655067  0.50204205  1
  H+  H79  1  0.65786626  0.33196111  0.93155046  1
  H+  H80  1  0.11781326  0.23046154  0.49716261  1
  H+  H81  1  -0.01640824  0.07946514  0.02012422  1
  H+  H82  1  0.01886547  0.62746743  0.00393364  1
  H+  H83  1  0.86536576  0.71436485  0.81739191  1
  H+  H84  1  0.63496565  0.77697201  0.16499378  1
  H+  H85  1  0.61875438  0.97718396  0.15719295  1
  H+  H86  1  0.77386584  0.89588432  0.15933436  1
  H+  H87  1  0.59924029  0.48055361  0.81200325  1
  H+  H88  1  0.60212023  0.39301982  0.66318827  1
  H+  H89  1  0.12426368  0.25875938  0.83328380  1
  H+  H90  1  0.60566963  0.96638282  0.67160186  1
  H+  H91  1  0.84300781  0.41488749  0.44033310  1
  H+  H92  1  0.11664399  0.46955081  0.50488582  1
  H+  H93  1  0.48576785  0.60339383  0.32734614  1
  H+  H94  1  0.63514434  0.10571753  0.83674994  1
  H+  H95  1  0.67689531  0.34160627  0.56663458  1
  H+  H96  1  0.86852776  0.64387569  0.49911879  1
  H+  H97  1  0.37193813  0.36908427  0.50151950  1
  H+  H98  1  0.26635229  0.14032312  0.82179478  1
  H+  H99  1  0.86288203  0.22487973  0.34123265  1
  H+  H100  1  0.86394430  0.89984556  0.15895742  1
  H+  H101  1  0.23685539  0.39071395  0.98232666  1
  H+  H102  1  0.08266416  0.40537813  0.40641118  1
  H+  H103  1  0.60973873  0.71477208  0.48984727  1
  H+  H104  1  0.60938253  0.72788606  0.82206320  1
  H+  H105  1  0.16625784  0.63025453  0.66673298  1
  H+  H106  1  0.37983467  0.27643924  0.83502520  1
  H+  H107  1  0.27334498  0.14236537  0.33810122  1
  H+  H108  1  0.77464382  0.13426516  0.33721923  1
  H+  H109  1  0.27500112  0.62099956  0.15496665  1
  H+  H110  1  0.62756191  0.35725815  0.17216515  1
  H+  H111  1  0.10968331  0.11125521  0.17926559  1
  H+  H112  1  0.11654512  0.63915478  0.83206937  1
  H+  H113  1  0.14357579  0.78310897  0.50334363  1
  H+  H114  1  0.72918965  0.61178760  0.83175124  1
  H+  H115  1  0.77567524  0.88734188  0.67238631  1
  H+  H116  1  0.62592950  0.76768903  0.98609880  1
  H+  H117  1  0.38241258  0.36151509  0.30167545  1
  H+  H118  1  0.87742823  0.51943152  0.98434053  1
  H+  H119  1  0.83850666  0.37347972  0.82752064  1
  H+  H120  1  0.89218484  0.76864971  0.32261803  1
  H+  H121  1  0.40937393  0.83936960  0.32903839  1
  H+  H122  1  0.10909604  0.38055508  0.34382709  1
  H+  H123  1  0.63016926  0.39718959  0.49596291  1
  H+  H124  1  0.86453395  0.13211624  0.67093300  1
  H+  H125  1  0.22403923  0.84415292  0.99952330  1
  H+  H126  1  0.36287852  0.27508774  0.15627580  1
  H+  H127  1  0.36454497  0.39489529  0.99940008  1
  H+  H128  1  0.10297184  0.22473016  0.15612712  1
  H+  H129  1  0.64516029  0.29687933  0.66042608  1
  H+  H130  1  0.85741977  0.88119192  0.49565508  1
  H+  H131  1  0.88212458  0.85957662  0.66047615  1
  H+  H132  1  1.01699695  0.88718347  0.33692023  1
  H+  H133  1  0.83793485  0.02074130  1.01231079  1
  H+  H134  1  0.38685510  0.85940209  0.85740616  1
  H+  H135  1  0.53743818  0.17006739  0.66194725  1
  H+  H136  1  0.63406839  1.01720215  0.83735885  1
  H+  H137  1  0.36742725  -0.00632350  0.69577561  1
  H+  H138  1  0.62808601  0.86424696  0.83504240  1
  H+  H139  1  0.16340411  0.53854549  0.83537303  1
  H+  H140  1  0.51552244  0.05761337  0.78166138  1
  H+  H141  1  0.24925870  0.78282914  0.72051676  1
  H+  H142  1  0.88888100  0.26642206  0.50697398  1
  H+  H143  1  0.39733443  0.74707036  0.66496471  1
  H+  H144  1  0.38851990  0.03756019  0.50087983  1
  H+  H145  1  0.12004313  -0.01743902  0.82556410  1
  H+  H146  1  0.01564418  0.12649303  0.83106058  1
  H+  H147  1  0.10989377  0.47095628  0.16346083  1
  H+  H148  1  0.48486211  0.61152505  0.50493224  1
  H+  H149  1  0.91473550  0.62957892  0.66539462  1
  H+  H150  1  0.84706896  0.25476343  0.84789174  1
  H+  H151  1  0.90981363  0.84355508  0.78342406  1
  H+  H152  1  0.37530546  0.96984083  0.16215644  1
  H+  H153  1  0.64890110  0.27926733  0.50785938  1
  H+  H154  1  0.77296746  0.66620285  0.10356568  1
  H+  H155  1  0.86871740  0.63018360  0.34474096  1
  H+  H156  1  0.75556127  0.38019765  0.00246722  1
  H+  H157  1  0.69936347  0.09455992  0.92815797  1
  H+  H158  1  0.23537026  0.13514511  0.16761579  1
  H+  H159  1  0.01639705  0.12929243  0.67821017  1
  H+  H160  1  0.40536023  0.10338321  0.16005348  1
  H+  H161  1  0.97833451  0.87105808  0.16398737  1
  H+  H162  1  0.80414766  0.14812913  1.00002954  1
  H+  H163  1  0.71769331  0.85760326  0.98504502  1
  H+  H164  1  0.25493949  0.37708430  0.15069204  1
  H+  H165  1  0.38277147  0.27391644  0.30481953  1
  H+  H166  1  0.60046940  0.48007836  0.66396524  1
  H+  H167  1  0.85152509  0.97984739  0.34211531  1
  H+  H168  1  0.77274663  0.12700960  0.82317205  1
  H+  H169  1  0.38587501  0.71274028  0.34339420  1
  H+  H170  1  0.60848216  0.60354870  0.16712055  1
  H+  H171  1  0.71955834  0.36604486  0.17102017  1
  H+  H172  1  0.58867205  0.66205883  0.39488320  1
  H+  H173  1  0.13291759  0.77205269  0.84521032  1
  H+  H174  1  0.51754657  0.88420998  0.82870114  1
  H+  H175  1  0.01941916  0.39286449  0.00852070  1
  H+  H176  1  0.35237554  0.37999727  0.14855112  1
  H+  H177  1  0.62204845  0.22372149  -0.00205422  1
  H+  H178  1  0.23257776  0.86028132  0.17307199  1
  H+  H179  1  0.34622642  0.90854049  0.34530257  1
  H+  H180  1  0.34267229  0.90883365  0.10336094  1
  H+  H181  1  0.13026481  0.73826573  0.67943602  1
  H+  H182  1  0.37142160  0.47341006  0.33269221  1
  H+  H183  1  0.98595713  0.61071469  0.34018823  1
  H+  H184  1  0.62153502  0.16011152  0.66947205  1
  H+  H185  1  0.62430543  0.22424306  0.33936543  1
  H+  H186  1  0.15762742  0.40653252  0.81151667  1
  H+  H187  1  0.88112527  0.37108060  0.99552561  1
  H+  H188  1  0.52451567  0.64549788  0.15567014  1
  H+  H189  1  0.72758547  0.61345661  0.50712211  1
  H+  H190  1  0.13044015  0.11107895  0.83491181  1
  H+  H191  1  0.86549097  0.38347618  0.66682256  1
  H+  H192  1  0.90669760  0.52192320  0.18027079  1
  H+  H193  1  0.62716184  0.73352926  0.67282489  1
  H+  H194  1  0.16437084  0.32986601  0.88740246  1
  H+  H195  1  0.63797138  0.10625539  0.32423958  1
  H+  H196  1  0.90450326  0.17444119  0.00943911  1
  H+  H197  1  0.60667399  0.87102560  0.00637794  1
  H+  H198  1  0.59629444  0.16751651  0.09704648  1
  H+  H199  1  0.34891610  0.97333477  0.66465169  1
  H+  H200  1  0.84115778  0.16518048  0.73214585  1
  H+  H201  1  0.40200160  0.33294728  0.21602855  1
  H+  H202  1  0.14050779  0.61017930  0.16689705  1
  H+  H203  1  0.38590304  0.76720423  0.99856916  1
  H+  H204  1  0.13324329  0.02474727  0.33375753  1
  H+  H205  1  -0.00558727  0.86827963  0.81966889  1
  H+  H206  1  0.39449804  0.59976142  0.32915796  1
  H+  H207  1  0.63454284  0.39330293  0.83632191  1
  H+  H208  1  0.44539429  0.12135590  1.00064856  1
  H+  H209  1  0.35127228  0.38075392  0.80310147  1
  H+  H210  1  0.76830302  0.14086095  0.49408531  1
  H+  H211  1  0.98072993  0.87053649  0.50612944  1
  H+  H212  1  0.39242390  0.77185092  0.85247938  1
  H+  H213  1  0.35849086  0.63879945  -0.00175405  1
  H+  H214  1  0.87520386  1.01552766  0.84385098  1
  H+  H215  1  0.75787701  0.88356089  0.82865389  1
  H+  H216  1  0.24083456  0.70364906  0.28035522  1
  H+  H217  1  0.63963933  0.76925249  0.32078646  1
  H+  H218  1  0.88874018  0.11617842  0.33115648  1
  H+  H219  1  0.36614105  0.14881246  0.33472059  1
  H+  H220  1  0.21681467  0.89055680  0.64560391  1
  H+  H221  1  0.76762510  0.62947622  0.66933002  1
  H+  H222  1  0.40261633  0.15803350  0.64992974  1
  H+  H223  1  0.02787010  0.37855850  0.50322598  1
  H+  H224  1  0.88271110  0.64521633  0.98612990  1
  H+  H225  1  0.86412515  0.89203328  0.97685409  1
  H+  H226  1  0.61980273  0.22620745  0.15732496  1
  H+  H227  1  0.64161637  0.10899871  0.16830032  1
  H+  H228  1  0.22292261  0.35769896  0.31908845  1
  H+  H229  1  0.64157280  0.86567123  0.66245646  1
  H+  H230  1  0.73614823  0.35884935  0.33062234  1
  H+  H231  1  0.51924564  0.87191552  0.67093908  1
  H+  H232  1  0.50502354  0.85713136  0.32155575  1
  H+  H233  1  0.93176559  0.46116381  0.11095795  1
  H+  H234  1  0.73472144  0.38170619  0.65611981  1
  H+  H235  1  0.50346063  0.63552636  -0.00852868  1
  H+  H236  1  0.17579130  0.58921465  0.22672744  1
  H+  H237  1  0.10972838  0.71682448  1.00673351  1
  H+  H238  1  0.32606006  0.14990215  0.18442337  1
  H+  H239  1  0.14342897  0.12300277  0.50301489  1
  H+  H240  1  0.28421757  0.64540870  0.84076769  1
  H+  H241  1  0.86162034  0.13470636  0.16536536  1
  H+  H242  1  0.77026129  0.40263068  0.81843070  1
  H+  H243  1  0.13975325  0.36285291  0.51981589  1
  H+  H244  1  0.16894167  0.08914743  0.59713738  1
  H+  H245  1  0.49470855  0.11010277  0.16896465  1
  H+  H246  1  0.13313866  0.61115061  -0.00565248  1
  H+  H247  1  0.12621664  0.03567169  0.98694383  1
  H+  H248  1  0.89932118  0.27379559  0.66107599  1
  H+  H249  1  0.08278350  0.12386918  1.00758479  1
  H+  H250  1  0.21643136  0.87287623  0.32869269  1
  H+  H251  1  0.02495625  0.63431789  0.82525551  1
  H+  H252  1  0.68100165  0.12749221  0.98970819  1
  H+  H253  1  0.61778675  0.85386258  0.50501777  1
  H+  H254  1  0.96853201  0.37286162  0.79944818  1
  H+  H255  1  0.88555776  0.02240272  0.66412638  1
  H+  H256  1  0.16358336  0.82219481  0.94162836  1
  H+  H257  1  0.11062451  0.13900515  0.34508481  1
  H+  H258  1  0.62301612  0.47345807  0.34257642  1
  H+  H259  1  0.88507752  0.26848516  0.17759601  1
  H+  H260  1  0.73553224  0.61229698  0.32358051  1
  H+  H261  1  0.26839178  0.88045825  0.84936326  1
  H+  H262  1  0.11421699  0.73185809  0.34317974  1
  H+  H263  1  0.88752419  0.78594365  0.16052812  1
  H+  H264  1  1.03545597  0.63977898  0.16314067  1
  H+  H265  1  0.89668078  0.78321250  0.96518235  1
  H+  H266  1  0.62868087  0.11088989  0.50746342  1
  H+  H267  1  0.39536117  0.61042575  0.17038235  1
  H+  H268  1  0.17063240  0.34982991  0.66277906  1
  H+  H269  1  0.36774009  0.63424539  0.49561753  1
  H+  H270  1  0.35318023  0.13787086  0.82458694  1
  H+  H271  1  0.88874375  0.51601539  0.83026134  1
  H+  H272  1  0.34970494  0.39707157  0.38115437  1
  H+  H273  1  0.55835436  0.77180859  0.54452381  1
  H+  H274  1  0.61744428  0.62895446  0.48983222  1
  H+  H275  1  0.84097694  0.17046487  0.10402513  1
  H+  H276  1  0.14180645  0.77402032  0.16909948  1
  H+  H277  1  0.36046813  0.89236211  0.49484495  1
  H+  H278  1  0.79518874  0.63749891  0.16441703  1
  H+  H279  1  0.37631283  0.28156733  0.98908280  1
  H+  H280  1  0.84661614  0.88361836  0.83427077  1
  H+  H281  1  0.95846232  0.59709227  0.62022848  1
  H+  H282  1  0.62544494  0.88180697  0.32969357  1
  H+  H283  1  0.12947740  0.65309488  0.34117075  1
  H+  H284  1  0.86317651  0.13283722  0.83168297  1
  H+  H285  1  0.62127362  0.63440331  0.33614534  1
  H+  H286  1  0.87788083  1.02393010  0.17622179  1
  H+  H287  1  0.81916390  0.41612757  0.06042877  1
  H+  H288  1  0.41126111  0.07614755  0.64499105  1
  H+  H289  1  0.12684265  0.89245119  0.16057805  1
  H+  H290  1  0.92838121  0.57715982  0.28079912  1
  H+  H291  1  0.91531194  0.08464983  0.27159051  1
  H+  H292  1  0.66397443  0.58242267  0.59735312  1
  H+  H293  1  0.27039651  0.64077590  1.00293681  1
  H+  H294  1  0.66799104  0.58042960  0.26702842  1
  H+  H295  1  0.91847127  0.82996994  0.26440594  1
  H+  H296  1  0.32136755  0.41437606  0.08606273  1
  H+  H297  1  0.83623558  0.66469732  0.39923689  1
  H+  H298  1  0.60601757  0.92127479  0.42609117  1
  H+  H299  1  0.11085125  0.39611214  0.00514718  1
  H+  H300  1  0.07106010  0.15363157  0.76775453  1
  H+  H301  1  0.55145531  0.53102538  0.21174906  1
  H+  H302  1  0.61639821  0.88402578  0.16085970  1
  H+  H303  1  0.92091363  0.33239011  0.27525329  1
  H+  H304  1  0.56552905  0.15206035  0.75863360  1
  H+  H305  1  1.02134966  0.13894756  0.34204162  1
  H+  H306  1  0.16870734  0.58332196  0.90068282  1
  H+  H307  1  0.16491066  0.83475570  0.26599651  1
  H+  H308  1  0.43615309  0.83493777  0.23405890  1
  H+  H309  1  0.43118177  0.58680346  0.22975131  1
  H+  H310  1  0.05757230  0.90991972  0.04587047  1
  H+  H311  1  0.22561586  0.11768141  0.65742281  1
  H+  H312  1  0.42367548  0.11052252  0.55314302  1
  H+  H313  1  0.33516107  0.17984526  0.72830224  1
  H+  H314  1  0.45802365  0.10557687  0.84446054  1
  H+  H315  1  0.43115059  0.59080114  0.60708274  1
  H+  H316  1  0.81692798  0.91821060  0.40005027  1
  H+  H317  1  0.87162825  0.73362870  0.49649468  1
  H+  H318  1  0.10620346  0.13137488  0.67757432  1
  H+  H319  1  0.33810445  0.13814876  0.01049634  1
  H+  H320  1  0.59401301  0.67285741  0.73256895  1
  H+  H321  1  0.08580846  0.17453494  0.43560877  1
  H+  H322  1  0.29750179  0.39246304  0.70985713  1
  H+  H323  1  0.85590276  0.71945217  0.67159024  1
  H+  H324  1  0.87550462  0.31776418  0.90534674  1
  H+  H325  1  0.40333143  0.33901721  0.56623363  1
  H+  H326  1  0.46664052  0.36659283  0.83231437  1
  H+  H327  1  0.10785475  0.98239264  0.66987376  1
  H+  H328  1  0.89448846  0.02150552  0.51253228  1
  H+  H329  1  0.15730445  0.08667000  0.27643772  1
  H+  H330  1  0.56818437  0.41768021  0.75420598  1
  H+  H331  1  0.42427823  0.09008727  0.26789587  1
  H+  H332  1  0.17937021  0.58479521  0.57534558  1
  H+  H333  1  0.57323132  0.91007786  0.76575932  1
  H+  H334  1  0.40894623  0.33841316  0.92781529  1
  H+  H335  1  0.88028976  0.69570233  0.04421083  1
  H+  H336  1  0.66347997  0.83301312  0.60154383  1
  H+  H337  1  0.32545700  0.93413894  0.40900095  1
  H+  H338  1  0.70699937  0.69861307  1.03847799  1
  H+  H339  1  0.09553675  0.92622237  0.76382898  1
  H+  H340  1  0.67494287  0.33072191  0.27139665  1
  H+  H341  1  0.82884894  0.91378195  0.73445968  1
  H+  H342  1  0.91851901  0.83908358  0.90447186  1
  H+  H343  1  0.57553936  0.67222387  0.09210139  1
  H+  H344  1  0.89081927  0.28712795  1.00049629  1
  H+  H345  1  0.91673876  0.57526786  0.92299097  1
  H+  H346  1  0.33836774  0.65362518  0.40195340  1
  H+  H347  1  0.35057209  0.65642374  0.74350532  1
  H+  H348  1  0.59733181  0.42297175  0.43696306  1
  H+  H349  1  0.92028073  0.83652223  0.56570573  1
  H+  H350  1  0.31142445  0.17144315  0.06889783  1
  H+  H351  1  0.11698081  0.02475601  0.18399143  1
  H+  H352  1  0.15876331  0.84303723  0.58976856  1
  H+  H353  1  0.89471285  0.35780257  0.50930060  1
  H+  H354  1  0.57447477  0.40058164  0.06062807  1
  H+  H355  1  0.66628356  0.58114147  0.88917184  1
  H+  H356  1  0.31343611  0.87932693  0.70149451  1
  H+  H357  1  0.62206566  -0.02827544  0.33002567  1
  H+  H358  1  0.18339173  0.33285133  0.57426464  1
  H+  H359  1  0.07841713  0.41255049  0.10348132  1
  H+  H360  1  0.82657201  0.65373558  0.75958868  1
  H+  H361  1  0.90000816  0.05856553  0.90792328  1
  H+  H362  1  0.59301306  0.16996860  0.43296883  1
  H+  H363  1  0.32642323  0.88787103  0.79386618  1
  H+  H364  1  0.63916866  0.61642595  0.65804833  1
  H+  H365  1  0.11960162  0.41786553  0.71265580  1
  H+  H366  1  0.39547076  0.08260796  0.93851761  1
  H+  H367  1  0.10126414  0.67487104  0.43913427  1
  H+  H368  1  0.06019571  0.15360351  0.10161318  1
  H+  H369  1  0.66830743  0.07879842  0.26343794  1
  H+  H370  1  0.71013637  0.44890882  0.88051911  1
  H+  H371  1  0.65564250  0.07769474  0.56604142  1
  H+  H372  1  0.82738507  0.16799555  0.43499464  1
  H+  H373  1  0.08405034  0.66438739  0.09843069  1
  H+  H374  1  0.11981698  0.69197602  0.74371767  1
  H+  H375  1  0.27547278  0.89898279  0.49550303  1
  H+  H376  1  0.83429735  0.41292521  0.72447095  1
  H+  H377  1  0.57763859  0.90267629  0.07031115  1
  H+  H378  1  0.16743490  0.33118477  0.22677157  1
  H+  H379  1  0.34139837  0.18839767  0.42521869  1
  H+  H380  1  0.92021994  0.08092388  0.60379893  1
  H+  H381  1  0.92997128  0.32977225  0.60100840  1
  H+  H382  1  0.65514467  0.83288240  0.89516962  1
  H+  H383  1  0.58735435  0.62692183  -0.00289138  1
  O2-  O384  1  0.06836945  0.16215585  0.14719962  1
  O2-  O385  1  0.08962851  0.17092066  0.48080064  1
  O2-  O386  1  0.07472214  0.15632213  0.81455618  1
  O2-  O387  1  0.07880423  0.40966698  0.14905969  1
  O2-  O388  1  0.09001683  0.40913315  0.49016870  1
  O2-  O389  1  0.17004958  0.46204857  0.79192053  1
  O2-  O390  1  0.09305585  0.67029519  0.14394883  1
  O2-  O391  1  0.10750140  0.68005718  0.48420419  1
  O2-  O392  1  0.08775904  0.67070827  0.81649441  1
  O2-  O393  1  0.10274969  0.92868421  0.14464835  1
  O2-  O394  1  0.08576772  0.92407356  0.47715223  1
  O2-  O395  1  0.09359648  0.92203276  0.80946081  1
  O2-  O396  1  0.29724578  0.16283757  0.15207884  1
  O2-  O397  1  0.34287540  0.18927755  0.47110934  1
  O2-  O398  1  0.32735863  0.17031151  0.80663290  1
  O2-  O399  1  0.31679320  0.40740842  0.13286199  1
  O2-  O400  1  0.32389766  0.42437113  0.48532063  1
  O2-  O401  1  0.31199305  0.39612841  0.78244971  1
  O2-  O402  1  0.33602125  0.65076559  0.14274359  1
  O2-  O403  1  0.33206126  0.65638561  0.47667111  1
  O2-  O404  1  0.34688113  0.67168705  0.83120936  1
  O2-  O405  1  0.34461490  0.90831407  0.14943501  1
  O2-  O406  1  0.33614188  0.92910294  0.47988845  1
  O2-  O407  1  0.33067640  0.90985045  0.83623872  1
  O2-  O408  1  0.59224931  0.16560887  0.14232415  1
  O2-  O409  1  0.58970244  0.17108531  0.47837326  1
  O2-  O410  1  0.54753985  0.11639039  0.79688538  1
  O2-  O411  1  0.57209080  0.40136586  0.14247041  1
  O2-  O412  1  0.59958014  0.42737174  0.48257492  1
  O2-  O413  1  0.56920048  0.41904087  0.80000866  1
  O2-  O414  1  0.58505841  0.67620377  0.13658079  1
  O2-  O415  1  0.58474991  0.65637277  0.47207908  1
  O2-  O416  1  0.58264017  0.66989645  0.80374174  1
  O2-  O417  1  0.58456778  0.91454827  0.14410324  1
  O2-  O418  1  0.61117603  0.92131929  0.47085268  1
  O2-  O419  1  0.57703114  0.91585058  0.81109929  1
  O2-  O420  1  0.83257651  0.16690971  0.14885726  1
  O2-  O421  1  0.82807705  0.17420267  0.47980394  1
  O2-  O422  1  0.83424020  0.16065415  0.81090945  1
  O2-  O423  1  0.88040997  0.43465330  0.13648533  1
  O2-  O424  1  0.84657026  0.41539047  0.48570191  1
  O2-  O425  1  0.82872845  0.41739045  0.80541108  1
  O2-  O426  1  0.82213906  0.67812603  0.13116878  1
  O2-  O427  1  0.83973705  0.67239461  0.48143101  1
  O2-  O428  1  0.82884931  0.65336291  0.80613570  1
  O2-  O429  1  0.83440707  0.93136185  0.14634045  1
  O2-  O430  1  0.82730021  0.91219072  0.48177861  1
  O2-  O431  1  0.82047116  0.91411399  0.81508929  1
  O2-  O432  1  0.14326883  0.08508776  0.19773869  1
  O2-  O433  1  0.17443777  0.09248282  0.51758523  1
  O2-  O434  1  0.16518317  0.08463675  0.85008448  1
  O2-  O435  1  0.16682642  0.33209405  0.18075306  1
  O2-  O436  1  0.17445611  0.33382832  0.52914163  1
  O2-  O437  1  0.15977886  0.32186787  0.84289118  1
  O2-  O438  1  0.16507829  0.57501815  0.18286202  1
  O2-  O439  1  0.17511274  0.57850835  0.52904178  1
  O2-  O440  1  0.17572332  0.59323114  0.85579171  1
  O2-  O441  1  0.17154433  0.83420736  0.18575087  1
  O2-  O442  1  0.17132496  0.84478752  0.51673319  1
  O2-  O443  1  0.16399011  0.83192820  0.86210971  1
  O2-  O444  1  0.43280348  0.07781851  0.18358849  1
  O2-  O445  1  0.41950125  0.10096258  0.50835408  1
  O2-  O446  1  0.39983703  0.07969096  0.86243998  1
  O2-  O447  1  0.40033973  0.33601703  0.16833306  1
  O2-  O448  1  0.40190782  0.33847333  0.51793518  1
  O2-  O449  1  0.40768680  0.33676915  0.85003505  1
  O2-  O450  1  0.43558693  0.59072197  0.18497579  1
  O2-  O451  1  0.42776659  0.59106501  0.52499523  1
  O2-  O452  1  0.39473484  0.57894454  0.90865772  1
  O2-  O453  1  0.43730847  0.84413606  0.18823004  1
  O2-  O454  1  0.39029636  0.82483953  0.52294037  1
  O2-  O455  1  0.42357672  0.83369886  0.86721908  1
  O2-  O456  1  0.66811380  0.07511682  0.18298480  1
  O2-  O457  1  0.65690095  0.07780752  0.52176822  1
  O2-  O458  1  0.66856532  0.07888701  0.85031123  1
  O2-  O459  1  0.66146938  0.32959747  0.18636060  1
  O2-  O460  1  0.68207272  0.34006351  0.52128438  1
  O2-  O461  1  0.68020065  0.39187397  0.86228989  1
  O2-  O462  1  0.60753591  0.55584667  0.19198854  1
  O2-  O463  1  0.66678736  0.58264173  0.52013162  1
  O2-  O464  1  0.66697408  0.58261559  0.84497201  1
  O2-  O465  1  0.66236251  0.83660669  0.18242328  1
  O2-  O466  1  0.61763386  0.80467580  0.53039246  1
  O2-  O467  1  0.65979764  0.83513654  0.85005241  1
  O2-  O468  1  0.90660948  0.08494674  0.19330038  1
  O2-  O469  1  0.92869145  0.07665611  0.53373581  1
  O2-  O470  1  0.90698348  0.07277115  0.86425053  1
  O2-  O471  1  0.91649767  0.32946545  0.19263894  1
  O2-  O472  1  0.92495488  0.32730921  0.52361328  1
  O2-  O473  1  0.83889522  0.29903007  0.86868217  1
  O2-  O474  1  0.93346090  0.58002187  0.20014645  1
  O2-  O475  1  0.97279733  0.55020928  0.54143747  1
  O2-  O476  1  0.91893032  0.57662412  0.84704503  1
  O2-  O477  1  0.91930024  0.84355863  0.17952544  1
  O2-  O478  1  0.91972518  0.83651013  0.52014779  1
  O2-  O479  1  0.92832889  0.83372107  0.82285909  1
  O2-  O480  1  0.16583765  0.08701146  0.32114451  1
  O2-  O481  1  0.16560033  0.08452622  0.64246167  1
  O2-  O482  1  0.15343243  0.09690417  0.97290348  1
  O2-  O483  1  0.16344861  0.32911190  0.30315021  1
  O2-  O484  1  0.20986474  0.32797270  0.64699967  1
  O2-  O485  1  0.18707292  0.38754003  0.95953616  1
  O2-  O486  1  0.20948007  0.64604158  0.29757730  1
  O2-  O487  1  0.18388727  0.59145895  0.64809435  1
  O2-  O488  1  0.16576170  0.58282110  0.97936549  1
  O2-  O489  1  0.15887889  0.83377696  0.31116759  1
  O2-  O490  1  0.15806059  0.84736290  0.63571661  1
  O2-  O491  1  0.16372824  0.81285361  0.98614054  1
  O2-  O492  1  0.42302878  0.09742550  0.31236514  1
  O2-  O493  1  0.43892021  0.13555924  0.63022184  1
  O2-  O494  1  0.38935648  0.07970998  0.98436840  1
  O2-  O495  1  0.40759792  0.32934462  0.28242411  1
  O2-  O496  1  0.40452302  0.34119706  0.63201539  1
  O2-  O497  1  0.41060354  0.34115082  0.97360635  1
  O2-  O498  1  0.42454214  0.57031694  0.31233267  1
  O2-  O499  1  0.43178862  0.58702895  0.65187458  1
  O2-  O500  1  0.40424182  0.58620889  0.96995323  1
  O2-  O501  1  0.44142320  0.81892596  0.30566245  1
  O2-  O502  1  0.41993237  0.80827596  0.65039742  1
  O2-  O503  1  0.42363760  0.83098711  0.98662889  1
  O2-  O504  1  0.66792489  0.07576697  0.30866405  1
  O2-  O505  1  0.67063964  0.09053587  0.67236485  1
  O2-  O506  1  0.71147996  0.09964453  0.97251753  1
  O2-  O507  1  0.67498468  0.32668476  0.31612801  1
  O2-  O508  1  0.67244905  0.35521301  0.64256878  1
  O2-  O509  1  0.65407495  0.31938146  0.97584720  1
  O2-  O510  1  0.67345047  0.58316280  0.31165989  1
  O2-  O511  1  0.66411191  0.58051002  0.64298561  1
  O2-  O512  1  0.70683355  0.64443283  1.04063038  1
  O2-  O513  1  0.66661263  0.82844269  0.30362265  1
  O2-  O514  1  0.67521517  0.83959426  0.64616633  1
  O2-  O515  1  0.65531715  0.83012766  0.97457990  1
  O2-  O516  1  0.91968234  0.08589800  0.31689757  1
  O2-  O517  1  0.91443645  0.08295311  0.64997985  1
  O2-  O518  1  0.87268622  0.00545427  0.98634949  1
  O2-  O519  1  0.91822628  0.33057736  0.32027154  1
  O2-  O520  1  0.93420104  0.33383332  0.64645072  1
  O2-  O521  1  0.91721052  0.34610781  0.98293225  1
  O2-  O522  1  0.92500157  0.57793015  0.32575069  1
  O2-  O523  1  0.97004390  0.63365574  0.65604678  1
  O2-  O524  1  0.91512826  0.57876031  0.96876015  1
  O2-  O525  1  0.92409212  0.82910862  0.30892987  1
  O2-  O526  1  0.91187863  0.82887555  0.64495996  1
  O2-  O527  1  0.91631515  0.84224286  0.94912394  1
  O2-  O528  1  0.03829869  0.13173331  0.02909949  1
  O2-  O529  1  0.08257698  0.17271525  0.35683896  1
  O2-  O530  1  0.07408127  0.15563769  0.69781449  1
  O2-  O531  1  0.07866015  0.42005473  0.02657342  1
  O2-  O532  1  0.07695942  0.40655279  0.36161762  1
  O2-  O533  1  0.10606398  0.38423558  0.67498551  1
  O2-  O534  1  0.07692660  0.65505381  0.02274659  1
  O2-  O535  1  0.09206851  0.67277625  0.35996918  1
  O2-  O536  1  0.15533917  0.71215069  0.70567169  1
  O2-  O537  1  0.07260551  0.93166025  0.00457280  1
  O2-  O538  1  0.07834385  0.92076753  0.35333331  1
  O2-  O539  1  0.07698830  0.92269204  0.68724664  1
  O2-  O540  1  0.31563571  0.17578419  0.02412665  1
  O2-  O541  1  0.33565489  0.17907043  0.34888837  1
  O2-  O542  1  0.33629984  0.18126412  0.68267779  1
  O2-  O543  1  0.33390144  0.42420689  0.01712638  1
  O2-  O544  1  0.33329143  0.40932894  0.34189752  1
  O2-  O545  1  0.29656239  0.39589646  0.66341052  1
  O2-  O546  1  0.33189831  0.67153603  0.01650109  1
  O2-  O547  1  0.34348492  0.65357818  0.35594383  1
  O2-  O548  1  0.34636801  0.65279068  0.69879882  1
  O2-  O549  1  0.33748889  0.91121395  0.02836020  1
  O2-  O550  1  0.31908160  0.93856891  0.36281036  1
  O2-  O551  1  0.31091570  0.83320279  0.72648599  1
  O2-  O552  1  0.60675027  0.16659353  0.01810020  1
  O2-  O553  1  0.59217887  0.16298125  0.35407253  1
  O2-  O554  1  0.59146650  0.18934153  0.68589468  1
  O2-  O555  1  0.57699309  0.39829486  0.01568760  1
  O2-  O556  1  0.59445064  0.41595599  0.36139606  1
  O2-  O557  1  0.56588975  0.41774232  0.67673199  1
  O2-  O558  1  0.56475964  0.66453112  0.00798792  1
  O2-  O559  1  0.58803926  0.66277837  0.34927332  1
  O2-  O560  1  0.59808277  0.67265803  0.68630652  1
  O2-  O561  1  0.57193662  0.89696245  0.02439595  1
  O2-  O562  1  0.59275572  0.91086197  0.34520382  1
  O2-  O563  1  0.57976287  0.90745867  0.68782108  1
  O2-  O564  1  0.85927664  0.18428449  0.02463251  1
  O2-  O565  1  0.83343461  0.16353481  0.35483326  1
  O2-  O566  1  0.83518531  0.16398831  0.68689040  1
  O2-  O567  1  0.81722399  0.41577696  0.01572994  1
  O2-  O568  1  0.83617388  0.41022468  0.36191264  1
  O2-  O569  1  0.83134472  0.41013231  0.67945391  1
  O2-  O570  1  0.86512667  0.68767586  0.00099352  1
  O2-  O571  1  0.83650168  0.66063292  0.35421141  1
  O2-  O572  1  0.82660160  0.65973551  0.68762860  1
  O2-  O573  1  0.82683244  0.91194436  -0.00299814  1
  O2-  O574  1  0.81125280  0.92013071  0.35553611  1
  O2-  O575  1  0.83527815  0.91436972  0.68958098  1
