# generated using pymatgen
data_H2O
_symmetry_space_group_name_H-M   'P 1'
_cell_length_a   17.99062079
_cell_length_b   17.99285675
_cell_length_c   22.00396480
_cell_angle_alpha   89.99260257
_cell_angle_beta   90.00690071
_cell_angle_gamma   120.01052498
_symmetry_Int_Tables_number   1
_chemical_formula_structural   H2O
_chemical_formula_sum   'H384 O192'
_cell_volume   6167.82113584
_cell_formula_units_Z   192
loop_
 _symmetry_equiv_pos_site_id
 _symmetry_equiv_pos_as_xyz
  1  'x, y, z'
loop_
 _atom_type_symbol
 _atom_type_oxidation_number
  H+  1.0
  O2-  -2.0
loop_
 _atom_site_type_symbol
 _atom_site_label
 _atom_site_symmetry_multiplicity
 _atom_site_fract_x
 _atom_site_fract_y
 _atom_site_fract_z
 _atom_site_occupancy
  H+  H0  1  0.61222057  0.22878410  0.49754701  1
  H+  H1  1  0.84592254  0.13562885  -0.00159948  1
  H+  H2  1  0.88019691  0.85158783  1.00054076  1
  H+  H3  1  0.26297225  0.36931429  0.49137868  1
  H+  H4  1  0.61271493  0.72538448  0.48276866  1
  H+  H5  1  0.52804276  0.13338921  0.34542100  1
  H+  H6  1  0.72577251  0.36580212  0.50902437  1
  H+  H7  1  0.10586236  0.37650550  0.16265304  1
  H+  H8  1  0.11407826  0.72464666  0.17181287  1
  H+  H9  1  0.12981324  0.26443764  0.50599494  1
  H+  H10  1  0.57764227  0.66044667  0.39513055  1
  H+  H11  1  0.85703460  0.45697768  0.81995899  1
  H+  H12  1  0.63113364  0.27656393  0.15705441  1
  H+  H13  1  0.35682723  0.73436513  0.34202181  1
  H+  H14  1  0.65817404  0.77380572  0.98761298  1
  H+  H15  1  0.11232443  0.62363298  0.01065594  1
  H+  H16  1  0.35017340  0.72485944  0.49455064  1
  H+  H17  1  0.87220449  0.35094551  0.64922162  1
  H+  H18  1  0.84827671  0.25054390  0.31725778  1
  H+  H19  1  0.60652942  0.63278427  0.48376251  1
  H+  H20  1  0.99138343  0.65462122  1.01346938  1
  H+  H21  1  0.12808872  0.60436999  0.65631725  1
  H+  H22  1  0.11108733  0.38261900  0.50266861  1
  H+  H23  1  0.10738558  0.97456699  0.03303644  1
  H+  H24  1  0.60405026  0.63241996  0.67377732  1
  H+  H25  1  0.75249856  0.85654807  0.98400910  1
  H+  H26  1  0.11440189  0.90342697  0.33267058  1
  H+  H27  1  0.40474093  0.10181877  0.90200228  1
  H+  H28  1  0.92317035  0.33550960  0.89396882  1
  H+  H29  1  0.11884298  0.73101662  0.81701289  1
  H+  H30  1  0.10001022  0.46298359  0.16446182  1
  H+  H31  1  0.65109720  1.03374671  0.49962428  1
  H+  H32  1  0.47614529  0.62615038  0.50635932  1
  H+  H33  1  0.72743592  0.60356650  0.84712082  1
  H+  H34  1  0.37514642  0.39531153  0.34686100  1
  H+  H35  1  0.10985307  0.22179845  1.00986326  1
  H+  H36  1  0.01982011  0.13016915  0.49115048  1
  H+  H37  1  0.62308226  1.01833466  0.67518107  1
  H+  H38  1  0.86797973  0.98335213  0.34521816  1
  H+  H39  1  0.39384845  0.10531583  0.32899416  1
  H+  H40  1  0.11338238  0.89008252  1.03879082  1
  H+  H41  1  0.60003638  0.13296215  0.16358736  1
  H+  H42  1  0.85109941  0.60267075  -0.00848906  1
  H+  H43  1  0.13261868  0.02009442  0.50227146  1
  H+  H44  1  0.01891374  0.13311638  0.00658510  1
  H+  H45  1  -0.04007239  0.85973709  0.17840503  1
  H+  H46  1  0.62079465  1.02338500  0.18333203  1
  H+  H47  1  0.52198502  0.87487653  0.83201804  1
  H+  H48  1  0.36896710  0.63168440  0.84064433  1
  H+  H49  1  0.38342576  0.51301969  0.16990865  1
  H+  H50  1  0.14316683  0.12510162  0.32345794  1
  H+  H51  1  0.22263859  0.62527973  0.32946701  1
  H+  H52  1  0.63033354  0.33620232  0.84053326  1
  H+  H53  1  0.60892407  0.48469986  0.49876401  1
  H+  H54  1  0.65860529  0.32530049  0.60330190  1
  H+  H55  1  0.91130922  0.08503278  0.92809349  1
  H+  H56  1  0.89471786  0.37253612  -0.01386331  1
  H+  H57  1  0.21785250  0.61014762  0.50751020  1
  H+  H58  1  0.52984276  0.88947386  0.01755284  1
  H+  H59  1  0.38061597  0.59918948  0.18587315  1
  H+  H60  1  0.35982530  0.16380412  0.82537064  1
  H+  H61  1  0.85661500  0.21157145  0.15023231  1
  H+  H62  1  0.88273735  0.60607513  0.66675848  1
  H+  H63  1  0.77074714  0.88387685  0.15369275  1
  H+  H64  1  0.86653414  0.11071677  0.83954211  1
  H+  H65  1  0.61008659  0.63162271  0.00817386  1
  H+  H66  1  0.35227141  0.71997177  0.20386101  1
  H+  H67  1  0.88898142  0.11567258  0.50159711  1
  H+  H68  1  0.46891139  0.61375427  0.66572877  1
  H+  H69  1  0.52615471  0.89044116  0.17524200  1
  H+  H70  1  0.84794229  0.63397724  0.49528334  1
  H+  H71  1  0.60961940  0.62338108  0.33469003  1
  H+  H72  1  0.86076763  0.47646684  0.49638588  1
  H+  H73  1  0.86162459  0.12590038  0.15602941  1
  H+  H74  1  0.36115531  0.22143292  0.66643470  1
  H+  H75  1  -0.02354966  0.36448479  0.50207397  1
  H+  H76  1  0.37965275  0.01728426  0.64980815  1
  H+  H77  1  0.27049163  0.13420941  0.49271368  1
  H+  H78  1  0.26829662  0.87708175  0.33957735  1
  H+  H79  1  0.85186456  0.71480460  0.16395342  1
  H+  H80  1  0.71850298  0.60512752  0.17523559  1
  H+  H81  1  0.63807748  0.11330079  0.33923287  1
  H+  H82  1  -0.03168614  0.60199811  0.17546398  1
  H+  H83  1  0.56542710  0.16199078  0.83063288  1
  H+  H84  1  0.72217197  0.86089539  0.66100673  1
  H+  H85  1  0.63810153  0.86258036  0.50680994  1
  H+  H86  1  0.13058563  0.46425970  1.00392875  1
  H+  H87  1  0.10754385  0.12602868  0.66714737  1
  H+  H88  1  0.90707877  0.82010808  0.60879188  1
  H+  H89  1  0.35428992  0.37241772  0.49262738  1
  H+  H90  1  0.02311684  0.89673345  0.33695129  1
  H+  H91  1  0.38373842  0.76085903  0.84751914  1
  H+  H92  1  0.13757011  0.35272455  0.99784903  1
  H+  H93  1  0.71011312  0.32461612  0.84255778  1
  H+  H94  1  0.87186283  0.23045765  0.48506788  1
  H+  H95  1  0.61757107  0.63971500  0.82705749  1
  H+  H96  1  0.12735111  0.11985232  0.81127341  1
  H+  H97  1  0.60761083  0.47287916  0.15489215  1
  H+  H98  1  0.42276136  0.80519953  0.15115476  1
  H+  H99  1  0.52557447  0.88794186  0.34556842  1
  H+  H100  1  0.09825503  0.22677989  0.81711486  1
  H+  H101  1  0.22336178  0.13360418  0.81035938  1
  H+  H102  1  0.36459217  0.47732157  0.67276613  1
  H+  H103  1  0.89096408  0.87496020  0.32711762  1
  H+  H104  1  0.38662672  0.84922407  0.83003382  1
  H+  H105  1  0.62111112  0.35529257  0.34128222  1
  H+  H106  1  0.87816582  0.59819800  0.17206865  1
  H+  H107  1  0.48542799  0.36350269  0.16385685  1
  H+  H108  1  0.08377014  0.16108198  0.39764932  1
  H+  H109  1  0.11736481  0.60093670  0.17725520  1
  H+  H110  1  0.57226038  0.42079089  0.40714205  1
  H+  H111  1  0.96858107  0.61294942  0.50318558  1
  H+  H112  1  0.43345448  0.99622685  0.80704160  1
  H+  H113  1  0.61180998  0.63420567  0.16169975  1
  H+  H114  1  0.37323812  0.21758909  0.33744728  1
  H+  H115  1  0.62252571  0.27010132  0.66682585  1
  H+  H116  1  0.16459797  0.07757688  0.56257451  1
  H+  H117  1  0.38062880  0.28010966  0.82607616  1
  H+  H118  1  0.87100611  0.26238358  0.65115248  1
  H+  H119  1  0.64809863  0.12102530  0.49978582  1
  H+  H120  1  0.04144466  1.00176784  0.15132214  1
  H+  H121  1  0.47956399  0.85817223  0.66675892  1
  H+  H122  1  0.76530276  0.38044882  0.67072073  1
  H+  H123  1  0.36416083  0.47743438  0.83065359  1
  H+  H124  1  0.65151577  0.56763918  0.59900742  1
  H+  H125  1  0.61273855  0.38463005  0.14890683  1
  H+  H126  1  0.37361732  0.97190437  0.16514378  1
  H+  H127  1  0.75430795  0.12518984  0.83256359  1
  H+  H128  1  0.36751011  0.47576285  1.00330656  1
  H+  H129  1  0.52332946  0.63392102  0.16040345  1
  H+  H130  1  0.63824406  0.86487253  0.17731862  1
  H+  H131  1  0.91131836  0.83704392  0.26793826  1
  H+  H132  1  0.36650096  0.97333051  0.01321537  1
  H+  H133  1  0.38795181  0.11607920  0.50365275  1
  H+  H134  1  0.11290515  0.21768894  0.66437556  1
  H+  H135  1  0.71478146  0.35021649  0.99372963  1
  H+  H136  1  0.23491243  0.85607288  0.18267157  1
  H+  H137  1  0.63338025  0.77171499  0.66130813  1
  H+  H138  1  0.22317040  0.10408025  0.65817734  1
  H+  H139  1  0.11143599  0.85191710  0.51189592  1
  H+  H140  1  0.83631645  0.16630673  0.39424267  1
  H+  H141  1  0.27783947  0.14570002  1.02459815  1
  H+  H142  1  0.88243760  0.01296230  0.17331763  1
  H+  H143  1  -0.02984981  0.62649922  0.33821572  1
  H+  H144  1  0.23217407  0.35320118  0.65770624  1
  H+  H145  1  0.11227961  0.72249202  0.66633514  1
  H+  H146  1  0.22419963  0.85542930  0.65617783  1
  H+  H147  1  0.86275967  0.38732700  0.49451818  1
  H+  H148  1  0.51018503  0.38489021  0.34905109  1
  H+  H149  1  0.84460816  0.57169413  0.92472015  1
  H+  H150  1  0.61128903  0.87441959  0.83086448  1
  H+  H151  1  0.96316188  0.35059944  0.16822938  1
  H+  H152  1  0.97217802  0.10160048  0.17595985  1
  H+  H153  1  0.26721678  0.63277458  0.66323145  1
  H+  H154  1  0.15231938  0.82308117  0.60213396  1
  H+  H155  1  0.90913257  0.32678862  0.55848572  1
  H+  H156  1  0.60609047  0.37712260  0.00196157  1
  H+  H157  1  0.85382976  0.71195785  0.69121786  1
  H+  H158  1  0.58358830  0.92204804  0.11374402  1
  H+  H159  1  0.85774578  0.87976127  0.67558433  1
  H+  H160  1  0.52331921  0.39254222  0.49925339  1
  H+  H161  1  0.10304855  0.63289380  0.48937897  1
  H+  H162  1  0.01488320  0.88708629  0.49244917  1
  H+  H163  1  0.84063154  0.46566520  -0.00333239  1
  H+  H164  1  0.10849626  0.64161465  0.34082637  1
  H+  H165  1  0.38556982  0.87576062  0.48879674  1
  H+  H166  1  0.36762941  0.38712872  0.99957025  1
  H+  H167  1  0.85507449  0.13156197  0.67507351  1
  H+  H168  1  0.38928454  0.27496998  -0.01670660  1
  H+  H169  1  0.37757156  0.37443392  0.83578000  1
  H+  H170  1  0.40183826  0.07753917  0.83224651  1
  H+  H171  1  0.85528207  0.38043572  0.14693207  1
  H+  H172  1  0.90291056  0.95621436  0.00841644  1
  H+  H173  1  0.88296539  0.59420182  0.83575591  1
  H+  H174  1  0.11121236  0.87718669  0.67298456  1
  H+  H175  1  0.63309206  0.02105811  0.33776330  1
  H+  H176  1  0.38968858  0.51664181  0.33050530  1
  H+  H177  1  0.69315934  0.46155959  0.79877717  1
  H+  H178  1  0.07671492  0.74181463  1.02768022  1
  H+  H179  1  0.86243020  0.97710745  0.49757556  1
  H+  H180  1  0.77305733  0.88691821  0.49716281  1
  H+  H181  1  0.50866152  0.61674326  0.33281374  1
  H+  H182  1  0.76673416  0.12536092  0.33987197  1
  H+  H183  1  0.36001310  0.13107446  0.66880437  1
  H+  H184  1  0.88281903  0.53665357  0.33849455  1
  H+  H185  1  0.85830066  0.98487277  0.82687483  1
  H+  H186  1  -0.03239417  0.84270095  0.00354072  1
  H+  H187  1  0.96989495  0.85184284  0.66557120  1
  H+  H188  1  0.13071968  0.51920601  0.50793566  1
  H+  H189  1  0.53290075  0.89625379  0.49596280  1
  H+  H190  1  0.35841742  0.64067422  0.49826801  1
  H+  H191  1  0.97285706  0.60887002  0.66001080  1
  H+  H192  1  0.10961232  0.13026356  0.49166667  1
  H+  H193  1  0.10824751  0.76088440  0.51079635  1
  H+  H194  1  0.72128443  0.36474978  0.15339012  1
  H+  H195  1  0.37555039  0.73773543  -0.00894110  1
  H+  H196  1  0.08474809  0.91193192  0.73127968  1
  H+  H197  1  0.93431264  0.56331601  0.88309069  1
  H+  H198  1  0.27148818  0.38631532  0.83139505  1
  H+  H199  1  0.47385104  0.10519845  0.99170156  1
  H+  H200  1  0.33287423  0.16412677  0.43455752  1
  H+  H201  1  0.02218238  0.37650446  0.82633427  1
  H+  H202  1  0.22741526  0.35435749  -0.00450215  1
  H+  H203  1  0.37730873  0.60968790  0.66249557  1
  H+  H204  1  0.14527250  0.62174537  1.03053132  1
  H+  H205  1  0.47867026  0.11748766  0.50543899  1
  H+  H206  1  0.13282956  0.11672140  1.02018878  1
  H+  H207  1  0.73129831  0.87862507  0.33239292  1
  H+  H208  1  0.60204780  0.12208278  -0.00232320  1
  H+  H209  1  0.70747067  0.10591086  0.66895203  1
  H+  H210  1  0.97103058  0.10671236  0.65520855  1
  H+  H211  1  0.50461541  0.14561947  0.67773067  1
  H+  H212  1  0.38929427  0.86631132  0.32874389  1
  H+  H213  1  0.14319625  0.61434231  0.80331557  1
  H+  H214  1  0.42360635  0.83181829  0.44698777  1
  H+  H215  1  0.86885129  0.90225181  0.83132392  1
  H+  H216  1  0.36561500  -0.01920897  0.48960671  1
  H+  H217  1  0.16033218  0.88239363  0.82351833  1
  H+  H218  1  0.15061775  0.57632259  0.27632637  1
  H+  H219  1  0.36514085  0.38192431  0.15489065  1
  H+  H220  1  0.16376928  0.41202648  0.35333047  1
  H+  H221  1  0.92653726  0.34330576  0.31038910  1
  H+  H222  1  0.38598600  0.10728327  -0.00280329  1
  H+  H223  1  0.64483963  0.02098813  0.84304700  1
  H+  H224  1  0.60339970  0.09883464  0.82709700  1
  H+  H225  1  0.37429463  0.88087338  0.16653290  1
  H+  H226  1  0.86980541  0.85139678  0.16895927  1
  H+  H227  1  0.88685008  0.35282234  0.83244200  1
  H+  H228  1  0.01602919  0.40754922  0.35500415  1
  H+  H229  1  0.18134469  0.58143749  0.75291155  1
  H+  H230  1  0.28190396  0.13482272  0.33738536  1
  H+  H231  1  0.14425602  0.27124732  0.32671755  1
  H+  H232  1  0.72667751  0.86228020  0.83364575  1
  H+  H233  1  0.47485528  0.35505486  0.66286768  1
  H+  H234  1  -0.04081844  0.11499703  0.83516252  1
  H+  H235  1  0.16477933  0.85379286  0.36662384  1
  H+  H236  1  0.36646997  0.88289213  0.66330455  1
  H+  H237  1  0.23759883  0.86941570  1.02026749  1
  H+  H238  1  0.28172551  0.63181330  0.82217296  1
  H+  H239  1  0.10617699  0.21148077  0.16568661  1
  H+  H240  1  0.38884511  0.36121488  0.66105682  1
  H+  H241  1  0.39773080  0.61434403  0.98652268  1
  H+  H242  1  0.90527710  0.80191794  0.84354370  1
  H+  H243  1  1.03313777  0.40625914  0.32373332  1
  H+  H244  1  0.16333588  0.50053859  0.35692561  1
  H+  H245  1  0.13505996  0.01348864  0.65790828  1
  H+  H246  1  0.87206317  1.02978611  -0.01164741  1
  H+  H247  1  0.04288021  0.90146417  0.83236414  1
  H+  H248  1  0.42211672  0.56815263  0.26661619  1
  H+  H249  1  0.48306062  0.60925087  0.83890734  1
  H+  H250  1  0.71061099  0.59474949  0.65928236  1
  H+  H251  1  0.61286086  0.22735290  0.34945119  1
  H+  H252  1  0.62469534  0.52000324  0.32860962  1
  H+  H253  1  0.27195777  0.14449307  0.20170851  1
  H+  H254  1  0.84930209  0.71692861  0.01002502  1
  H+  H255  1  0.14429674  0.35519315  0.65986507  1
  H+  H256  1  0.25220321  0.59552768  0.96680810  1
  H+  H257  1  -0.01507199  0.37395237  -0.01085674  1
  H+  H258  1  0.60861780  0.37588853  0.67219922  1
  H+  H259  1  0.87710565  0.76944711  0.51097253  1
  H+  H260  1  0.13959823  0.36056576  0.84348982  1
  H+  H261  1  0.85122410  0.21477191  0.82915783  1
  H+  H262  1  0.22187586  0.35349342  0.16971588  1
  H+  H263  1  0.75527129  0.63080706  1.01013219  1
  H+  H264  1  0.07709055  0.66751855  0.42950429  1
  H+  H265  1  0.63851289  0.36925728  0.50867250  1
  H+  H266  1  0.35714688  0.72029441  0.66830226  1
  H+  H267  1  0.63577148  0.52368520  0.83973983  1
  H+  H268  1  0.39359618  0.27316293  0.16880794  1
  H+  H269  1  0.84364871  0.63615497  0.34534230  1
  H+  H270  1  0.23637727  0.35758711  0.32650751  1
  H+  H271  1  0.85418741  0.67739254  0.85915341  1
  H+  H272  1  0.38901063  0.27083425  0.50687307  1
  H+  H273  1  0.32925900  0.93628418  0.81870299  1
  H+  H274  1  0.13838638  0.06012604  0.22550286  1
  H+  H275  1  0.71268279  0.36245520  0.34101161  1
  H+  H276  1  0.47875509  0.11483771  0.17193518  1
  H+  H277  1  0.02637169  0.13510120  0.33682969  1
  H+  H278  1  0.78209258  0.14152268  0.48394114  1
  H+  H279  1  0.39011779  0.86421262  0.99586643  1
  H+  H280  1  0.60419473  0.46342957  0.67236703  1
  H+  H281  1  0.16911247  0.08077209  0.96982797  1
  H+  H282  1  0.20365969  0.59869626  0.19134490  1
  H+  H283  1  0.83677405  0.37976893  0.33908850  1
  H+  H284  1  0.89025625  0.11494001  0.32518185  1
  H+  H285  1  0.34641061  0.91652932  0.07584949  1
  H+  H286  1  0.12568187  -0.00963916  0.81375862  1
  H+  H287  1  0.12031113  0.46485117  0.67239937  1
  H+  H288  1  0.60553180  0.87810765  0.67872560  1
  H+  H289  1  0.82665736  0.64786543  0.74856218  1
  H+  H290  1  0.17791654  0.83352953  0.24217263  1
  H+  H291  1  0.67271607  0.84692502  0.27305738  1
  H+  H292  1  0.41416890  0.33661314  0.89345804  1
  H+  H293  1  0.64501875  0.08168699  0.24264661  1
  H+  H294  1  0.91753131  0.07879167  0.26781186  1
  H+  H295  1  0.36544648  0.96793837  0.33828375  1
  H+  H296  1  0.43017645  0.83519885  0.60294550  1
  H+  H297  1  0.41576619  0.32739490  0.25452315  1
  H+  H298  1  0.86061377  0.47308559  0.15000533  1
  H+  H299  1  0.88873450  0.31585405  0.21946112  1
  H+  H300  1  0.81273127  0.14628805  0.06242492  1
  H+  H301  1  0.20551554  0.85635678  0.87368019  1
  H+  H302  1  0.92658672  0.84148617  0.91046244  1
  H+  H303  1  0.36229129  0.19123787  0.06587811  1
  H+  H304  1  0.33025670  0.40925301  0.40625256  1
  H+  H305  1  0.33535801  0.29621891  0.29592499  1
  H+  H306  1  0.70848937  0.10440830  0.98821934  1
  H+  H307  1  0.57332642  0.15537610  0.09820307  1
  H+  H308  1  0.88140827  0.86026912  0.51359550  1
  H+  H309  1  0.82175021  0.39711691  0.76226065  1
  H+  H310  1  0.75751869  0.63402144  0.49774944  1
  H+  H311  1  0.85607491  0.46883168  0.67138129  1
  H+  H312  1  0.56220748  0.15765460  0.73548947  1
  H+  H313  1  0.82596318  0.41572654  0.40337769  1
  H+  H314  1  0.62598721  0.51377243  0.99088789  1
  H+  H315  1  0.27424170  0.11916808  0.13536844  1
  H+  H316  1  0.42735190  0.57750612  0.90064357  1
  H+  H317  1  0.16924143  0.84340439  0.96719485  1
  H+  H318  1  0.41681026  0.32948610  0.56683029  1
  H+  H319  1  0.15796667  0.57359674  0.59821813  1
  H+  H320  1  0.16912416  0.32745316  0.23180103  1
  H+  H321  1  0.60107068  0.21167111  0.00390465  1
  H+  H322  1  0.91336613  0.08367576  0.56332599  1
  H+  H323  1  0.58276420  0.66726338  0.73444025  1
  H+  H324  1  0.66350471  0.82754814  0.56506240  1
  H+  H325  1  0.17109321  0.56294536  0.92459447  1
  H+  H326  1  0.42435045  0.83625892  0.27168943  1
  H+  H327  1  0.21512009  0.04179199  0.90813734  1
  H+  H328  1  0.06609910  0.16696912  0.75706473  1
  H+  H329  1  0.63780799  0.77551768  0.17585330  1
  H+  H330  1  0.61025451  0.98136249  0.01434114  1
  H+  H331  1  0.48515753  0.61243776  0.99523667  1
  H+  H332  1  0.11137171  0.46621673  0.81652744  1
  H+  H333  1  0.82557141  0.16031956  0.73507211  1
  H+  H334  1  0.33546074  0.66844976  0.04412155  1
  H+  H335  1  0.65633533  0.57540481  0.23317764  1
  H+  H336  1  0.57487238  0.90042341  0.74208064  1
  H+  H337  1  0.65557004  0.07729290  0.92414137  1
  H+  H338  1  0.65673140  0.57750999  0.93309192  1
  H+  H339  1  0.58316276  0.16829376  0.43843493  1
  H+  H340  1  0.41192588  0.08309302  0.59419231  1
  H+  H341  1  0.12111752  0.73759508  0.34050222  1
  H+  H342  1  0.08849848  0.41200929  0.06708035  1
  H+  H343  1  0.83126455  0.91696541  0.73242130  1
  H+  H344  1  0.08241051  0.66448470  0.72573845  1
  H+  H345  1  0.83682603  0.92179401  0.40420145  1
  H+  H346  1  0.07353152  0.15717347  0.10548057  1
  H+  H347  1  0.09369433  0.40383296  0.73109329  1
  H+  H348  1  0.61687458  0.72892710  0.82686912  1
  H+  H349  1  0.34638779  0.92881715  0.71736665  1
  H+  H350  1  0.81929399  0.65444498  0.10554311  1
  H+  H351  1  0.80681811  0.66112572  0.40255730  1
  H+  H352  1  0.60651660  0.41780730  0.76213248  1
  H+  H353  1  0.31785212  0.66816694  0.14595431  1
  H+  H354  1  0.59159716  0.91974543  0.43780163  1
  H+  H355  1  0.42094084  0.59745551  0.56822283  1
  H+  H356  1  0.31985058  0.66997920  0.39897786  1
  H+  H357  1  0.58493929  0.66752644  0.06697305  1
  H+  H358  1  0.83523901  0.90917400  0.09467529  1
  H+  H359  1  0.33336986  0.91938779  0.43054534  1
  H+  H360  1  0.38571675  0.10639477  0.18220983  1
  H+  H361  1  0.67756717  0.82787896  0.89694924  1
  H+  H362  1  0.34023201  0.18567531  0.75686754  1
  H+  H363  1  0.65368547  0.31433808  0.93524372  1
  H+  H364  1  0.33389480  0.41068820  0.09593875  1
  H+  H365  1  0.88165963  1.01840930  0.65673266  1
  H+  H366  1  0.91278044  0.58420990  0.56467640  1
  H+  H367  1  0.47950852  0.36251791  0.98359393  1
  H+  H368  1  0.16495501  0.32174487  0.56671943  1
  H+  H369  1  0.33575849  0.41711996  0.73170780  1
  H+  H370  1  0.82548325  0.41206552  0.05866110  1
  H+  H371  1  0.67817056  0.65081576  0.54707934  1
  H+  H372  1  0.11033880  0.42771814  0.44198898  1
  H+  H373  1  0.16782157  0.32501087  0.90100703  1
  H+  H374  1  0.57571314  0.41076215  0.05990723  1
  H+  H375  1  0.61830619  0.89267047  0.34430111  1
  H+  H376  1  0.02863387  0.63830079  0.81931123  1
  H+  H377  1  0.07625684  0.94486435  0.12480207  1
  H+  H378  1  0.07496332  0.91638202  0.43211775  1
  H+  H379  1  0.42023421  0.84046381  0.93301274  1
  H+  H380  1  0.24359632  0.08972389  0.91043702  1
  H+  H381  1  0.42686770  0.07941730  0.26957898  1
  H+  H382  1  0.71776534  0.61024189  0.33137697  1
  H+  H383  1  0.06404699  0.67098957  0.11275816  1
  O2-  O384  1  0.07437160  0.15147074  0.15028021  1
  O2-  O385  1  0.08007069  0.16054822  0.47493696  1
  O2-  O386  1  0.06328708  0.16669686  0.80256817  1
  O2-  O387  1  0.07409929  0.40436236  0.14601045  1
  O2-  O388  1  0.08524834  0.41551973  0.48458621  1
  O2-  O389  1  0.08442455  0.40315603  0.81333122  1
  O2-  O390  1  0.07944541  0.66454242  0.15508716  1
  O2-  O391  1  0.07110558  0.66163792  0.47537628  1
  O2-  O392  1  0.08977565  0.67029696  0.80419417  1
  O2-  O393  1  0.06613814  0.96665737  0.16396552  1
  O2-  O394  1  0.07548039  0.91817749  0.47799037  1
  O2-  O395  1  0.09841392  0.92538992  0.81046170  1
  O2-  O396  1  0.31328479  0.15396104  0.16764148  1
  O2-  O397  1  0.33230194  0.16651292  0.47975077  1
  O2-  O398  1  0.33636577  0.19636744  0.80178695  1
  O2-  O399  1  0.33201160  0.40983522  0.14143042  1
  O2-  O400  1  0.32173247  0.39720636  0.47335210  1
  O2-  O401  1  0.33238902  0.41613607  0.81519303  1
  O2-  O402  1  0.31902892  0.65717135  0.18915196  1
  O2-  O403  1  0.32069418  0.66374330  0.48243560  1
  O2-  O404  1  0.33942392  0.66588706  0.84034366  1
  O2-  O405  1  0.34493100  0.91280012  0.14802992  1
  O2-  O406  1  0.33642730  0.91990242  0.47609424  1
  O2-  O407  1  0.37502320  0.97292614  0.79030840  1
  O2-  O408  1  0.57270302  0.16451499  0.14276831  1
  O2-  O409  1  0.58150110  0.16760658  0.48427261  1
  O2-  O410  1  0.55424699  0.10905856  0.81000466  1
  O2-  O411  1  0.57738588  0.41395061  0.13668391  1
  O2-  O412  1  0.58361192  0.42539877  0.48309561  1
  O2-  O413  1  0.63107623  0.43034237  0.80487216  1
  O2-  O414  1  0.58367629  0.66652278  0.14576532  1
  O2-  O415  1  0.57915947  0.66605619  0.46587952  1
  O2-  O416  1  0.58506119  0.66739861  0.81153570  1
  O2-  O417  1  0.58640600  0.91893586  0.15942878  1
  O2-  O418  1  0.59400962  0.92124520  0.48376998  1
  O2-  O419  1  0.58083182  0.90417031  0.81490524  1
  O2-  O420  1  0.83049600  0.15152033  0.13601177  1
  O2-  O421  1  0.84456223  0.16973673  0.46991550  1
  O2-  O422  1  0.81902061  0.15428962  0.81497727  1
  O2-  O423  1  0.82785277  0.41305308  0.13125514  1
  O2-  O424  1  0.82895272  0.41553198  0.48184233  1
  O2-  O425  1  0.82200533  0.39569010  0.80800035  1
  O2-  O426  1  0.82035380  0.65326628  0.15080210  1
  O2-  O427  1  0.81942610  0.66660873  0.48254767  1
  O2-  O428  1  0.82571591  0.62680607  0.83336699  1
  O2-  O429  1  0.83223088  0.91188295  0.14064898  1
  O2-  O430  1  0.83422121  0.91600575  0.48339371  1
  O2-  O431  1  0.83435249  0.92403857  0.81128785  1
  O2-  O432  1  0.18166269  0.11749909  0.24112460  1
  O2-  O433  1  0.16564356  0.08129838  0.51722510  1
  O2-  O434  1  0.16196001  0.09125514  0.81704878  1
  O2-  O435  1  0.16257793  0.32406142  0.18636597  1
  O2-  O436  1  0.16135318  0.32464416  0.52135658  1
  O2-  O437  1  0.17112048  0.32978601  0.85570326  1
  O2-  O438  1  0.14032136  0.56449370  0.19471642  1
  O2-  O439  1  0.15695114  0.58017668  0.52254170  1
  O2-  O440  1  0.17286253  0.58035712  0.79686414  1
  O2-  O441  1  0.17494938  0.82593706  0.19761429  1
  O2-  O442  1  0.12846245  0.81486676  0.53419767  1
  O2-  O443  1  0.19536677  0.85314445  0.83015987  1
  O2-  O444  1  0.42017761  0.07950481  0.19221472  1
  O2-  O445  1  0.41689095  0.08475465  0.51893613  1
  O2-  O446  1  0.40495217  0.12187552  0.85977752  1
  O2-  O447  1  0.42389458  0.33394171  0.18118412  1
  O2-  O448  1  0.41930001  0.33168535  0.52137800  1
  O2-  O449  1  0.41142147  0.34193409  0.84743593  1
  O2-  O450  1  0.41631504  0.57159446  0.18856537  1
  O2-  O451  1  0.41870859  0.60607484  0.52392869  1
  O2-  O452  1  0.42286187  0.57569411  0.85509635  1
  O2-  O453  1  0.41325385  0.82499043  0.18999364  1
  O2-  O454  1  0.41889306  0.84134962  0.49015137  1
  O2-  O455  1  0.41416255  0.82637976  0.85603128  1
  O2-  O456  1  0.63249410  0.08019714  0.19866966  1
  O2-  O457  1  0.68640064  0.09668270  0.50503415  1
  O2-  O458  1  0.66834391  0.08123264  0.85552536  1
  O2-  O459  1  0.66006111  0.33900730  0.16612196  1
  O2-  O460  1  0.66475061  0.33547717  0.52370440  1
  O2-  O461  1  0.65086143  0.29936555  0.85863816  1
  O2-  O462  1  0.65616936  0.57526578  0.18763738  1
  O2-  O463  1  0.66021260  0.59782658  0.52461707  1
  O2-  O464  1  0.66426720  0.58292424  0.85650400  1
  O2-  O465  1  0.67150877  0.83609699  0.18964836  1
  O2-  O466  1  0.66617500  0.82875262  0.51967885  1
  O2-  O467  1  0.66785162  0.82730289  0.85083950  1
  O2-  O468  1  0.91172954  0.07175448  0.19170968  1
  O2-  O469  1  0.91669208  0.08295821  0.51784231  1
  O2-  O470  1  0.90146123  0.08222930  0.85438776  1
  O2-  O471  1  0.89999650  0.32124136  0.17495891  1
  O2-  O472  1  0.91390937  0.33274763  0.51223907  1
  O2-  O473  1  0.92087150  0.32702159  0.84823096  1
  O2-  O474  1  0.90568255  0.56352630  0.18073359  1
  O2-  O475  1  0.90834485  0.58232234  0.51952913  1
  O2-  O476  1  0.92690800  0.56919741  0.83965421  1
  O2-  O477  1  0.89844985  0.81981442  0.18599528  1
  O2-  O478  1  0.91041967  0.82873033  0.52876399  1
  O2-  O479  1  0.93490649  0.85650512  0.86498397  1
  O2-  O480  1  0.18233912  0.10357738  0.30654165  1
  O2-  O481  1  0.16316903  0.07376324  0.64217564  1
  O2-  O482  1  0.16931757  0.08807101  1.01387330  1
  O2-  O483  1  0.17722744  0.33002908  0.30895209  1
  O2-  O484  1  0.17164705  0.32142935  0.64317465  1
  O2-  O485  1  0.16660451  0.32113454  0.98144930  1
  O2-  O486  1  0.15891663  0.58519675  0.32079279  1
  O2-  O487  1  0.15958595  0.57397845  0.64417927  1
  O2-  O488  1  0.19872575  0.54356410  0.95345231  1
  O2-  O489  1  0.18072139  0.83891544  0.32798003  1
  O2-  O490  1  0.16115637  0.82452232  0.64824782  1
  O2-  O491  1  0.17344589  0.84366273  1.01115682  1
  O2-  O492  1  0.42656109  0.07743463  0.31509155  1
  O2-  O493  1  0.40614512  0.07951137  0.63972121  1
  O2-  O494  1  0.41049004  0.07434797  0.97864377  1
  O2-  O495  1  0.39673013  0.31617064  0.29880033  1
  O2-  O496  1  0.41540322  0.32767210  0.64526861  1
  O2-  O497  1  0.41889396  0.33418324  0.96638275  1
  O2-  O498  1  0.42641999  0.57440575  0.31166137  1
  O2-  O499  1  0.40967340  0.57959622  0.64935233  1
  O2-  O500  1  0.42505475  0.57921978  0.97748158  1
  O2-  O501  1  0.42394840  0.83763004  0.31668419  1
  O2-  O502  1  0.41999313  0.83094151  0.64662111  1
  O2-  O503  1  0.41969473  0.83463613  0.97819842  1
  O2-  O504  1  0.66563897  0.08141317  0.32174483  1
  O2-  O505  1  0.64508964  0.07792273  0.66198273  1
  O2-  O506  1  0.64804616  0.07561266  0.97149466  1
  O2-  O507  1  0.65120291  0.32410860  0.33001577  1
  O2-  O508  1  0.66078206  0.32966468  0.64849355  1
  O2-  O509  1  0.65281471  0.32048787  0.98062072  1
  O2-  O510  1  0.65505219  0.57946708  0.31200112  1
  O2-  O511  1  0.65029268  0.56562068  0.64528172  1
  O2-  O512  1  0.65521438  0.57569248  0.97878078  1
  O2-  O513  1  0.67093249  0.85258495  0.31770220  1
  O2-  O514  1  0.66209304  0.83161452  0.64507336  1
  O2-  O515  1  0.69401452  0.82778342  0.96535442  1
  O2-  O516  1  0.92311161  0.08577550  0.31333204  1
  O2-  O517  1  0.91010418  0.07845224  0.64109560  1
  O2-  O518  1  0.91661852  0.08628091  0.97412774  1
  O2-  O519  1  0.86629000  0.30891311  0.29838533  1
  O2-  O520  1  0.89717013  0.31871511  0.62994128  1
  O2-  O521  1  0.93153121  0.35383482  0.96560894  1
  O2-  O522  1  0.90763662  0.59833608  0.32983025  1
  O2-  O523  1  0.91145666  0.57761289  0.64652153  1
  O2-  O524  1  0.87103520  0.57092308  0.96355232  1
  O2-  O525  1  0.92782955  0.85315851  0.31077205  1
  O2-  O526  1  0.90770582  0.82059464  0.65438015  1
  O2-  O527  1  0.91205884  0.81657624  0.98196085  1
  O2-  O528  1  0.07701945  0.16124079  0.02590026  1
  O2-  O529  1  0.08737138  0.16359536  0.35199939  1
  O2-  O530  1  0.07717616  0.15724046  0.67987499  1
  O2-  O531  1  0.09098217  0.40701526  0.02196815  1
  O2-  O532  1  0.16934333  0.45719579  0.38138262  1
  O2-  O533  1  0.10179807  0.40594122  0.68652652  1
  O2-  O534  1  0.02540240  0.69362878  0.04611371  1
  O2-  O535  1  0.08190936  0.67575518  0.35518529  1
  O2-  O536  1  0.07988502  0.66064854  0.68059138  1
  O2-  O537  1  0.07604465  0.91466749  0.04817220  1
  O2-  O538  1  0.08216169  0.92424018  0.35629974  1
  O2-  O539  1  0.08044849  0.90843791  0.68608767  1
  O2-  O540  1  0.34243599  0.17658139  0.02404229  1
  O2-  O541  1  0.34075296  0.15921659  0.35504994  1
  O2-  O542  1  0.33044152  0.16252240  0.68468551  1
  O2-  O543  1  0.33636835  0.41447910  0.01756658  1
  O2-  O544  1  0.33683017  0.41663610  0.35904775  1
  O2-  O545  1  0.33825618  0.41574756  0.68679350  1
  O2-  O546  1  0.34702344  0.67309855  0.00078981  1
  O2-  O547  1  0.31732909  0.67383377  0.35423122  1
  O2-  O548  1  0.32566763  0.65950520  0.68149368  1
  O2-  O549  1  0.33859758  0.91338629  0.02955882  1
  O2-  O550  1  0.33581441  0.90819832  0.35384014  1
  O2-  O551  1  0.33330819  0.91227805  0.67406963  1
  O2-  O552  1  0.56929903  0.15018039  0.01645743  1
  O2-  O553  1  0.58685324  0.16516108  0.36353358  1
  O2-  O554  1  0.55293452  0.18944319  0.70220958  1
  O2-  O555  1  0.57495614  0.40858181  0.01409315  1
  O2-  O556  1  0.57030460  0.41815845  0.36135117  1
  O2-  O557  1  0.57705555  0.40438134  0.69041866  1
  O2-  O558  1  0.58300305  0.66580016  0.02145119  1
  O2-  O559  1  0.57473846  0.65262311  0.34877528  1
  O2-  O560  1  0.57909292  0.66720103  0.68884789  1
  O2-  O561  1  0.58509129  0.92634404  0.03765286  1
  O2-  O562  1  0.58491665  0.91931217  0.36318035  1
  O2-  O563  1  0.57018047  0.90121942  0.69614815  1
  O2-  O564  1  0.80448391  0.14853192  0.01742694  1
  O2-  O565  1  0.83040484  0.16139485  0.34857956  1
  O2-  O566  1  0.82671437  0.16324054  0.68967710  1
  O2-  O567  1  0.82023641  0.40712043  0.01258491  1
  O2-  O568  1  0.82066096  0.41940686  0.35835835  1
  O2-  O569  1  0.82586610  0.40827360  0.68600868  1
  O2-  O570  1  0.81513053  0.65668495  0.02646020  1
  O2-  O571  1  0.80220163  0.65572694  0.35758849  1
  O2-  O572  1  0.82386367  0.65049386  0.70340065  1
  O2-  O573  1  0.85068858  0.90401471  0.02012308  1
  O2-  O574  1  0.83475005  0.92236707  0.35888222  1
  O2-  O575  1  0.82854975  0.91268350  0.68706840  1
