# generated using pymatgen
data_H2O
_symmetry_space_group_name_H-M   'P 1'
_cell_length_a   17.99819084
_cell_length_b   18.00119986
_cell_length_c   22.00847839
_cell_angle_alpha   89.99227995
_cell_angle_beta   90.00249794
_cell_angle_gamma   119.99992880
_symmetry_Int_Tables_number   1
_chemical_formula_structural   H2O
_chemical_formula_sum   'H384 O192'
_cell_volume   6175.20333876
_cell_formula_units_Z   192
loop_
 _symmetry_equiv_pos_site_id
 _symmetry_equiv_pos_as_xyz
  1  'x, y, z'
loop_
 _atom_type_symbol
 _atom_type_oxidation_number
  H+  1.0
  O2-  -2.0
loop_
 _atom_site_type_symbol
 _atom_site_label
 _atom_site_symmetry_multiplicity
 _atom_site_fract_x
 _atom_site_fract_y
 _atom_site_fract_z
 _atom_site_occupancy
  H+  H0  1  0.27134374  0.38350016  0.30184014  1
  H+  H1  1  0.11412805  0.97784503  0.00929747  1
  H+  H2  1  0.11224688  -0.02069579  0.82901504  1
  H+  H3  1  0.12174101  0.89350028  0.16617879  1
  H+  H4  1  0.88290020  1.01798737  0.83215626  1
  H+  H5  1  0.27899911  0.39201121  0.16054081  1
  H+  H6  1  0.86445966  0.47794083  0.33014258  1
  H+  H7  1  0.09585907  0.38247032  0.00867164  1
  H+  H8  1  0.49993637  0.11043549  0.66977201  1
  H+  H9  1  0.60700598  0.13108618  0.17047022  1
  H+  H10  1  0.86490570  0.63360944  0.33747528  1
  H+  H11  1  0.91503862  0.33575015  0.56159164  1
  H+  H12  1  0.58769308  0.37165116  0.68606158  1
  H+  H13  1  0.07719346  0.65377073  0.68085305  1
  H+  H14  1  1.01251823  1.07272164  0.35921258  1
  H+  H15  1  0.61125421  0.25809393  0.65699860  1
  H+  H16  1  0.01370222  0.64534055  0.15753121  1
  H+  H17  1  0.57554996  0.16109181  0.76431382  1
  H+  H18  1  0.38664183  0.89624629  0.50003250  1
  H+  H19  1  0.21730266  0.37070698  0.65863293  1
  H+  H20  1  0.42043037  0.51271881  0.17776257  1
  H+  H21  1  0.24391496  0.86496619  0.66917043  1
  H+  H22  1  0.60085374  0.61567900  -0.01355937  1
  H+  H23  1  0.13403301  0.11125299  1.00019124  1
  H+  H24  1  0.27274166  0.88829231  0.17194900  1
  H+  H25  1  0.47681916  0.60763260  0.67650330  1
  H+  H26  1  0.10619961  0.22329099  0.82639797  1
  H+  H27  1  0.96379859  0.68271242  0.66737350  1
  H+  H28  1  0.63323886  0.79989968  0.51158312  1
  H+  H29  1  0.32244373  0.15421530  0.39530717  1
  H+  H30  1  0.96800729  0.37062514  0.99798508  1
  H+  H31  1  0.64127445  0.35839088  0.30903569  1
  H+  H32  1  0.38532150  0.11415591  0.99288924  1
  H+  H33  1  0.64979787  0.64007977  0.82828258  1
  H+  H34  1  0.84869961  0.47605051  0.01089042  1
  H+  H35  1  0.14550101  0.03806922  0.18193266  1
  H+  H36  1  0.15640839  0.87299845  0.49671399  1
  H+  H37  1  0.22677885  0.61301081  0.31547161  1
  H+  H38  1  0.91862126  0.53959862  0.69140125  1
  H+  H39  1  0.35468737  0.22209881  0.50030945  1
  H+  H40  1  0.86681183  0.22913820  0.48972186  1
  H+  H41  1  0.27839539  0.14614089  0.17036689  1
  H+  H42  1  0.37934462  0.25804250  0.32109050  1
  H+  H43  1  0.38655539  0.02860441  0.17982391  1
  H+  H44  1  0.12910951  0.27738070  0.32361701  1
  H+  H45  1  0.35956015  0.98752967  0.66444147  1
  H+  H46  1  0.36249073  -0.10846473  0.18040349  1
  H+  H47  1  0.94570214  0.53587682  0.55446715  1
  H+  H48  1  0.53216819  0.39267515  1.00145599  1
  H+  H49  1  0.36893049  0.72823782  0.31629353  1
  H+  H50  1  0.59778841  0.64108886  0.37515309  1
  H+  H51  1  0.85077261  0.38900823  0.01246894  1
  H+  H52  1  0.14663320  0.85434974  0.32742270  1
  H+  H53  1  0.21706202  0.85444140  0.83625088  1
  H+  H54  1  0.72080921  0.35837734  0.84219611  1
  H+  H55  1  0.71136695  0.34567135  0.99585989  1
  H+  H56  1  0.88930159  0.85188056  0.99332471  1
  H+  H57  1  0.77727339  0.38814487  0.32404940  1
  H+  H58  1  0.72134412  0.85061962  0.99626054  1
  H+  H59  1  0.88426663  0.36153120  0.49993303  1
  H+  H60  1  0.58236644  0.58274226  0.51937718  1
  H+  H61  1  0.02671729  0.13465737  0.02074332  1
  H+  H62  1  0.34942894  0.46390167  0.83035294  1
  H+  H63  1  0.11439033  0.48080893  0.33640713  1
  H+  H64  1  0.26243603  0.11119940  0.01572196  1
  H+  H65  1  0.12996660  0.61019138  0.84761857  1
  H+  H66  1  0.52905771  0.13908882  0.45459328  1
  H+  H67  1  0.77058090  0.68021313  0.80092363  1
  H+  H68  1  0.62877958  0.96767159  0.33744202  1
  H+  H69  1  0.53097116  0.88751567  0.00677493  1
  H+  H70  1  0.38171820  0.36053478  0.52056591  1
  H+  H71  1  0.41150874  0.68002694  0.17901808  1
  H+  H72  1  0.12966318  0.11781372  0.50163591  1
  H+  H73  1  0.63837295  0.12260478  0.48876915  1
  H+  H74  1  0.61800003  0.97945121  0.01133587  1
  H+  H75  1  0.11572377  0.98474456  0.51233680  1
  H+  H76  1  0.17164100  0.65298567  0.70485097  1
  H+  H77  1  0.85797480  0.47216551  0.47786535  1
  H+  H78  1  0.60675080  0.38325116  0.83857936  1
  H+  H79  1  0.77140706  0.62785276  0.85393703  1
  H+  H80  1  -0.02053918  0.37568857  0.84055181  1
  H+  H81  1  0.11024811  0.88869710  0.82609249  1
  H+  H82  1  0.79343629  0.89332912  0.16414318  1
  H+  H83  1  0.30375695  0.71809993  0.68039320  1
  H+  H84  1  0.27681180  0.66693988  0.48448120  1
  H+  H85  1  0.09415492  0.91104681  0.55894526  1
  H+  H86  1  0.91515430  0.07852248  0.89093182  1
  H+  H87  1  0.08970092  0.16665416  0.07986787  1
  H+  H88  1  0.28731191  0.87522545  0.32336589  1
  H+  H89  1  0.72929876  0.11306671  -0.00405746  1
  H+  H90  1  0.11556623  0.62737652  0.33023106  1
  H+  H91  1  0.74430463  0.34972496  0.67801661  1
  H+  H92  1  0.80738335  0.07247499  0.12241798  1
  H+  H93  1  0.87169520  0.89032530  0.67547814  1
  H+  H94  1  0.60268182  0.36650264  0.48704473  1
  H+  H95  1  0.92983303  0.91811833  0.35534829  1
  H+  H96  1  0.86529342  0.23683633  0.00626700  1
  H+  H97  1  0.13144935  0.52854962  0.62219768  1
  H+  H98  1  0.63270151  1.02097628  0.66068679  1
  H+  H99  1  0.89861500  0.13562429  0.98725713  1
  H+  H100  1  0.63031688  0.71519379  0.14290621  1
  H+  H101  1  0.72821551  0.94105901  0.22477705  1
  H+  H102  1  0.45964085  0.12831046  0.53357340  1
  H+  H103  1  0.38044205  0.76701051  0.83854983  1
  H+  H104  1  0.38849048  0.20597572  0.66997737  1
  H+  H105  1  0.39764997  0.36540775  0.17064541  1
  H+  H106  1  0.35019351  0.62847815  0.82376523  1
  H+  H107  1  0.11337561  0.48136957  0.82349123  1
  H+  H108  1  0.03954931  0.66093244  0.48306597  1
  H+  H109  1  0.41254742  0.32657399  0.57404399  1
  H+  H110  1  0.02955352  0.87540900  0.33442453  1
  H+  H111  1  0.87907994  0.27944160  0.17208431  1
  H+  H112  1  0.08787987  0.65881860  0.38982122  1
  H+  H113  1  0.87825218  0.51907761  0.83712512  1
  H+  H114  1  0.67211346  0.61441307  0.16144547  1
  H+  H115  1  0.52343548  0.13362336  0.32477181  1
  H+  H116  1  0.13174175  0.27416780  0.50247131  1
  H+  H117  1  0.11898139  0.60575510  0.17485930  1
  H+  H118  1  0.14538785  0.88012086  0.99673115  1
  H+  H119  1  -0.01809608  0.87165549  0.66334483  1
  H+  H120  1  0.87778736  0.60771878  0.83575520  1
  H+  H121  1  0.62805762  0.10560392  0.84033261  1
  H+  H122  1  0.59023042  0.67457934  0.47327536  1
  H+  H123  1  0.44974174  0.62198442  0.52769473  1
  H+  H124  1  0.37735475  -0.00992405  0.50065738  1
  H+  H125  1  0.10768858  0.39046214  0.81867706  1
  H+  H126  1  0.12738403  0.14637477  0.17107455  1
  H+  H127  1  0.97253470  0.86188870  0.51438092  1
  H+  H128  1  0.15099484  0.32836205  0.56554787  1
  H+  H129  1  0.45196993  0.86060234  0.66671798  1
  H+  H130  1  0.08312139  0.16394085  0.42743165  1
  H+  H131  1  0.98242913  0.17560442  0.94920051  1
  H+  H132  1  0.14292452  0.76334096  0.32399112  1
  H+  H133  1  0.78958758  0.95656098  0.31326684  1
  H+  H134  1  0.78923703  0.91459400  0.31160734  1
  H+  H135  1  0.36577687  0.14249446  0.16921268  1
  H+  H136  1  0.01720474  0.38138908  0.16041164  1
  H+  H137  1  0.82745391  0.41089497  0.42074108  1
  H+  H138  1  0.37872045  0.35419274  0.84029735  1
  H+  H139  1  0.62888481  0.61800346  0.51786701  1
  H+  H140  1  0.32385877  0.72763054  0.14632665  1
  H+  H141  1  0.09805182  0.50625915  0.52075429  1
  H+  H142  1  0.38974307  0.84730096  0.99679290  1
  H+  H143  1  0.04025809  0.15380807  0.17185232  1
  H+  H144  1  0.63614147  0.58939198  0.30661511  1
  H+  H145  1  0.38176842  0.10380348  0.83487016  1
  H+  H146  1  0.61244882  0.21146612  0.01202057  1
  H+  H147  1  0.39279384  0.86150857  0.29208317  1
  H+  H148  1  0.88089049  0.35341408  0.65917477  1
  H+  H149  1  0.85911304  0.72983954  1.00015885  1
  H+  H150  1  0.52119043  0.36719732  0.32897162  1
  H+  H151  1  0.75362957  0.58298028  0.51070087  1
  H+  H152  1  0.48603067  0.87698700  0.50368782  1
  H+  H153  1  0.47192562  0.36122478  0.84354293  1
  H+  H154  1  0.13605941  0.11428854  0.84000348  1
  H+  H155  1  0.97693701  0.36329320  0.32283438  1
  H+  H156  1  0.23160943  0.11951436  0.65802896  1
  H+  H157  1  0.59471540  0.12590829  0.66480650  1
  H+  H158  1  0.86010135  0.40146393  0.16415425  1
  H+  H159  1  0.42146222  0.83457383  0.93083323  1
  H+  H160  1  0.10674785  0.11817997  0.33270052  1
  H+  H161  1  0.72618597  0.10176695  0.32761010  1
  H+  H162  1  0.46053349  0.35635767  0.67650246  1
  H+  H163  1  0.85782084  0.66927625  0.73635164  1
  H+  H164  1  0.47805983  0.11589376  0.17992915  1
  H+  H165  1  0.57658557  0.88813229  0.67905163  1
  H+  H166  1  0.11863597  0.14951903  0.67130075  1
  H+  H167  1  0.11084911  0.39107636  0.49354544  1
  H+  H168  1  0.86827898  -0.01986517  0.67860208  1
  H+  H169  1  0.77774392  0.14139854  0.48885918  1
  H+  H170  1  0.33672460  0.43509851  0.47143202  1
  H+  H171  1  0.39231680  0.61169560  0.32446549  1
  H+  H172  1  0.66882962  0.49229525  0.51382053  1
  H+  H173  1  0.87386375  0.15044514  0.82954567  1
  H+  H174  1  0.88542558  0.77256374  0.50734727  1
  H+  H175  1  0.10707381  0.63485108  0.49965252  1
  H+  H176  1  0.97893348  0.37248408  0.65429259  1
  H+  H177  1  0.72645381  0.61338617  0.96929509  1
  H+  H178  1  0.36382015  0.53323059  0.53336638  1
  H+  H179  1  0.96867827  0.60938893  0.99567268  1
  H+  H180  1  0.88406910  0.73512143  0.68102365  1
  H+  H181  1  0.90914892  0.76149718  0.17356561  1
  H+  H182  1  0.78122272  0.15175488  0.68072750  1
  H+  H183  1  0.11955502  0.51679110  0.17302147  1
  H+  H184  1  0.62107318  0.62108946  0.66746899  1
  H+  H185  1  0.46296580  0.59997594  0.83762749  1
  H+  H186  1  0.63788059  0.26715100  0.49490406  1
  H+  H187  1  0.11560126  0.72485716  1.00597069  1
  H+  H188  1  0.02917874  0.88543222  0.00801594  1
  H+  H189  1  0.72734451  0.37129017  0.20869636  1
  H+  H190  1  0.74818282  0.61738409  0.66227819  1
  H+  H191  1  0.62473108  0.48244440  -0.00338053  1
  H+  H192  1  0.85281151  0.21847637  0.33283704  1
  H+  H193  1  0.26304101  0.13476504  0.49780845  1
  H+  H194  1  0.61730444  0.90211543  0.49907253  1
  H+  H195  1  0.14649403  0.28242810  0.17138373  1
  H+  H196  1  0.90746672  0.53249403  0.65800618  1
  H+  H197  1  0.63149223  0.26975796  0.83574461  1
  H+  H198  1  0.74678007  0.86209953  0.66325234  1
  H+  H199  1  0.64024320  0.50320392  0.31395679  1
  H+  H200  1  0.51705267  0.13160333  0.82315921  1
  H+  H201  1  0.72853181  0.10338781  0.17490413  1
  H+  H202  1  0.60800580  0.97689772  0.16341737  1
  H+  H203  1  0.35203291  0.96353841  0.82098519  1
  H+  H204  1  0.88699991  0.11148901  0.67536615  1
  H+  H205  1  0.11772986  0.90380667  0.67163081  1
  H+  H206  1  0.02082212  0.13123366  0.82204539  1
  H+  H207  1  0.40843685  0.83120344  0.60160935  1
  H+  H208  1  0.39773651  0.27686303  0.16715010  1
  H+  H209  1  0.88608631  0.65444076  0.48143430  1
  H+  H210  1  0.61041622  0.47223675  0.85189709  1
  H+  H211  1  0.60438303  0.97734039  0.82996233  1
  H+  H212  1  0.72973773  0.87434911  0.84257301  1
  H+  H213  1  0.37788640  0.85442981  0.83610890  1
  H+  H214  1  0.59795458  0.74393251  0.30775389  1
  H+  H215  1  0.35354991  0.65118817  0.49858865  1
  H+  H216  1  0.41982928  0.31609176  0.26083672  1
  H+  H217  1  0.16166197  0.09561137  0.56505905  1
  H+  H218  1  0.47308711  0.85942115  0.19356529  1
  H+  H219  1  0.26378373  0.63129420  0.83434367  1
  H+  H220  1  0.87017312  0.87321921  0.15927191  1
  H+  H221  1  0.88413101  0.77401632  0.84382003  1
  H+  H222  1  0.22433805  0.11247929  0.84218217  1
  H+  H223  1  0.21351285  0.35644156  0.84190308  1
  H+  H224  1  0.39277619  0.78891458  0.50183757  1
  H+  H225  1  0.89455242  0.28330724  0.84434389  1
  H+  H226  1  0.36788568  0.71859568  -0.00949587  1
  H+  H227  1  0.89087937  0.76937288  0.32541936  1
  H+  H228  1  0.59997271  0.85086807  0.32717669  1
  H+  H229  1  0.61243026  -0.01370288  0.48434604  1
  H+  H230  1  0.38311612  0.10408819  0.33095335  1
  H+  H231  1  0.41356347  0.07494211  0.89216187  1
  H+  H232  1  0.22486839  0.60876581  0.99116961  1
  H+  H233  1  0.77376246  0.62780280  0.33500069  1
  H+  H234  1  0.28924459  0.89545251  0.49037693  1
  H+  H235  1  0.65314318  0.83704521  0.68216125  1
  H+  H236  1  0.26193359  0.38968248  0.51823128  1
  H+  H237  1  0.86303244  0.38685625  0.83485396  1
  H+  H238  1  0.97497003  0.11171031  0.66919403  1
  H+  H239  1  0.91700795  0.83129721  0.60623694  1
  H+  H240  1  0.33147723  0.85897905  0.66969704  1
  H+  H241  1  0.10002714  0.78491091  0.63401423  1
  H+  H242  1  0.12743427  0.36530172  0.32536270  1
  H+  H243  1  0.89831170  0.03254212  0.50367789  1
  H+  H244  1  0.63797093  0.10808081  0.00171026  1
  H+  H245  1  0.11087905  0.39815567  0.66313215  1
  H+  H246  1  0.01205827  0.63114098  0.82978269  1
  H+  H247  1  0.36275899  0.22204307  0.82923196  1
  H+  H248  1  0.86042545  0.88638508  0.50352651  1
  H+  H249  1  1.01928312  0.38484328  0.49032847  1
  H+  H250  1  0.80207136  0.61410059  0.16413661  1
  H+  H251  1  0.99129272  0.14534750  0.28476732  1
  H+  H252  1  0.13995614  0.03551389  0.66142608  1
  H+  H253  1  0.12219868  0.26513809  1.00337669  1
  H+  H254  1  0.13220204  0.52223052  -0.00229445  1
  H+  H255  1  0.13640984  0.77528337  0.17314544  1
  H+  H256  1  0.63166707  0.09071408  0.32065021  1
  H+  H257  1  0.62564339  0.48043860  0.14984297  1
  H+  H258  1  0.64026929  0.87795263  0.84386724  1
  H+  H259  1  0.72192579  0.35724265  0.50164650  1
  H+  H260  1  0.85807055  0.88321117  0.82763496  1
  H+  H261  1  0.55264980  0.62107385  0.15804098  1
  H+  H262  1  0.26420843  0.85027014  1.02923412  1
  H+  H263  1  0.42730120  0.68094204  0.14721259  1
  H+  H264  1  0.83791473  0.66932047  0.42688971  1
  H+  H265  1  0.64419310  0.87967998  0.99551590  1
  H+  H266  1  0.14480489  1.02780953  0.32114280  1
  H+  H267  1  0.61586292  0.21774055  0.31101025  1
  H+  H268  1  0.89661398  0.11946107  0.49867142  1
  H+  H269  1  0.08396382  0.42421336  0.39767829  1
  H+  H270  1  0.35976756  0.38276262  0.29788049  1
  H+  H271  1  0.62160402  0.70822313  0.67037093  1
  H+  H272  1  0.35524023  0.10825107  0.67743333  1
  H+  H273  1  0.65499071  0.07440034  0.90015830  1
  H+  H274  1  0.31348083  0.38385706  -0.04209712  1
  H+  H275  1  0.10303971  0.72239381  0.83032763  1
  H+  H276  1  0.88031135  0.13189629  0.16950400  1
  H+  H277  1  0.82806424  0.16564727  0.39466736  1
  H+  H278  1  1.02460573  0.14040550  0.48739814  1
  H+  H279  1  0.40353981  0.36494829  -0.00232932  1
  H+  H280  1  0.51722260  0.88340558  0.82788618  1
  H+  H281  1  0.20350213  0.35777440  0.99667678  1
  H+  H282  1  0.36710710  0.11400781  0.51314956  1
  H+  H283  1  0.38352609  0.60587400  0.99074966  1
  H+  H284  1  0.97919266  0.61276754  0.31864628  1
  H+  H285  1  0.35407442  0.48688814  0.68482013  1
  H+  H286  1  0.11517302  0.63659970  0.00821514  1
  H+  H287  1  0.52887261  0.39387987  0.14907694  1
  H+  H288  1  0.63292999  0.82060318  0.25584000  1
  H+  H289  1  0.91382531  0.33473662  0.23223719  1
  H+  H290  1  0.67554012  0.85495656  0.92118801  1
  H+  H291  1  0.15832168  0.57767635  0.25925682  1
  H+  H292  1  0.92614588  0.83732755  0.93103048  1
  H+  H293  1  0.40629152  0.59823162  0.62931790  1
  H+  H294  1  0.58985434  0.42903806  0.07272333  1
  H+  H295  1  0.84602023  0.18645990  0.77438275  1
  H+  H296  1  0.09179471  0.64527124  0.75500640  1
  H+  H297  1  0.38357559  0.51713014  0.31154229  1
  H+  H298  1  0.15922253  0.83020608  0.89603378  1
  H+  H299  1  0.77757923  0.89690612  0.49799693  1
  H+  H300  1  0.92573373  0.82684299  0.26541177  1
  H+  H301  1  0.16885336  0.82857077  0.23537268  1
  H+  H302  1  0.83147291  0.43600596  0.68307658  1
  H+  H303  1  0.67049378  0.07194019  0.23530350  1
  H+  H304  1  0.59840446  0.17482303  0.40409228  1
  H+  H305  1  0.07729293  0.66906872  0.10132697  1
  H+  H306  1  0.17476090  0.09304793  0.24682480  1
  H+  H307  1  0.51778557  0.61516951  0.32958811  1
  H+  H308  1  0.35250764  0.39831426  0.67522012  1
  H+  H309  1  0.83149282  0.65022589  0.04259111  1
  H+  H310  1  0.71486200  0.05173620  0.62133901  1
  H+  H311  1  0.31993950  0.36647011  0.40367910  1
  H+  H312  1  0.09246805  0.92230712  0.10653915  1
  H+  H313  1  0.65965268  0.09309579  0.55280547  1
  H+  H314  1  0.81273014  0.86480082  0.07360786  1
  H+  H315  1  0.41568699  0.08159609  0.27012060  1
  H+  H316  1  0.65774506  0.31076737  0.93468882  1
  H+  H317  1  0.68809602  0.57431910  0.22212703  1
  H+  H318  1  0.82113809  0.39893885  0.77455760  1
  H+  H319  1  0.33449808  0.41666019  0.10033259  1
  H+  H320  1  0.57813946  0.91285767  0.10631774  1
  H+  H321  1  0.91338412  0.59092401  0.26270458  1
  H+  H322  1  0.56359385  0.40364049  0.74730368  1
  H+  H323  1  0.52449443  0.12419441  0.01420559  1
  H+  H324  1  0.98838938  0.85794836  0.17257506  1
  H+  H325  1  0.84476666  0.17287137  0.06359495  1
  H+  H326  1  0.52150445  0.37921416  0.48996267  1
  H+  H327  1  0.28500225  0.66464257  0.74207490  1
  H+  H328  1  0.90894086  0.58198219  0.93802571  1
  H+  H329  1  0.87269639  0.23501444  0.67330518  1
  H+  H330  1  0.34758757  0.41457014  0.39967960  1
  H+  H331  1  0.65190519  0.32340330  0.60184568  1
  H+  H332  1  0.23618585  0.91389156  0.96643203  1
  H+  H333  1  0.35439624  0.47332437  -0.00896803  1
  H+  H334  1  0.29926417  0.76371081  0.08913236  1
  H+  H335  1  0.58234034  0.64015086  0.05207632  1
  H+  H336  1  0.16987801  0.84462566  0.58541048  1
  H+  H337  1  0.08782347  0.17436332  0.73207204  1
  H+  H338  1  0.86432233  0.54814731  0.55750927  1
  H+  H339  1  0.67179396  0.84810382  0.57464863  1
  H+  H340  1  0.34336708  0.68703802  0.38289434  1
  H+  H341  1  0.35736919  0.28889395  0.67749225  1
  H+  H342  1  0.16764044  0.34373657  0.22821094  1
  H+  H343  1  0.88885700  0.36421534  0.32154740  1
  H+  H344  1  0.07326308  0.41659847  0.06898686  1
  H+  H345  1  0.97464619  0.86357037  0.83723139  1
  H+  H346  1  0.58222096  0.39869774  0.38748231  1
  H+  H347  1  0.08657534  0.43662540  0.71950112  1
  H+  H348  1  0.13033743  0.28000442  0.66022597  1
  H+  H349  1  0.65130955  0.89584015  0.17826216  1
  H+  H350  1  0.98924789  0.65543480  0.60658689  1
  H+  H351  1  0.57853543  0.15894597  0.11142726  1
  H+  H352  1  0.15845645  0.78397271  0.49208595  1
  H+  H353  1  0.40993102  0.57566119  0.89952746  1
  H+  H354  1  0.32448244  0.14301932  0.07431594  1
  H+  H355  1  0.10923436  0.38511118  0.15864809  1
  H+  H356  1  0.33442981  0.16211099  0.76995609  1
  H+  H357  1  0.46718521  0.17408376  0.95400709  1
  H+  H358  1  0.32361752  0.67238176  0.05097685  1
  H+  H359  1  0.89811351  0.94920981  0.41207905  1
  H+  H360  1  0.86787249  0.53265862  0.16534601  1
  H+  H361  1  0.77674744  0.77724284  0.03632731  1
  H+  H362  1  0.58394880  0.73495454  0.42457740  1
  H+  H363  1  0.08758667  0.92818720  0.73411886  1
  H+  H364  1  0.37377221  0.96568383  0.32550058  1
  H+  H365  1  0.91308925  0.34243989  0.93679592  1
  H+  H366  1  0.15998864  0.57773180  0.90522760  1
  H+  H367  1  0.31685080  0.40778875  0.77036692  1
  H+  H368  1  0.47104028  0.59852289  0.98968328  1
  H+  H369  1  0.08600717  0.91209704  0.39320540  1
  H+  H370  1  0.32816542  0.88938671  0.08590268  1
  H+  H371  1  0.81965009  0.42093609  0.10638373  1
  H+  H372  1  0.25908844  0.12381572  0.33469724  1
  H+  H373  1  0.38789600  0.05225513  0.60623355  1
  H+  H374  1  0.42639763  0.33653272  0.93526042  1
  H+  H375  1  0.82938155  0.91087792  0.76666628  1
  H+  H376  1  0.69548509  0.56841964  0.60431858  1
  H+  H377  1  0.31339286  0.89710205  0.76478427  1
  H+  H378  1  0.45357817  0.57679862  0.23406510  1
  H+  H379  1  0.16121387  0.08317589  0.93783644  1
  H+  H380  1  0.56693657  0.92479659  0.74270302  1
  H+  H381  1  0.59632210  0.90633242  0.40043438  1
  H+  H382  1  0.14832453  0.32708153  0.89846699  1
  H+  H383  1  0.64023042  0.66357764  0.75958759  1
  O2-  O384  1  0.09882685  0.17743059  0.15206119  1
  O2-  O385  1  0.08736258  0.17121521  0.47261892  1
  O2-  O386  1  0.08303110  0.16392952  0.80997169  1
  O2-  O387  1  0.07652598  0.41306587  0.14350664  1
  O2-  O388  1  0.08118472  0.42238587  0.47909820  1
  O2-  O389  1  0.08178890  0.42423948  0.80301693  1
  O2-  O390  1  0.07501176  0.67111796  0.14658373  1
  O2-  O391  1  0.09904114  0.67723872  0.47455712  1
  O2-  O392  1  0.07483325  0.66032069  0.81786265  1
  O2-  O393  1  0.08986941  0.92241520  0.15165084  1
  O2-  O394  1  0.09157587  0.92003874  0.51535162  1
  O2-  O395  1  0.08148953  0.92013843  0.81071786  1
  O2-  O396  1  0.33729737  0.17316562  0.15151418  1
  O2-  O397  1  0.32553510  0.16074433  0.48682745  1
  O2-  O398  1  0.33159954  0.16078176  0.81493505  1
  O2-  O399  1  0.33902506  0.41631479  0.14445180  1
  O2-  O400  1  0.32695128  0.42774598  0.51538095  1
  O2-  O401  1  0.31810501  0.40328354  0.81590867  1
  O2-  O402  1  0.29394299  0.71089756  0.10741253  1
  O2-  O403  1  0.33751792  0.68957714  0.47555133  1
  O2-  O404  1  0.32130843  0.66158478  0.81366619  1
  O2-  O405  1  0.33474758  0.91939794  0.15853939  1
  O2-  O406  1  0.35445272  0.93009072  0.48386706  1
  O2-  O407  1  0.31845193  0.90121816  0.81002719  1
  O2-  O408  1  0.57497814  0.15910453  0.15649460  1
  O2-  O409  1  0.59131098  0.17184698  0.45054585  1
  O2-  O410  1  0.57809705  0.16430254  0.80915503  1
  O2-  O411  1  0.58732764  0.42430980  0.12930387  1
  O2-  O412  1  0.57877752  0.40208781  0.47097918  1
  O2-  O413  1  0.57736390  0.41654571  0.82854111  1
  O2-  O414  1  0.60871682  0.65489237  0.13370964  1
  O2-  O415  1  0.56577711  0.71166913  0.46545906  1
  O2-  O416  1  0.67808364  0.68298663  0.79593822  1
  O2-  O417  1  0.57835925  0.91421067  0.15173878  1
  O2-  O418  1  0.58333698  0.92310124  0.47546156  1
  O2-  O419  1  0.57695729  0.91642906  0.81122057  1
  O2-  O420  1  0.82991801  0.12891392  0.14104330  1
  O2-  O421  1  0.83743670  0.16923342  0.47376419  1
  O2-  O422  1  0.85178816  0.18928049  0.81919620  1
  O2-  O423  1  0.82615489  0.42871996  0.15182252  1
  O2-  O424  1  0.82732132  0.41142297  0.46673500  1
  O2-  O425  1  0.82869033  0.41313905  0.81849505  1
  O2-  O426  1  0.86457485  0.64294497  0.15178172  1
  O2-  O427  1  0.84482196  0.67309180  0.47277086  1
  O2-  O428  1  0.81352476  0.66823819  0.82211929  1
  O2-  O429  1  0.84212577  0.90197092  0.13873636  1
  O2-  O430  1  0.83791431  0.92140721  0.48487785  1
  O2-  O431  1  0.82740053  0.91283788  0.81223325  1
  O2-  O432  1  0.17607237  0.09753922  0.19739720  1
  O2-  O433  1  0.16000812  0.08792260  0.52001136  1
  O2-  O434  1  0.16384218  0.08240807  0.85706307  1
  O2-  O435  1  0.17304388  0.34471104  0.18307042  1
  O2-  O436  1  0.15817485  0.33359340  0.52015201  1
  O2-  O437  1  0.15134989  0.32793312  0.85343842  1
  O2-  O438  1  0.14726175  0.57501559  0.19137937  1
  O2-  O439  1  0.09357508  0.55216847  0.54480575  1
  O2-  O440  1  0.16170417  0.58042957  0.85939017  1
  O2-  O441  1  0.16936572  0.83488596  0.18984229  1
  O2-  O442  1  0.19086054  0.84507650  0.50669790  1
  O2-  O443  1  0.15574475  0.82623791  0.85102434  1
  O2-  O444  1  0.41642822  0.08842795  0.19549283  1
  O2-  O445  1  0.39971352  0.08327151  0.53003860  1
  O2-  O446  1  0.41015941  0.07014370  0.84673465  1
  O2-  O447  1  0.43215822  0.33822840  0.18178184  1
  O2-  O448  1  0.41066444  0.32704201  0.52880394  1
  O2-  O449  1  0.40979883  0.32533510  0.85607227  1
  O2-  O450  1  0.47117079  0.56384537  0.19498161  1
  O2-  O451  1  0.39021342  0.59661733  0.54111282  1
  O2-  O452  1  0.40457177  0.57206583  0.85349040  1
  O2-  O453  1  0.41234533  0.83105339  0.20802468  1
  O2-  O454  1  0.42454797  0.84912413  0.51919820  1
  O2-  O455  1  0.41171692  0.82839695  0.85197411  1
  O2-  O456  1  0.66832101  0.07574387  0.18990196  1
  O2-  O457  1  0.66378536  0.09018410  0.50828064  1
  O2-  O458  1  0.64996683  0.06831276  0.85538089  1
  O2-  O459  1  0.66856556  0.34777869  0.22549722  1
  O2-  O460  1  0.66235234  0.32231668  0.51733823  1
  O2-  O461  1  0.65917817  0.32803725  0.85444499  1
  O2-  O462  1  0.69716320  0.57938747  0.17704285  1
  O2-  O463  1  0.72110514  0.53212707  0.53690157  1
  O2-  O464  1  0.67529542  0.56683449  0.88739026  1
  O2-  O465  1  0.69544928  0.88761097  0.20211711  1
  O2-  O466  1  0.66966959  0.85731347  0.53001824  1
  O2-  O467  1  0.67266720  0.85251074  0.86333294  1
  O2-  O468  1  0.94589826  0.12423878  0.20259963  1
  O2-  O469  1  0.93174467  0.09467367  0.51303638  1
  O2-  O470  1  0.91688967  0.07924252  0.84594049  1
  O2-  O471  1  0.91169422  0.33863295  0.18628657  1
  O2-  O472  1  0.91625557  0.33411759  0.51602832  1
  O2-  O473  1  0.92118559  0.34535645  0.85921635  1
  O2-  O474  1  0.89965376  0.59401462  0.18235083  1
  O2-  O475  1  0.92376777  0.57400264  0.54278433  1
  O2-  O476  1  0.91042219  0.58089124  0.85042268  1
  O2-  O477  1  0.92712166  0.82060098  0.18666445  1
  O2-  O478  1  0.91204011  0.82960982  0.52805503  1
  O2-  O479  1  0.91597060  0.83615124  0.85536813  1
  O2-  O480  1  0.17372130  0.08909204  0.31109155  1
  O2-  O481  1  0.17163487  0.09481556  0.64386356  1
  O2-  O482  1  0.16011239  0.07811482  0.98295937  1
  O2-  O483  1  0.15728709  0.33574838  0.30743833  1
  O2-  O484  1  0.15749988  0.33914848  0.64212457  1
  O2-  O485  1  0.14295139  0.32266718  0.98349056  1
  O2-  O486  1  0.16456164  0.58028165  0.30626978  1
  O2-  O487  1  0.15946087  0.57706398  0.59250668  1
  O2-  O488  1  0.16251795  0.58180121  0.98037659  1
  O2-  O489  1  0.17635364  0.82455745  0.31049699  1
  O2-  O490  1  0.15211541  0.84302235  0.62850300  1
  O2-  O491  1  0.18451763  0.86032522  0.97705749  1
  O2-  O492  1  0.41869485  0.07880672  0.31593879  1
  O2-  O493  1  0.39380527  0.04964067  0.65101464  1
  O2-  O494  1  0.43235461  0.11412132  0.96604307  1
  O2-  O495  1  0.41652892  0.31837029  0.30601174  1
  O2-  O496  1  0.40289375  0.33412648  0.65331242  1
  O2-  O497  1  0.43730084  0.34123078  0.97991272  1
  O2-  O498  1  0.42449223  0.58116601  0.31611675  1
  O2-  O499  1  0.41453725  0.58741800  0.67193689  1
  O2-  O500  1  0.40954715  0.57190259  0.97400756  1
  O2-  O501  1  0.42038310  0.82714785  0.27443599  1
  O2-  O502  1  0.39626945  0.82431417  0.64580528  1
  O2-  O503  1  0.42751446  0.82992141  0.97563665  1
  O2-  O504  1  0.66444294  0.06103461  0.31170622  1
  O2-  O505  1  0.67637526  0.07132435  0.63633273  1
  O2-  O506  1  0.66801998  0.07843548  0.98376612  1
  O2-  O507  1  0.67712767  0.33482014  0.29079439  1
  O2-  O508  1  0.64780262  0.32000660  0.64685935  1
  O2-  O509  1  0.65527863  0.30169620  0.97926659  1
  O2-  O510  1  0.67306809  0.56396821  0.29901853  1
  O2-  O511  1  0.69116316  0.59280561  0.64374942  1
  O2-  O512  1  0.66684948  0.57295506  0.95399379  1
  O2-  O513  1  0.59230602  0.79253119  0.29107536  1
  O2-  O514  1  0.68338270  0.82693679  0.64947610  1
  O2-  O515  1  0.67287442  0.85100636  0.97330685  1
  O2-  O516  1  0.95937491  0.16687295  0.26035734  1
  O2-  O517  1  0.91213576  0.07596199  0.66291617  1
  O2-  O518  1  0.94039790  0.12110054  0.96729634  1
  O2-  O519  1  0.91725671  0.33255360  0.30631280  1
  O2-  O520  1  0.91832531  0.33439710  0.63947890  1
  O2-  O521  1  0.90771842  0.33863159  0.98226245  1
  O2-  O522  1  0.91691356  0.58485874  0.30734959  1
  O2-  O523  1  1.01471929  0.68729688  0.64455468  1
  O2-  O524  1  0.90794836  0.58060554  0.98285742  1
  O2-  O525  1  0.92774309  0.82914556  0.31079533  1
  O2-  O526  1  0.92032516  0.83457542  0.65167853  1
  O2-  O527  1  0.92935437  0.83401013  0.97649763  1
  O2-  O528  1  0.08760796  0.16551315  0.03343270  1
  O2-  O529  1  0.05991539  0.13121825  0.34759686  1
  O2-  O530  1  0.08701704  0.17785448  0.68664123  1
  O2-  O531  1  0.07228282  0.41902352  0.02308521  1
  O2-  O532  1  0.08171182  0.42045660  0.35250340  1
  O2-  O533  1  0.08401005  0.43358524  0.67428745  1
  O2-  O534  1  0.08431865  0.66692988  0.02275273  1
  O2-  O535  1  0.08329259  0.65722849  0.34513822  1
  O2-  O536  1  0.10479126  0.63282180  0.71086927  1
  O2-  O537  1  0.08925081  0.91708017  0.02435342  1
  O2-  O538  1  0.09045081  0.90410724  0.34994322  1
  O2-  O539  1  0.08724739  0.93236880  0.68838616  1
  O2-  O540  1  0.31782902  0.12086468  0.03200662  1
  O2-  O541  1  0.32459279  0.15218058  0.35079031  1
  O2-  O542  1  0.34070490  0.15431803  0.68777713  1
  O2-  O543  1  0.32058879  0.40844465  -0.00155789  1
  O2-  O544  1  0.33265631  0.41805063  0.29060460  1
  O2-  O545  1  0.31862853  0.42247431  0.69298747  1
  O2-  O546  1  0.33305539  0.65955329  0.00776856  1
  O2-  O547  1  0.34041710  0.67308219  0.33937073  1
  O2-  O548  1  0.25828868  0.67050970  0.70376183  1
  O2-  O549  1  0.31676576  0.85560781  0.04709173  1
  O2-  O550  1  0.35033058  0.90278350  0.33000794  1
  O2-  O551  1  0.30211133  0.88910956  0.68758566  1
  O2-  O552  1  0.58329530  0.15166553  0.03099645  1
  O2-  O553  1  0.58753903  0.16238826  0.33316583  1
  O2-  O554  1  0.56137228  0.15072691  0.68087891  1
  O2-  O555  1  0.59252682  0.42707136  0.01953542  1
  O2-  O556  1  0.58332479  0.39836203  0.34224485  1
  O2-  O557  1  0.54789606  0.38815792  0.70399193  1
  O2-  O558  1  0.56940473  0.63936532  0.00829163  1
  O2-  O559  1  0.58430723  0.64752125  0.33336689  1
  O2-  O560  1  0.59036591  0.64923566  0.68647283  1
  O2-  O561  1  0.58931942  0.91775208  0.02581381  1
  O2-  O562  1  0.60981732  0.90857918  0.35610333  1
  O2-  O563  1  0.55975248  0.92763748  0.69578247  1
  O2-  O564  1  0.84098578  0.17487366  0.01867410  1
  O2-  O565  1  0.81744571  0.16039628  0.35011276  1
  O2-  O566  1  0.84110163  0.17804051  0.69418413  1
  O2-  O567  1  0.81857456  0.41662264  0.02832923  1
  O2-  O568  1  0.83389809  0.41739453  0.34526985  1
  O2-  O569  1  0.80453852  0.37540811  0.69457269  1
  O2-  O570  1  0.80806945  0.67972899  0.01892304  1
  O2-  O571  1  0.83249803  0.66183848  0.35271661  1
  O2-  O572  1  0.87033249  0.67552853  0.69251471  1
  O2-  O573  1  0.79505521  0.83821144  0.03096699  1
  O2-  O574  1  0.94447758  0.96757100  0.38198484  1
  O2-  O575  1  0.83686694  0.91592287  0.69017808  1
