# generated using pymatgen
data_H2O
_symmetry_space_group_name_H-M   'P 1'
_cell_length_a   17.99558808
_cell_length_b   18.00274951
_cell_length_c   22.01894535
_cell_angle_alpha   90.00205995
_cell_angle_beta   90.00030617
_cell_angle_gamma   120.00925923
_symmetry_Int_Tables_number   1
_chemical_formula_structural   H2O
_chemical_formula_sum   'H384 O192'
_cell_volume   6177.19767216
_cell_formula_units_Z   192
loop_
 _symmetry_equiv_pos_site_id
 _symmetry_equiv_pos_as_xyz
  1  'x, y, z'
loop_
 _atom_type_symbol
 _atom_type_oxidation_number
  H+  1.0
  O2-  -2.0
loop_
 _atom_site_type_symbol
 _atom_site_label
 _atom_site_symmetry_multiplicity
 _atom_site_fract_x
 _atom_site_fract_y
 _atom_site_fract_z
 _atom_site_occupancy
  H+  H0  1  0.64065053  0.10079193  1.02448030  1
  H+  H1  1  0.86815172  0.86427875  0.49486537  1
  H+  H2  1  0.38003434  1.02499392  0.16818932  1
  H+  H3  1  0.52092158  0.11458064  0.02052068  1
  H+  H4  1  0.90097245  0.62718082  0.48978617  1
  H+  H5  1  0.84506089  0.47149815  0.47787381  1
  H+  H6  1  0.16019177  0.90709238  0.16906906  1
  H+  H7  1  0.49185728  0.85028449  -0.01137661  1
  H+  H8  1  0.63481417  0.51640286  0.16728616  1
  H+  H9  1  0.79652905  0.01959998  0.22614097  1
  H+  H10  1  0.11537763  0.22592677  0.83477478  1
  H+  H11  1  0.39540057  0.76458807  0.65556260  1
  H+  H12  1  0.47414238  0.60663266  0.18249312  1
  H+  H13  1  0.27845229  0.40650982  0.00425377  1
  H+  H14  1  0.66689011  0.37148080  0.51455017  1
  H+  H15  1  0.73711313  0.11081640  0.80857166  1
  H+  H16  1  0.63675323  0.02605459  0.17862245  1
  H+  H17  1  0.88869429  0.60763099  0.32564720  1
  H+  H18  1  0.39044379  0.36439228  0.17700241  1
  H+  H19  1  0.62566011  0.50635105  0.31841456  1
  H+  H20  1  0.39333219  0.75738153  0.99666382  1
  H+  H21  1  0.49808748  0.11205562  0.49720728  1
  H+  H22  1  0.87869159  0.97226919  0.34395303  1
  H+  H23  1  0.14629444  0.53315403  0.49479925  1
  H+  H24  1  0.63605081  0.71787977  0.33631267  1
  H+  H25  1  0.38764351  0.00546833  0.99961162  1
  H+  H26  1  0.36114867  0.89260335  0.33498961  1
  H+  H27  1  0.93376931  0.08056653  0.99847746  1
  H+  H28  1  0.47024660  0.10715418  0.65720660  1
  H+  H29  1  0.61133914  0.38236829  0.15054601  1
  H+  H30  1  0.96796749  0.36632924  0.17040635  1
  H+  H31  1  0.81340293  0.63047834  0.49746661  1
  H+  H32  1  0.60936614  0.95857414  0.68059673  1
  H+  H33  1  0.35976701  0.13685810  0.84435337  1
  H+  H34  1  0.66701164  0.33651866  0.22051002  1
  H+  H35  1  0.29448728  0.63062695  0.01266583  1
  H+  H36  1  0.27008915  0.13957883  0.33502714  1
  H+  H37  1  0.86953751  0.35508766  0.84844115  1
  H+  H38  1  0.39682586  0.77653757  0.18327548  1
  H+  H39  1  0.35217577  0.37852493  0.49536578  1
  H+  H40  1  0.87912358  0.60489547  0.82834602  1
  H+  H41  1  0.53964695  0.63046447  0.33592342  1
  H+  H42  1  0.88611674  0.85932638  0.17280126  1
  H+  H43  1  0.87401449  0.25137608  0.49351964  1
  H+  H44  1  0.76631035  0.12290397  0.66294010  1
  H+  H45  1  0.77972876  0.63001094  0.34390216  1
  H+  H46  1  0.35469310  0.87973741  0.85021155  1
  H+  H47  1  0.77830874  0.88089424  0.16171853  1
  H+  H48  1  0.87613200  0.64131024  0.66078734  1
  H+  H49  1  0.74561975  0.85256991  0.97785046  1
  H+  H50  1  0.00385724  0.86590911  0.49923765  1
  H+  H51  1  0.23418354  0.60841521  0.18348960  1
  H+  H52  1  0.65214691  0.77564449  -0.02983178  1
  H+  H53  1  0.41611174  0.01563399  0.50005198  1
  H+  H54  1  0.11465758  0.88641959  0.33234716  1
  H+  H55  1  0.02644569  0.88170043  0.82235492  1
  H+  H56  1  0.24635012  0.69016907  0.31717968  1
  H+  H57  1  0.63533156  0.25772017  0.48615826  1
  H+  H58  1  0.35789161  0.42989483  -0.03598699  1
  H+  H59  1  0.61731489  0.46554989  0.66980007  1
  H+  H60  1  0.86037965  0.41135230  0.00222094  1
  H+  H61  1  0.13308026  0.12796012  0.03175602  1
  H+  H62  1  0.14175832  0.67525825  0.65927860  1
  H+  H63  1  0.91589108  0.82305328  0.22947200  1
  H+  H64  1  0.13902170  0.77515118  0.30865895  1
  H+  H65  1  0.89333486  0.77019955  0.82688289  1
  H+  H66  1  0.28714528  0.38799100  0.67741048  1
  H+  H67  1  0.37334217  0.62784544  0.66046776  1
  H+  H68  1  0.27124067  0.89112786  0.33063517  1
  H+  H69  1  0.36484143  0.47763539  0.16368339  1
  H+  H70  1  0.01269758  0.15802410  0.08654824  1
  H+  H71  1  0.83868788  0.02809961  0.97438898  1
  H+  H72  1  0.08973433  0.93571330  -0.00506839  1
  H+  H73  1  0.84609582  0.65648993  0.40021620  1
  H+  H74  1  0.76466429  0.63223529  0.81304988  1
  H+  H75  1  0.57742120  0.15951587  0.73387214  1
  H+  H76  1  0.41282893  0.79565422  0.33626409  1
  H+  H77  1  0.30953783  0.16195263  0.43455071  1
  H+  H78  1  0.64076772  0.05789852  0.61447996  1
  H+  H79  1  0.07572347  0.12197359  0.15548582  1
  H+  H80  1  0.35006454  0.24989164  0.50764022  1
  H+  H81  1  0.20565552  0.45827868  0.97417255  1
  H+  H82  1  0.36872543  0.63663383  0.17256505  1
  H+  H83  1  0.38518128  0.03056007  0.32326316  1
  H+  H84  1  0.22524584  0.11658538  0.65230143  1
  H+  H85  1  0.11348799  -0.02612472  0.82777021  1
  H+  H86  1  0.10012243  0.36986504  0.84772439  1
  H+  H87  1  0.37203811  0.33383938  0.98943525  1
  H+  H88  1  0.61229808  0.71747121  0.66849172  1
  H+  H89  1  0.27594586  0.90883482  0.48344358  1
  H+  H90  1  0.51998072  0.87077166  0.67302907  1
  H+  H91  1  0.11654358  0.39483755  0.49370338  1
  H+  H92  1  0.51816077  0.12539311  0.83113107  1
  H+  H93  1  0.48252537  0.61053415  0.50367562  1
  H+  H94  1  0.90642503  0.13940809  0.50417917  1
  H+  H95  1  0.39258527  0.36001734  0.66738498  1
  H+  H96  1  0.95206866  0.60521217  0.58237379  1
  H+  H97  1  0.45286597  0.36792864  0.83205089  1
  H+  H98  1  0.77974568  0.14513904  0.34186017  1
  H+  H99  1  0.87256190  0.35465738  0.65650110  1
  H+  H100  1  0.44338033  0.33234163  0.51234867  1
  H+  H101  1  0.89680371  0.17672827  0.03681475  1
  H+  H102  1  0.61252661  0.21534163  0.67261324  1
  H+  H103  1  0.59751253  0.58432535  0.50919275  1
  H+  H104  1  0.03208947  0.15920250  0.49027180  1
  H+  H105  1  0.92242338  0.77174785  0.50241680  1
  H+  H106  1  0.09706801  0.59555462  0.31462488  1
  H+  H107  1  0.25668085  0.96660473  0.19451957  1
  H+  H108  1  0.85658554  0.46824436  0.33436324  1
  H+  H109  1  0.61841687  0.33400343  1.00048007  1
  H+  H110  1  0.14852368  0.97034198  0.47107752  1
  H+  H111  1  0.12151862  0.22918749  0.33862301  1
  H+  H112  1  0.27315458  0.43914108  0.78910088  1
  H+  H113  1  0.88216126  0.51891001  0.83601629  1
  H+  H114  1  0.10106860  0.02052791  0.51675010  1
  H+  H115  1  0.78903291  0.88168170  0.80754696  1
  H+  H116  1  0.66052985  0.65378425  0.00710178  1
  H+  H117  1  0.60774253  0.12616211  0.82178346  1
  H+  H118  1  0.63756314  0.77085601  0.17804536  1
  H+  H119  1  0.62705631  0.84177727  0.65928820  1
  H+  H120  1  0.89913992  0.11852090  0.64941103  1
  H+  H121  1  0.22347791  0.10749273  0.84641644  1
  H+  H122  1  0.09088175  0.08792615  1.02615626  1
  H+  H123  1  0.14058758  0.43457597  0.76558830  1
  H+  H124  1  0.72827164  0.37207303  0.31339782  1
  H+  H125  1  0.47263225  0.12194528  0.31737606  1
  H+  H126  1  0.37417463  0.38737374  0.34040926  1
  H+  H127  1  0.24506375  0.12876701  0.49238644  1
  H+  H128  1  0.13561656  0.11075692  0.32608568  1
  H+  H129  1  0.15039394  0.28814065  0.66540520  1
  H+  H130  1  0.42913356  0.07590322  0.59327456  1
  H+  H131  1  0.39603683  0.09814109  1.00584674  1
  H+  H132  1  0.91159736  0.25739516  0.31800728  1
  H+  H133  1  0.01181261  0.37244346  0.84120466  1
  H+  H134  1  0.62966788  0.17188617  0.45578745  1
  H+  H135  1  0.07867612  0.73066604  0.15840779  1
  H+  H136  1  0.38970730  0.64806423  1.01915619  1
  H+  H137  1  0.76079841  0.36736915  0.84121574  1
  H+  H138  1  0.15252708  0.62479391  0.48584000  1
  H+  H139  1  0.87814908  0.28070194  0.17453557  1
  H+  H140  1  0.02860426  0.39760738  0.49001590  1
  H+  H141  1  0.51692449  0.38562436  0.32838236  1
  H+  H142  1  0.64842130  0.76900705  0.82358953  1
  H+  H143  1  0.09138348  0.17587860  0.77043501  1
  H+  H144  1  1.02079826  0.64485307  0.81565099  1
  H+  H145  1  0.22451168  0.36338438  0.85028233  1
  H+  H146  1  0.13325902  0.86420329  0.48468111  1
  H+  H147  1  0.55128907  0.05218216  0.53477313  1
  H+  H148  1  0.13647614  0.86433385  0.84267680  1
  H+  H149  1  0.38897540  0.27274197  0.32708590  1
  H+  H150  1  0.86219078  -0.03074394  0.16794150  1
  H+  H151  1  0.47674990  0.89710731  0.33852609  1
  H+  H152  1  0.40453665  0.77464602  0.50935719  1
  H+  H153  1  0.85022986  0.49575500  0.00352110  1
  H+  H154  1  0.72579137  0.12074311  0.17739005  1
  H+  H155  1  0.86032035  0.51065351  0.16888306  1
  H+  H156  1  0.62219866  0.61301241  0.82923139  1
  H+  H157  1  0.41460831  0.54100465  1.00666094  1
  H+  H158  1  0.53336582  0.89597105  0.17139545  1
  H+  H159  1  0.03774892  0.37548778  0.33609316  1
  H+  H160  1  0.89183403  0.10907812  0.34127800  1
  H+  H161  1  0.15742601  0.52668687  0.00761636  1
  H+  H162  1  0.64578789  0.14155789  0.32433256  1
  H+  H163  1  0.58941555  0.47192264  0.81559260  1
  H+  H164  1  0.87257209  0.72754139  0.66363927  1
  H+  H165  1  0.61789844  0.62966804  0.67392107  1
  H+  H166  1  0.72136691  0.61207299  0.16665929  1
  H+  H167  1  0.94805536  0.53754857  0.51358411  1
  H+  H168  1  1.03624681  0.15502750  0.67402316  1
  H+  H169  1  0.63418233  0.34919050  0.65432359  1
  H+  H170  1  0.36943582  0.50800931  0.83564875  1
  H+  H171  1  0.50174096  0.35919438  -0.00417254  1
  H+  H172  1  0.59710808  0.45690664  0.48536506  1
  H+  H173  1  0.37829528  0.76241811  0.84215194  1
  H+  H174  1  0.35287737  0.86888808  -0.00154011  1
  H+  H175  1  0.50554691  0.62579627  1.00212735  1
  H+  H176  1  0.05450258  0.67849183  0.65741566  1
  H+  H177  1  0.63159528  0.25733522  0.84657833  1
  H+  H178  1  1.01027919  0.39427196  1.02534276  1
  H+  H179  1  0.88972334  0.37536231  0.49909521  1
  H+  H180  1  0.24026386  0.63379935  0.64410445  1
  H+  H181  1  0.98567325  0.11296006  0.83476086  1
  H+  H182  1  0.15059657  0.51313206  0.18007504  1
  H+  H183  1  0.66482666  0.84757047  0.33460659  1
  H+  H184  1  0.28482381  0.88979171  0.15252761  1
  H+  H185  1  0.87939423  0.13132117  0.81685245  1
  H+  H186  1  -0.00991673  0.64453985  0.16034225  1
  H+  H187  1  0.37421815  0.21679415  -0.00037883  1
  H+  H188  1  0.12953715  0.73511447  0.47100938  1
  H+  H189  1  0.20776710  0.05971267  0.99633914  1
  H+  H190  1  0.11650915  0.15256267  0.49499811  1
  H+  H191  1  0.91295712  0.34673882  0.94463018  1
  H+  H192  1  0.36198207  0.36537377  0.83711915  1
  H+  H193  1  0.19105514  0.56362626  0.93922544  1
  H+  H194  1  0.11973875  0.36902343  0.17949219  1
  H+  H195  1  0.59149804  0.96333002  0.81751398  1
  H+  H196  1  0.36713226  0.47491525  0.49285476  1
  H+  H197  1  0.71461093  0.35282274  1.00243428  1
  H+  H198  1  0.87694050  0.93388391  -0.00757957  1
  H+  H199  1  0.07950703  0.84615298  0.00143834  1
  H+  H200  1  0.22790304  0.37513956  0.50776605  1
  H+  H201  1  0.99058320  0.86309170  0.65928036  1
  H+  H202  1  0.34532630  0.89910087  0.75624019  1
  H+  H203  1  0.57363652  0.65619046  0.76070528  1
  H+  H204  1  0.87494455  0.26872722  0.64664824  1
  H+  H205  1  0.32551902  0.66012390  0.34803932  1
  H+  H206  1  0.29597426  0.88890316  0.69522246  1
  H+  H207  1  0.94387966  0.86033083  0.98879775  1
  H+  H208  1  0.56190658  0.35785406  0.46847172  1
  H+  H209  1  0.88940574  0.07022480  0.25292948  1
  H+  H210  1  0.62118280  0.23097009  0.16321303  1
  H+  H211  1  0.88308252  0.29416758  0.00656550  1
  H+  H212  1  0.62017050  0.87487976  0.99140284  1
  H+  H213  1  0.94385724  0.74056156  0.00822023  1
  H+  H214  1  0.73473953  0.58131103  0.96176445  1
  H+  H215  1  0.14060717  0.28680780  0.50878384  1
  H+  H216  1  0.14814581  0.08237993  0.57402860  1
  H+  H217  1  0.13131455  0.90965341  0.67668273  1
  H+  H218  1  0.39723564  0.51452817  0.65954617  1
  H+  H219  1  0.47819244  0.36423736  0.17546026  1
  H+  H220  1  0.79478475  0.14556881  1.02603142  1
  H+  H221  1  0.94342772  0.55805546  0.64729410  1
  H+  H222  1  0.59241567  0.44259472  -0.00810435  1
  H+  H223  1  0.72936000  0.84431051  0.50421005  1
  H+  H224  1  0.37191985  0.63193992  0.49865686  1
  H+  H225  1  0.13248456  0.03242247  0.66294214  1
  H+  H226  1  0.83990003  0.67380404  1.00674263  1
  H+  H227  1  0.41701634  0.61950779  0.33828532  1
  H+  H228  1  0.60949798  -0.04764431  1.01696201  1
  H+  H229  1  0.38554960  0.02095575  0.85236212  1
  H+  H230  1  0.35453152  0.12628808  0.65187091  1
  H+  H231  1  0.62239712  0.13393268  0.16982311  1
  H+  H232  1  0.23226226  0.35441359  0.17103094  1
  H+  H233  1  0.59982215  0.89629426  0.29392214  1
  H+  H234  1  0.13811715  0.38249412  1.00984212  1
  H+  H235  1  0.63948970  0.37561833  0.30758007  1
  H+  H236  1  0.83191053  0.45705863  0.69411122  1
  H+  H237  1  0.63067190  0.09974270  0.67383558  1
  H+  H238  1  -0.01593568  0.11521280  0.33426449  1
  H+  H239  1  0.89322068  0.90404402  0.65846693  1
  H+  H240  1  0.62262659  0.89790992  0.17205055  1
  H+  H241  1  0.79065309  0.15758014  0.49943639  1
  H+  H242  1  0.64818394  0.12482045  0.53678098  1
  H+  H243  1  0.09514156  0.21764136  0.15867224  1
  H+  H244  1  0.21398406  0.59699178  0.84829462  1
  H+  H245  1  0.98667414  0.85898866  0.32363378  1
  H+  H246  1  0.73541470  0.60884004  0.65423664  1
  H+  H247  1  0.09071062  0.66906915  0.38579206  1
  H+  H248  1  0.35102902  0.22055341  0.83713919  1
  H+  H249  1  0.59817215  1.01541999  0.35588637  1
  H+  H250  1  0.53275225  0.88018570  0.49717395  1
  H+  H251  1  0.23106174  0.66974140  0.34797014  1
  H+  H252  1  0.84635577  0.64678288  0.13091410  1
  H+  H253  1  0.12967355  0.77157573  0.83797304  1
  H+  H254  1  0.89790826  0.22349765  0.79403226  1
  H+  H255  1  0.26664514  0.88159791  0.84399616  1
  H+  H256  1  0.35793701  0.21571478  0.66306407  1
  H+  H257  1  0.89783102  0.86030660  0.82523465  1
  H+  H258  1  0.72304379  0.35988061  0.15908055  1
  H+  H259  1  0.35880723  0.14014102  0.33942830  1
  H+  H260  1  0.89667882  0.76913370  0.32608114  1
  H+  H261  1  0.39335622  0.85084293  0.67023219  1
  H+  H262  1  0.18746676  0.42624439  0.70639461  1
  H+  H263  1  0.60927920  0.20695445  0.01972272  1
  H+  H264  1  0.16657704  0.80588316  0.65998104  1
  H+  H265  1  0.85014578  0.13813341  0.17920207  1
  H+  H266  1  0.11023968  1.01698351  0.16415081  1
  H+  H267  1  0.12765398  0.51074521  0.85964443  1
  H+  H268  1  0.97836277  0.63619028  0.00350376  1
  H+  H269  1  0.09554998  0.71653270  0.00390881  1
  H+  H270  1  0.86142286  0.26397669  0.86451091  1
  H+  H271  1  0.62001328  0.72235322  0.49176062  1
  H+  H272  1  0.10267520  0.50046548  0.31969653  1
  H+  H273  1  0.76547390  0.37439569  0.49417542  1
  H+  H274  1  0.06068734  0.38428361  0.22342553  1
  H+  H275  1  0.85930987  0.39277876  0.15100416  1
  H+  H276  1  0.75705053  0.85539038  0.33098458  1
  H+  H277  1  0.61189524  0.24398263  0.31797719  1
  H+  H278  1  0.86374463  0.93254229  0.71708178  1
  H+  H279  1  0.88301199  0.88404804  0.33671302  1
  H+  H280  1  1.01577225  0.87402518  0.15457277  1
  H+  H281  1  0.51268250  0.62775860  0.82088459  1
  H+  H282  1  0.24225621  0.36699518  0.32784155  1
  H+  H283  1  0.02129983  0.63784317  0.33081085  1
  H+  H284  1  0.57252883  0.85863014  0.31418673  1
  H+  H285  1  0.03422723  0.20404419  0.02038893  1
  H+  H286  1  0.60825102  0.62465000  0.16703234  1
  H+  H287  1  0.20856878  0.84379313  0.99180826  1
  H+  H288  1  0.34163829  0.41596008  0.40018047  1
  H+  H289  1  0.67940937  0.82689756  0.23699098  1
  H+  H290  1  0.57228149  0.64939023  0.10998508  1
  H+  H291  1  0.42479472  0.84270200  0.23901827  1
  H+  H292  1  0.42499957  0.08059273  0.90975616  1
  H+  H293  1  0.66162956  0.57054259  0.60238062  1
  H+  H294  1  0.12253801  0.15175126  0.67630543  1
  H+  H295  1  0.58283585  0.15784223  0.10639424  1
  H+  H296  1  0.04307049  0.64432944  0.47999126  1
  H+  H297  1  0.06619469  0.89882691  0.09160804  1
  H+  H298  1  0.09261885  0.17618632  0.40051401  1
  H+  H299  1  0.08685857  0.91229624  0.39535448  1
  H+  H300  1  0.48669436  0.60433195  0.65729509  1
  H+  H301  1  0.18116345  0.61241371  0.58608840  1
  H+  H302  1  0.87550598  -0.02771901  0.81387485  1
  H+  H303  1  0.83825450  0.89355250  0.43644034  1
  H+  H304  1  0.40488897  0.52353173  0.33496076  1
  H+  H305  1  0.38180330  0.07144230  0.22985747  1
  H+  H306  1  0.65637329  0.81345269  0.59872299  1
  H+  H307  1  0.22711569  0.88811300  0.61663424  1
  H+  H308  1  0.61737369  0.96947266  0.50142790  1
  H+  H309  1  0.18037741  0.32490982  0.23397243  1
  H+  H310  1  0.64444660  0.85418933  0.50122579  1
  H+  H311  1  0.66697126  0.72510640  0.05019368  1
  H+  H312  1  0.33722516  0.65358101  0.71810651  1
  H+  H313  1  0.34499647  0.42338101  0.10226948  1
  H+  H314  1  0.41925031  0.81381138  0.92704131  1
  H+  H315  1  0.84010750  0.17634022  0.40077036  1
  H+  H316  1  0.75353902  0.36531653  0.67821781  1
  H+  H317  1  0.63771758  0.56890610  0.88685263  1
  H+  H318  1  0.13574526  1.02201809  0.32355084  1
  H+  H319  1  0.13409320  0.10811337  0.84462540  1
  H+  H320  1  0.40504535  0.32400740  0.60406264  1
  H+  H321  1  0.08931915  0.92498881  0.73545240  1
  H+  H322  1  0.36770386  0.87722781  0.15596274  1
  H+  H323  1  0.37140654  0.67892261  0.41164509  1
  H+  H324  1  0.26433300  0.56295328  0.77433405  1
  H+  H325  1  0.81567805  0.39246742  0.77909632  1
  H+  H326  1  0.57385347  0.40877455  0.09421756  1
  H+  H327  1  0.82826815  0.56868482  0.20127040  1
  H+  H328  1  0.47074420  0.85364820  0.83888411  1
  H+  H329  1  0.14077632  0.07508930  0.22352988  1
  H+  H330  1  0.83558297  0.15616715  0.71510412  1
  H+  H331  1  0.59412202  0.66030142  0.43235300  1
  H+  H332  1  0.93963650  0.83215363  0.59601666  1
  H+  H333  1  0.55997426  0.89480868  0.76457680  1
  H+  H334  1  0.56167825  0.40503116  0.76211534  1
  H+  H335  1  0.91609064  0.34530476  0.56123931  1
  H+  H336  1  0.93886664  0.10588075  0.55967654  1
  H+  H337  1  0.28551425  0.63848394  0.48990430  1
  H+  H338  1  0.43253593  0.83489858  0.56737541  1
  H+  H339  1  0.56970612  0.94870846  0.41192269  1
  H+  H340  1  0.32798439  0.89653645  0.06036939  1
  H+  H341  1  0.91717556  0.06942111  0.88944840  1
  H+  H342  1  0.76649329  0.67151021  0.93352723  1
  H+  H343  1  0.13573032  0.56203547  0.25186891  1
  H+  H344  1  0.83797500  0.17802166  0.11600977  1
  H+  H345  1  0.34640378  0.60749514  0.81613077  1
  H+  H346  1  0.08715995  0.68751892  0.76047019  1
  H+  H347  1  0.52575924  0.37811313  0.66606632  1
  H+  H348  1  0.58386489  0.19634422  0.38171060  1
  H+  H349  1  0.53859181  0.50624493  0.55128184  1
  H+  H350  1  0.05567229  0.66373361  0.06701280  1
  H+  H351  1  0.42603663  0.57637369  0.56535735  1
  H+  H352  1  0.84732761  0.72994761  0.15539742  1
  H+  H353  1  0.34286669  0.66950340  0.11320022  1
  H+  H354  1  0.41489444  0.57989251  0.89352000  1
  H+  H355  1  0.92750555  0.32631417  0.26650621  1
  H+  H356  1  0.65910994  0.30721069  0.90980981  1
  H+  H357  1  0.67308012  0.07467372  0.96786098  1
  H+  H358  1  0.16937398  0.34105295  0.91193558  1
  H+  H359  1  0.58914333  0.42178577  0.38358572  1
  H+  H360  1  0.41740375  0.57627252  0.24232964  1
  H+  H361  1  0.15188671  0.81683830  0.93088462  1
  H+  H362  1  0.67396297  0.32205869  0.59717731  1
  H+  H363  1  0.09216717  0.42141408  0.39757306  1
  H+  H364  1  0.68859603  0.83495372  0.87766397  1
  H+  H365  1  0.06221831  0.41032720  0.08769300  1
  H+  H366  1  0.91500774  0.03791990  0.65072399  1
  H+  H367  1  0.34190990  0.41840313  0.73896941  1
  H+  H368  1  0.91416764  0.57493281  0.26597761  1
  H+  H369  1  0.82810136  0.65998502  0.75578970  1
  H+  H370  1  0.82872613  0.42692348  0.09215148  1
  H+  H371  1  0.17869267  0.34985425  0.60705787  1
  H+  H372  1  0.63676476  0.60992336  0.32173132  1
  H+  H373  1  0.16180508  0.04066456  0.93035178  1
  H+  H374  1  0.41933942  0.33312001  0.26602124  1
  H+  H375  1  0.67082983  0.09805758  0.27169472  1
  H+  H376  1  0.69367632  0.07507065  0.87000829  1
  H+  H377  1  0.40032388  0.32327907  0.92173806  1
  H+  H378  1  0.17782617  0.85425115  0.25869937  1
  H+  H379  1  0.33154466  0.94152377  0.42292415  1
  H+  H380  1  0.66570090  0.57464478  0.25680141  1
  H+  H381  1  0.81697140  0.40434675  0.39012840  1
  H+  H382  1  0.15486221  0.36967567  0.32663540  1
  H+  H383  1  0.14871439  0.81532711  0.54334768  1
  O2-  O384  1  0.05078377  0.15994647  0.14495112  1
  O2-  O385  1  0.09511158  0.18865161  0.47619882  1
  O2-  O386  1  0.08545685  0.16783201  0.81576051  1
  O2-  O387  1  0.08346677  0.39845561  0.18195194  1
  O2-  O388  1  0.08847809  0.42486946  0.47374998  1
  O2-  O389  1  0.07382569  0.40353214  0.83171881  1
  O2-  O390  1  0.04824839  0.67208628  0.14293670  1
  O2-  O391  1  0.10037044  0.67321923  0.45705123  1
  O2-  O392  1  0.08243822  0.68282480  0.80503279  1
  O2-  O393  1  0.07416378  0.90775217  0.13637925  1
  O2-  O394  1  0.09864183  0.91359625  0.46488360  1
  O2-  O395  1  0.08916401  0.91507972  0.80975556  1
  O2-  O396  1  0.27955024  0.13510976  0.04657939  1
  O2-  O397  1  0.30605073  0.16273207  0.47964897  1
  O2-  O398  1  0.32255633  0.15853055  0.82897698  1
  O2-  O399  1  0.33691012  0.41810442  0.14626891  1
  O2-  O400  1  0.33138763  0.41531284  0.47631511  1
  O2-  O401  1  0.31271379  0.42730863  0.81301225  1
  O2-  O402  1  0.33963998  0.66852202  0.15823481  1
  O2-  O403  1  0.34878600  0.66724368  0.48059597  1
  O2-  O404  1  0.30432862  0.61908365  0.79394959  1
  O2-  O405  1  0.33937521  0.90310475  0.13186398  1
  O2-  O406  1  0.33045077  0.95499930  0.46659191  1
  O2-  O407  1  0.33013625  0.91405690  0.83442152  1
  O2-  O408  1  0.59008573  0.16601070  0.15296715  1
  O2-  O409  1  0.59703085  0.20158230  0.45823338  1
  O2-  O410  1  0.57685059  0.15698995  0.81192320  1
  O2-  O411  1  0.58359959  0.41654568  0.13875538  1
  O2-  O412  1  0.60428374  0.41658033  0.45770206  1
  O2-  O413  1  0.54999444  0.41136978  0.80523005  1
  O2-  O414  1  0.57696540  0.65551733  0.15428639  1
  O2-  O415  1  0.58731466  0.65973485  0.47692247  1
  O2-  O416  1  0.57398696  0.65773500  0.80652892  1
  O2-  O417  1  0.59494208  0.93090041  0.15920697  1
  O2-  O418  1  0.59428221  0.91402526  0.48035642  1
  O2-  O419  1  0.55253246  0.90216815  0.80947310  1
  O2-  O420  1  0.82907260  0.17546615  0.16099654  1
  O2-  O421  1  0.84533943  0.18923814  0.47847422  1
  O2-  O422  1  0.85190689  0.16403443  0.79805843  1
  O2-  O423  1  0.82541458  0.42068713  0.13766532  1
  O2-  O424  1  0.82629963  0.41130967  0.46959831  1
  O2-  O425  1  0.82196697  0.39826415  0.82404476  1
  O2-  O426  1  0.80947471  0.67187221  0.13514758  1
  O2-  O427  1  0.86650309  0.65628521  0.47419509  1
  O2-  O428  1  0.82560820  0.65933999  0.80110306  1
  O2-  O429  1  0.83977681  0.91188993  0.14998615  1
  O2-  O430  1  0.82723276  0.88189952  0.48026415  1
  O2-  O431  1  0.85135709  0.91476409  0.79529977  1
  O2-  O432  1  0.12698320  0.07460971  0.18006423  1
  O2-  O433  1  0.14288751  0.07987094  0.52736939  1
  O2-  O434  1  0.16023927  0.07370486  0.85792543  1
  O2-  O435  1  0.17340068  0.32292077  0.18871743  1
  O2-  O436  1  0.16893285  0.34714842  0.52528270  1
  O2-  O437  1  0.16429081  0.32697257  0.86807043  1
  O2-  O438  1  0.17166281  0.57308072  0.19312210  1
  O2-  O439  1  0.18127987  0.59527612  0.50540520  1
  O2-  O440  1  0.16438835  0.56952534  0.87620695  1
  O2-  O441  1  0.20769144  0.90509786  0.19124280  1
  O2-  O442  1  0.16555085  0.82958943  0.50111652  1
  O2-  O443  1  0.16212057  0.83008811  0.85939725  1
  O2-  O444  1  0.35366741  0.05391263  0.18940832  1
  O2-  O445  1  0.46941014  0.06019938  0.52284913  1
  O2-  O446  1  0.42139260  0.08248992  0.86477140  1
  O2-  O447  1  0.42106702  0.33688633  0.19494319  1
  O2-  O448  1  0.38489483  0.31219523  0.52562161  1
  O2-  O449  1  0.39442043  0.33800336  0.85240357  1
  O2-  O450  1  0.41335073  0.57670200  0.19691632  1
  O2-  O451  1  0.42264851  0.57684343  0.51953009  1
  O2-  O452  1  0.41170790  0.57575983  0.84923762  1
  O2-  O453  1  0.42620798  0.83869062  0.19357889  1
  O2-  O454  1  0.43864355  0.83520535  0.52238433  1
  O2-  O455  1  0.41142403  0.81769825  0.86273353  1
  O2-  O456  1  0.66413460  0.08972803  0.19137890  1
  O2-  O457  1  0.61278805  0.06280794  0.54013566  1
  O2-  O458  1  0.67986411  0.08086375  0.82826470  1
  O2-  O459  1  0.66230355  0.32730922  0.17465077  1
  O2-  O460  1  0.68614815  0.33063235  0.52347274  1
  O2-  O461  1  0.66612757  0.31506235  0.86540424  1
  O2-  O462  1  0.66242772  0.57511780  0.18666141  1
  O2-  O463  1  0.59409507  0.53267765  0.53072504  1
  O2-  O464  1  0.65530653  0.58355823  0.84481901  1
  O2-  O465  1  0.67203758  0.83071208  0.19248523  1
  O2-  O466  1  0.66679033  0.81683203  0.51655094  1
  O2-  O467  1  0.68977061  0.82969799  0.83330508  1
  O2-  O468  1  0.85585455  0.05732715  0.21362088  1
  O2-  O469  1  0.93931967  0.11081634  0.51443199  1
  O2-  O470  1  0.92201414  0.08035842  0.84510060  1
  O2-  O471  1  0.90748613  0.34434210  0.18151993  1
  O2-  O472  1  0.92276611  0.34831347  0.51532841  1
  O2-  O473  1  0.90124804  0.32555351  0.86756307  1
  O2-  O474  1  0.88048498  0.56890670  0.18913625  1
  O2-  O475  1  0.95518527  0.59464281  0.51725706  1
  O2-  O476  1  0.91538754  0.58136491  0.84277109  1
  O2-  O477  1  0.91119187  0.82169631  0.18421878  1
  O2-  O478  1  0.94493076  0.83068367  0.51788308  1
  O2-  O479  1  0.92675362  0.82970123  0.84204843  1
  O2-  O480  1  0.16588958  0.08234562  0.30811217  1
  O2-  O481  1  0.16029930  0.09098521  0.64430835  1
  O2-  O482  1  0.16569382  0.01387645  0.96884275  1
  O2-  O483  1  0.18219830  0.33691247  0.31152170  1
  O2-  O484  1  0.18604238  0.34931149  0.65187902  1
  O2-  O485  1  0.18773014  0.39650452  0.98281135  1
  O2-  O486  1  0.09811117  0.54460522  0.29243254  1
  O2-  O487  1  0.18214935  0.61977672  0.63073536  1
  O2-  O488  1  0.20948188  0.55440179  0.98230194  1
  O2-  O489  1  0.16891831  0.83818827  0.30293480  1
  O2-  O490  1  0.19961976  0.87147269  0.65615543  1
  O2-  O491  1  0.14845980  0.81077308  0.97717703  1
  O2-  O492  1  0.41023887  0.09063434  0.30753451  1
  O2-  O493  1  0.41485488  0.08255446  0.63559043  1
  O2-  O494  1  0.42614730  0.06805856  0.99036131  1
  O2-  O495  1  0.42241825  0.33425948  0.31263715  1
  O2-  O496  1  0.42110608  0.33035253  0.64771103  1
  O2-  O497  1  0.40643265  0.31415764  0.96724341  1
  O2-  O498  1  0.43977328  0.58413242  0.31894747  1
  O2-  O499  1  0.42623454  0.57285634  0.64021749  1
  O2-  O500  1  0.44455149  0.60087719  0.99168471  1
  O2-  O501  1  0.42427434  0.84948769  0.31637655  1
  O2-  O502  1  0.42447571  0.82729718  0.64575284  1
  O2-  O503  1  0.42538152  0.81768518  0.97551142  1
  O2-  O504  1  0.67602774  0.10830765  0.31626488  1
  O2-  O505  1  0.65811082  0.06627497  0.65808057  1
  O2-  O506  1  0.67610367  0.07401186  1.01198506  1
  O2-  O507  1  0.66948034  0.34584115  0.29205136  1
  O2-  O508  1  0.66631151  0.31889897  0.64324828  1
  O2-  O509  1  0.65482141  0.30780024  0.99261617  1
  O2-  O510  1  0.66439865  0.57299772  0.30379337  1
  O2-  O511  1  0.67178454  0.57495635  0.64656434  1
  O2-  O512  1  0.74856682  0.63976571  0.97200421  1
  O2-  O513  1  0.69386717  0.81935034  0.31655899  1
  O2-  O514  1  0.65215370  0.80736198  0.64348034  1
  O2-  O515  1  0.68690189  0.83759278  0.96285681  1
  O2-  O516  1  0.92124449  0.07913490  0.32407768  1
  O2-  O517  1  0.94136185  0.10085215  0.63781983  1
  O2-  O518  1  0.89537095  0.03469466  0.96830924  1
  O2-  O519  1  0.95694007  0.30909396  0.29610505  1
  O2-  O520  1  0.90256035  0.32981108  0.63422395  1
  O2-  O521  1  0.91191157  0.35348109  0.98975194  1
  O2-  O522  1  0.91940424  0.57740088  0.31090725  1
  O2-  O523  1  0.94885148  0.61066396  0.63075704  1
  O2-  O524  1  0.90792253  0.61726962  0.98825909  1
  O2-  O525  1  0.92477574  0.82746165  0.30822825  1
  O2-  O526  1  0.93175047  0.82977973  0.64105505  1
  O2-  O527  1  0.88213754  0.82927849  0.97615007  1
  O2-  O528  1  -0.01447147  0.16206608  0.04412871  1
  O2-  O529  1  0.08842972  0.16972229  0.35488886  1
  O2-  O530  1  0.09520299  0.18443294  0.69299857  1
  O2-  O531  1  0.06839774  0.41544010  0.04359529  1
  O2-  O532  1  0.09585777  0.42093357  0.35180842  1
  O2-  O533  1  0.19570997  0.46108010  0.74336429  1
  O2-  O534  1  0.05406540  0.65763982  0.02163782  1
  O2-  O535  1  0.08450366  0.66532369  0.33944677  1
  O2-  O536  1  0.11305682  0.70761953  0.67545955  1
  O2-  O537  1  0.04624757  0.87516307  0.01258115  1
  O2-  O538  1  0.08251269  0.91409323  0.34841224  1
  O2-  O539  1  0.09040114  0.92863534  0.68952304  1
  O2-  O540  1  0.36341125  0.16900910  0.02830235  1
  O2-  O541  1  0.32893738  0.17147150  0.35363784  1
  O2-  O542  1  0.31994821  0.15299931  0.66535026  1
  O2-  O543  1  0.34103314  0.42228180  0.00682764  1
  O2-  O544  1  0.34637151  0.42076143  0.35465866  1
  O2-  O545  1  0.34754960  0.41572106  0.69351775  1
  O2-  O546  1  0.35313671  0.67366959  0.02989112  1
  O2-  O547  1  0.38283388  0.68412706  0.36557370  1
  O2-  O548  1  0.34455874  0.66051567  0.67332387  1
  O2-  O549  1  0.32349242  0.89826704  0.01430053  1
  O2-  O550  1  0.33154539  0.92520533  0.34580069  1
  O2-  O551  1  0.34714884  0.88984258  0.71208970  1
  O2-  O552  1  0.58162447  0.14765307  0.03787451  1
  O2-  O553  1  0.58234299  0.18556052  0.33691961  1
  O2-  O554  1  0.58203642  0.15555163  0.68892219  1
  O2-  O555  1  0.56171234  0.38876219  0.01406619  1
  O2-  O556  1  0.58212426  0.42282995  0.33833130  1
  O2-  O557  1  0.58615067  0.40393239  0.68172499  1
  O2-  O558  1  0.62579610  0.67669921  0.02546751  1
  O2-  O559  1  0.60218950  0.65551428  0.34896065  1
  O2-  O560  1  0.58269617  0.65557206  0.68608656  1
  O2-  O561  1  0.57841212  0.88995876  0.00912405  1
  O2-  O562  1  0.54834857  0.96934128  0.37786066  1
  O2-  O563  1  0.57899581  0.89686835  0.69245296  1
  O2-  O564  1  0.85096634  0.19258390  0.04029292  1
  O2-  O565  1  0.84008834  0.16728915  0.35605255  1
  O2-  O566  1  0.82986524  0.15815246  0.67067409  1
  O2-  O567  1  0.82394115  0.43530867  0.01698055  1
  O2-  O568  1  0.81701506  0.40724592  0.34489353  1
  O2-  O569  1  0.81216252  0.39635065  0.69964779  1
  O2-  O570  1  0.89758729  0.68322043  0.02303933  1
  O2-  O571  1  0.84081787  0.65944087  0.35470074  1
  O2-  O572  1  0.83990741  0.66497046  0.67575506  1
  O2-  O573  1  0.84395796  0.87386161  0.00820159  1
  O2-  O574  1  0.84901428  0.90970439  0.35409728  1
  O2-  O575  1  0.87261681  0.94276292  0.67259101  1
