# generated using pymatgen
data_H2O
_symmetry_space_group_name_H-M   'P 1'
_cell_length_a   17.98350918
_cell_length_b   17.98983240
_cell_length_c   22.00617037
_cell_angle_alpha   89.97096463
_cell_angle_beta   90.01204860
_cell_angle_gamma   120.01870441
_symmetry_Int_Tables_number   1
_chemical_formula_structural   H2O
_chemical_formula_sum   'H384 O192'
_cell_volume   6164.45545620
_cell_formula_units_Z   192
loop_
 _symmetry_equiv_pos_site_id
 _symmetry_equiv_pos_as_xyz
  1  'x, y, z'
loop_
 _atom_type_symbol
 _atom_type_oxidation_number
  H+  1.0
  O2-  -2.0
loop_
 _atom_site_type_symbol
 _atom_site_label
 _atom_site_symmetry_multiplicity
 _atom_site_fract_x
 _atom_site_fract_y
 _atom_site_fract_z
 _atom_site_occupancy
  H+  H0  1  0.95668751  0.61178787  0.98271377  1
  H+  H1  1  0.37858009  1.01974994  0.31834128  1
  H+  H2  1  0.63230870  0.77980398  -0.00957325  1
  H+  H3  1  0.90783056  0.35867887  0.66463865  1
  H+  H4  1  0.14080824  0.36347509  0.83144366  1
  H+  H5  1  0.28911344  0.39587701  -0.01366592  1
  H+  H6  1  0.65502790  0.38709361  0.82677723  1
  H+  H7  1  0.26272811  0.79606170  0.73155818  1
  H+  H8  1  0.63366645  0.35740140  0.16376003  1
  H+  H9  1  0.35593708  0.63230718  -0.00079182  1
  H+  H10  1  0.43629453  1.06123365  0.70282545  1
  H+  H11  1  0.39594672  0.88286066  0.84310857  1
  H+  H12  1  0.78748598  0.15007305  0.02339493  1
  H+  H13  1  0.13482338  0.32602277  0.63811290  1
  H+  H14  1  0.15036807  0.61933508  0.32274414  1
  H+  H15  1  0.62548060  0.72439848  0.34682226  1
  H+  H16  1  0.12246984  0.45063470  0.66196411  1
  H+  H17  1  0.66728896  0.10237866  0.86369928  1
  H+  H18  1  0.98111305  0.36786932  0.32376976  1
  H+  H19  1  0.83260798  0.66670018  0.09952020  1
  H+  H20  1  0.39524800  0.61885693  0.83518033  1
  H+  H21  1  0.88332923  0.77453780  0.17070393  1
  H+  H22  1  0.61336674  0.15513061  0.80209751  1
  H+  H23  1  0.14245826  0.52771913  0.16399042  1
  H+  H24  1  0.89550326  0.11176593  0.17077430  1
  H+  H25  1  0.64648518  0.86223131  0.32969979  1
  H+  H26  1  0.85852945  0.21999098  0.81505604  1
  H+  H27  1  0.03211790  0.13764137  0.83767049  1
  H+  H28  1  0.13714942  0.02743652  0.65856124  1
  H+  H29  1  0.16929130  0.09224480  0.08425903  1
  H+  H30  1  0.52059167  0.13604212  0.32503689  1
  H+  H31  1  0.39775494  0.34454528  0.14168790  1
  H+  H32  1  0.61017125  0.88329361  1.00867553  1
  H+  H33  1  0.39709773  0.53696723  0.98266153  1
  H+  H34  1  0.92866448  0.06547463  0.50497836  1
  H+  H35  1  0.66390811  0.10729520  0.64628893  1
  H+  H36  1  0.39762796  0.52458462  0.66881260  1
  H+  H37  1  0.28160243  0.63086647  0.32863018  1
  H+  H38  1  0.14736511  0.56969717  0.69817879  1
  H+  H39  1  0.12030997  0.52719554  0.94104127  1
  H+  H40  1  0.62546408  0.72498357  0.16554022  1
  H+  H41  1  0.89139438  0.43888249  0.74591146  1
  H+  H42  1  0.96602120  0.36683741  0.50571166  1
  H+  H43  1  0.10292417  0.72642298  0.49276384  1
  H+  H44  1  0.36721240  0.72471581  0.82071009  1
  H+  H45  1  0.10049660  0.63658196  0.49628472  1
  H+  H46  1  0.77019797  0.64202169  1.00574316  1
  H+  H47  1  0.13200550  0.75539211  0.66043592  1
  H+  H48  1  0.16430228  0.84063725  0.93280313  1
  H+  H49  1  0.73792303  0.58919718  0.70233922  1
  H+  H50  1  0.73669346  0.35646880  -0.02640849  1
  H+  H51  1  0.62373486  0.62373381  0.68998044  1
  H+  H52  1  0.27093514  0.13243581  0.15615931  1
  H+  H53  1  0.87283065  0.63333596  0.68461736  1
  H+  H54  1  0.88895379  0.79837989  0.32334799  1
  H+  H55  1  0.89276305  0.87766450  0.52062718  1
  H+  H56  1  0.62576094  0.35522968  0.53151372  1
  H+  H57  1  0.91532104  0.14515336  0.49468772  1
  H+  H58  1  0.23101731  0.61688703  0.16576438  1
  H+  H59  1  0.11300089  0.48182716  0.33512714  1
  H+  H60  1  0.27540058  0.13111045  0.67073671  1
  H+  H61  1  0.13228828  0.76232270  0.17078361  1
  H+  H62  1  0.37251099  0.63019386  0.67336180  1
  H+  H63  1  0.62960193  0.66407091  0.83180252  1
  H+  H64  1  0.87537907  0.88780472  0.69058592  1
  H+  H65  1  0.42546648  0.84119975  0.90416054  1
  H+  H66  1  0.99142701  0.88337049  0.83993925  1
  H+  H67  1  0.97904489  0.12279969  0.32387489  1
  H+  H68  1  0.07808075  0.66799681  0.09550034  1
  H+  H69  1  0.28101837  0.39718824  0.82595513  1
  H+  H70  1  0.80809186  0.94410213  0.50596465  1
  H+  H71  1  0.53931327  0.88286553  0.16928232  1
  H+  H72  1  0.40924649  0.37344413  -0.00584028  1
  H+  H73  1  0.48729393  0.62466810  0.83792641  1
  H+  H74  1  0.42543128  0.59124791  0.48736752  1
  H+  H75  1  0.98116093  0.88006999  0.32298183  1
  H+  H76  1  0.34392736  0.87922364  0.32596143  1
  H+  H77  1  0.09370346  0.42976273  0.08950582  1
  H+  H78  1  0.65202075  0.49630762  0.76817397  1
  H+  H79  1  0.71636899  0.58426095  0.34657500  1
  H+  H80  1  0.61069535  0.13735098  0.32805901  1
  H+  H81  1  0.88983081  0.61103339  0.16532080  1
  H+  H82  1  0.27345346  0.13215169  0.48608286  1
  H+  H83  1  0.35397003  0.87603063  0.15839339  1
  H+  H84  1  0.51972880  0.88046455  0.01317365  1
  H+  H85  1  0.32188206  0.40364839  0.39728351  1
  H+  H86  1  0.72956844  0.12433762  0.80757825  1
  H+  H87  1  0.77345567  0.14149653  0.33143324  1
  H+  H88  1  0.15708963  0.82578940  0.26462652  1
  H+  H89  1  0.08008768  0.12666396  0.66446148  1
  H+  H90  1  0.14140659  0.87798233  -0.00716994  1
  H+  H91  1  0.80255791  0.66781720  0.83326434  1
  H+  H92  1  0.86743859  0.99310208  0.34540305  1
  H+  H93  1  0.58712608  0.90420958  0.10482365  1
  H+  H94  1  0.42823597  0.60230025  0.92756381  1
  H+  H95  1  0.12191609  0.22411710  0.83341336  1
  H+  H96  1  0.62644775  0.47697050  0.16242393  1
  H+  H97  1  0.85779296  -0.12466846  1.00451799  1
  H+  H98  1  0.65071223  0.59203308  0.50270688  1
  H+  H99  1  0.38205912  0.36060870  0.32533526  1
  H+  H100  1  0.62262370  0.36033815  0.32871049  1
  H+  H101  1  0.61536539  0.97089621  0.49037350  1
  H+  H102  1  0.03524436  0.16065492  0.00432839  1
  H+  H103  1  0.11474553  0.68282945  0.76272111  1
  H+  H104  1  0.11661316  0.97433653  0.15713099  1
  H+  H105  1  0.13839292  0.37177759  0.16931619  1
  H+  H106  1  0.86753060  0.89905178  0.83518322  1
  H+  H107  1  0.37308700  0.26690734  0.50235687  1
  H+  H108  1  0.16332051  0.08857709  0.40493309  1
  H+  H109  1  0.86289199  0.14166678  0.33190470  1
  H+  H110  1  0.37145332  0.62895234  0.33519300  1
  H+  H111  1  0.58313221  0.65810203  0.40320309  1
  H+  H112  1  0.47724814  0.33815585  0.64207953  1
  H+  H113  1  0.60830764  0.46426236  0.33398008  1
  H+  H114  1  0.78691808  0.13642000  0.16180633  1
  H+  H115  1  0.02994479  0.36749152  0.66463457  1
  H+  H116  1  0.52460358  0.13325391  0.15481356  1
  H+  H117  1  0.23949482  0.61420130  0.66721944  1
  H+  H118  1  0.60089446  0.46242708  0.52842677  1
  H+  H119  1  0.92913810  0.11888143  0.66203149  1
  H+  H120  1  0.41811003  0.13729078  0.69354310  1
  H+  H121  1  0.48473259  0.61385285  0.66975525  1
  H+  H122  1  0.36169463  0.22635488  0.33195635  1
  H+  H123  1  0.44195761  0.09224660  0.42886794  1
  H+  H124  1  0.85995931  0.18325068  0.07104985  1
  H+  H125  1  0.64681014  0.02801041  1.03301516  1
  H+  H126  1  0.11054470  0.97485950  0.35006805  1
  H+  H127  1  0.48059556  0.11920546  0.84418390  1
  H+  H128  1  0.88177417  0.27381140  0.50486753  1
  H+  H129  1  0.53506878  0.87960949  0.33787645  1
  H+  H130  1  0.63912658  0.02383330  0.32306227  1
  H+  H131  1  0.98658409  0.11286786  0.16980525  1
  H+  H132  1  0.87825154  0.51577541  -0.01383698  1
  H+  H133  1  0.37504530  0.98260197  0.83295735  1
  H+  H134  1  0.25369033  0.86246948  0.68571559  1
  H+  H135  1  0.11490246  0.63195711  0.14992837  1
  H+  H136  1  0.60656022  0.16521620  0.59722237  1
  H+  H137  1  0.89371621  0.35800858  0.17435252  1
  H+  H138  1  0.39932277  0.62221429  0.17487133  1
  H+  H139  1  0.21640425  0.85933721  0.50684095  1
  H+  H140  1  0.77790142  0.63609543  0.16132440  1
  H+  H141  1  0.13506007  0.66851097  0.65963187  1
  H+  H142  1  0.62309799  0.62127003  1.00276180  1
  H+  H143  1  0.72564118  0.35369244  0.17560125  1
  H+  H144  1  0.27018430  0.88541908  0.00075585  1
  H+  H145  1  0.37029554  0.71958924  0.66829849  1
  H+  H146  1  0.22546437  0.36795923  0.32606920  1
  H+  H147  1  0.87729816  0.22576727  0.16544346  1
  H+  H148  1  0.93472827  0.10437297  0.93399938  1
  H+  H149  1  0.51810084  0.37526361  0.33289589  1
  H+  H150  1  0.86143835  0.37859305  0.31276863  1
  H+  H151  1  0.13568276  0.28099784  0.17487946  1
  H+  H152  1  1.03789897  0.63522111  0.33547851  1
  H+  H153  1  -0.01775336  0.86868525  -0.00309154  1
  H+  H154  1  0.03076843  0.39322867  0.14794412  1
  H+  H155  1  0.73366433  0.88088228  0.83881551  1
  H+  H156  1  0.65412817  0.50015025  0.67999891  1
  H+  H157  1  0.61771777  0.22740140  0.52266104  1
  H+  H158  1  0.86500944  0.68340529  0.31216027  1
  H+  H159  1  0.26006769  0.61509313  0.00425151  1
  H+  H160  1  1.02450735  0.88668949  0.16313270  1
  H+  H161  1  0.68722809  0.81593268  0.49805972  1
  H+  H162  1  0.26479424  0.87449890  0.15717159  1
  H+  H163  1  0.32853849  0.90789775  0.06019454  1
  H+  H164  1  0.55072704  0.60615235  0.50833196  1
  H+  H165  1  0.12415930  0.98196361  0.83176270  1
  H+  H166  1  0.51399284  0.37911755  0.51043183  1
  H+  H167  1  0.52149923  0.64826671  0.00986764  1
  H+  H168  1  0.64729001  0.10921294  0.16324971  1
  H+  H169  1  0.36510858  0.47084460  0.34162057  1
  H+  H170  1  0.37046258  0.21732674  0.16599559  1
  H+  H171  1  0.13288973  0.85241687  0.17204599  1
  H+  H172  1  0.37855659  0.38819753  0.67463170  1
  H+  H173  1  0.62112500  0.74792540  0.82608490  1
  H+  H174  1  0.46348108  0.92591034  0.21417494  1
  H+  H175  1  0.53373957  0.13738623  0.50471324  1
  H+  H176  1  0.57012614  0.43885051  0.81039060  1
  H+  H177  1  0.36873949  0.72950417  0.15045249  1
  H+  H178  1  0.38931518  0.11186178  0.99749235  1
  H+  H179  1  0.97595938  0.86817118  0.51660401  1
  H+  H180  1  0.11545293  0.23734264  0.33143494  1
  H+  H181  1  0.11460073  0.14631008  0.33909445  1
  H+  H182  1  0.14181229  0.10652321  0.85061540  1
  H+  H183  1  0.25761233  0.88282389  0.33078289  1
  H+  H184  1  0.35507902  -0.02906465  0.47849584  1
  H+  H185  1  0.88464569  0.21935677  0.66514668  1
  H+  H186  1  0.65155663  0.36268937  0.98025073  1
  H+  H187  1  0.35356413  0.21874346  0.83090273  1
  H+  H188  1  0.08019877  0.40158533  0.75967900  1
  H+  H189  1  0.61531641  0.22343868  -0.00339167  1
  H+  H190  1  0.20745219  0.61929124  0.51425402  1
  H+  H191  1  0.97351845  0.34174953  0.83386882  1
  H+  H192  1  0.73741901  0.86815233  0.33410135  1
  H+  H193  1  0.53325299  0.63953086  0.16599178  1
  H+  H194  1  0.90643367  0.28393651  0.99518888  1
  H+  H195  1  0.90679894  0.13500466  0.99324672  1
  H+  H196  1  0.48920418  0.37106133  0.16779922  1
  H+  H197  1  0.78024407  0.13360652  0.48662135  1
  H+  H198  1  0.15135540  0.28896229  0.99124387  1
  H+  H199  1  0.86300598  0.46911102  0.31331606  1
  H+  H200  1  0.12183590  0.15721950  0.02094301  1
  H+  H201  1  0.49426838  0.88099922  0.84055435  1
  H+  H202  1  0.64235546  0.60892156  0.17806749  1
  H+  H203  1  0.65220082  0.86426488  0.17786058  1
  H+  H204  1  0.89268126  0.98255521  0.68686358  1
  H+  H205  1  0.84809262  0.46850808  0.50660645  1
  H+  H206  1  0.03092037  0.88800475  0.67964955  1
  H+  H207  1  0.38707420  0.10607351  0.16693936  1
  H+  H208  1  0.61823579  0.89855512  0.82684078  1
  H+  H209  1  0.71900641  0.35713427  0.31837573  1
  H+  H210  1  0.09358593  0.74759613  1.00576436  1
  H+  H211  1  0.87250700  0.90773266  0.34624536  1
  H+  H212  1  0.52624604  0.88261490  0.66750688  1
  H+  H213  1  0.35667251  0.35014511  0.85308130  1
  H+  H214  1  0.80113463  0.12576816  0.66299239  1
  H+  H215  1  0.08688729  0.45495348  0.82164549  1
  H+  H216  1  0.48726260  0.60941302  0.33346026  1
  H+  H217  1  0.09342076  0.48145725  0.49528175  1
  H+  H218  1  0.11125073  0.39285509  0.34116745  1
  H+  H219  1  -0.02265442  0.60599578  0.16143137  1
  H+  H220  1  0.87550647  0.38315442  0.99105215  1
  H+  H221  1  0.84976944  0.62698680  0.00046965  1
  H+  H222  1  0.38602974  1.01631382  0.16491676  1
  H+  H223  1  0.37491173  0.48190673  0.83187114  1
  H+  H224  1  0.32384975  0.62973376  0.48990636  1
  H+  H225  1  0.39058054  0.11346774  0.47688523  1
  H+  H226  1  0.77236659  0.52632372  0.43175343  1
  H+  H227  1  0.36836766  0.13751232  0.82777606  1
  H+  H228  1  0.27244323  0.39786374  0.20383392  1
  H+  H229  1  0.36117104  0.13593344  0.33002098  1
  H+  H230  1  0.90129768  0.48576961  0.68372582  1
  H+  H231  1  0.91033261  0.61614004  0.31087935  1
  H+  H232  1  0.05100144  0.16967273  0.48658853  1
  H+  H233  1  0.85481090  0.46715248  0.17518696  1
  H+  H234  1  0.89035938  0.75291819  0.82800149  1
  H+  H235  1  0.38395609  0.25947667  0.65589407  1
  H+  H236  1  0.86984081  0.88991911  0.16380437  1
  H+  H237  1  0.89664992  0.70167168  0.33868616  1
  H+  H238  1  0.54214517  0.38676871  1.00562046  1
  H+  H239  1  0.13919531  0.86916159  0.84016249  1
  H+  H240  1  0.37896463  0.85642833  0.98962436  1
  H+  H241  1  0.63117549  0.28091814  0.82211693  1
  H+  H242  1  0.62763480  0.25573917  0.15980842  1
  H+  H243  1  0.34656001  0.43074638  0.04394982  1
  H+  H244  1  0.14196083  0.73407549  0.82424392  1
  H+  H245  1  0.22819792  0.10424419  0.84117886  1
  H+  H246  1  0.64908256  0.02177277  0.16753280  1
  H+  H247  1  0.62485792  0.25989758  0.32608847  1
  H+  H248  1  -0.00697626  0.62860554  0.65955645  1
  H+  H249  1  0.37519877  0.76511079  -0.01337721  1
  H+  H250  1  0.12336364  0.14902605  0.15252633  1
  H+  H251  1  0.84051509  -0.07363881  0.77376979  1
  H+  H252  1  0.82487726  0.40420853  0.23139121  1
  H+  H253  1  0.64488540  0.11467807  1.02786634  1
  H+  H254  1  0.22913173  0.87119688  0.84834992  1
  H+  H255  1  0.72240026  0.86441880  -0.00910984  1
  H+  H256  1  0.97029095  0.61354333  0.50625655  1
  H+  H257  1  0.67028143  0.56260982  0.84725450  1
  H+  H258  1  0.10643960  0.88366381  0.49732135  1
  H+  H259  1  0.59241980  0.54309271  0.95898151  1
  H+  H260  1  0.86033108  0.73618569  0.52712815  1
  H+  H261  1  0.64747557  0.10590116  0.51202421  1
  H+  H262  1  0.61293502  0.98535673  0.81340524  1
  H+  H263  1  0.11494397  -0.01493113  1.02320011  1
  H+  H264  1  0.57155433  0.70095882  0.49511582  1
  H+  H265  1  0.89075788  0.76667896  0.67290554  1
  H+  H266  1  0.36073529  0.39771921  0.20815195  1
  H+  H267  1  0.87775825  0.99100562  0.16730654  1
  H+  H268  1  0.13261821  0.77133456  0.32703894  1
  H+  H269  1  0.09420540  0.92457931  0.76962581  1
  H+  H270  1  0.23294930  0.92591161  0.62792742  1
  H+  H271  1  0.77727831  0.89227380  0.17072408  1
  H+  H272  1  0.37745830  0.23010470  1.01292858  1
  H+  H273  1  0.15943911  0.38196259  0.98410252  1
  H+  H274  1  0.71616631  0.60962836  0.55220998  1
  H+  H275  1  0.39339870  0.53316404  0.19350010  1
  H+  H276  1  0.38037333  0.84769080  0.66658442  1
  H+  H277  1  0.89498844  0.77729831  0.99206693  1
  H+  H278  1  0.63042849  0.47473496  0.01076244  1
  H+  H279  1  0.88993403  0.11728640  0.83632961  1
  H+  H280  1  0.41392396  0.84040648  0.36697656  1
  H+  H281  1  0.12937016  0.02317552  0.49882753  1
  H+  H282  1  0.33842380  0.50415602  0.49326124  1
  H+  H283  1  0.10470591  0.88325542  0.33605548  1
  H+  H284  1  0.63504332  0.75647083  0.65111441  1
  H+  H285  1  0.12605911  0.89901296  0.67478764  1
  H+  H286  1  0.52379196  0.13585698  1.00280998  1
  H+  H287  1  0.10738041  0.59014543  0.84686115  1
  H+  H288  1  0.88969167  0.02956750  0.84317450  1
  H+  H289  1  0.41255572  0.33347273  0.26463005  1
  H+  H290  1  0.59853708  0.67345297  0.73689403  1
  H+  H291  1  0.68373462  0.83709630  0.23892788  1
  H+  H292  1  0.33227170  0.90545282  0.77959038  1
  H+  H293  1  0.84193750  0.93427911  0.05027964  1
  H+  H294  1  0.47241435  0.86587812  0.50458779  1
  H+  H295  1  0.33523186  0.66622124  0.09367439  1
  H+  H296  1  0.81112367  0.65622762  0.48201988  1
  H+  H297  1  0.65286617  0.33907581  0.62307018  1
  H+  H298  1  0.43473917  0.01546293  0.59834221  1
  H+  H299  1  0.93405713  0.58206797  0.25315090  1
  H+  H300  1  0.38667523  0.74963357  0.33276073  1
  H+  H301  1  0.38331186  0.86628321  0.50549276  1
  H+  H302  1  0.88341409  0.53973189  0.89096485  1
  H+  H303  1  0.38668276  0.02066060  0.99452588  1
  H+  H304  1  0.67213069  0.33857495  0.88815541  1
  H+  H305  1  0.43098097  0.58682223  0.27353194  1
  H+  H306  1  0.85284110  0.67216264  0.74566306  1
  H+  H307  1  0.14557594  0.58150770  0.57274131  1
  H+  H308  1  0.71790184  0.36035442  0.53029748  1
  H+  H309  1  0.92922609  0.32866001  0.92961927  1
  H+  H310  1  0.39539049  0.32088632  0.56416445  1
  H+  H311  1  0.22730418  0.11415732  0.35039941  1
  H+  H312  1  0.09700260  0.18343104  0.42257986  1
  H+  H313  1  0.35423800  0.41799568  0.73582268  1
  H+  H314  1  0.01824452  0.51055565  0.86787249  1
  H+  H315  1  0.06898153  0.42473736  0.43529604  1
  H+  H316  1  0.69000589  0.62127450  0.90567509  1
  H+  H317  1  0.08910437  0.66803815  0.39845814  1
  H+  H318  1  0.31561092  0.90034136  0.42840336  1
  H+  H319  1  0.84846064  0.94079210  0.44186727  1
  H+  H320  1  0.18242206  0.28902333  0.48017026  1
  H+  H321  1  0.91849042  0.83146003  0.61605031  1
  H+  H322  1  0.40669267  0.03525460  0.59500072  1
  H+  H323  1  0.17168179  0.58667485  0.26070610  1
  H+  H324  1  0.91998423  0.32681918  0.59867119  1
  H+  H325  1  0.88674957  0.61874355  0.52673469  1
  H+  H326  1  0.84265636  0.16323155  0.75347723  1
  H+  H327  1  0.33031843  0.16489574  0.73227289  1
  H+  H328  1  0.63987465  0.80491684  0.56377938  1
  H+  H329  1  0.42024800  0.08435390  0.90381526  1
  H+  H330  1  0.04217199  0.40929641  -0.00930894  1
  H+  H331  1  0.34936264  0.16998110  0.07254587  1
  H+  H332  1  0.01112249  0.71963323  0.04449620  1
  H+  H333  1  0.41512814  0.83643907  0.60131441  1
  H+  H334  1  0.58392630  0.16760917  0.09428704  1
  H+  H335  1  0.84362496  0.60838071  0.40054756  1
  H+  H336  1  0.17162046  0.09176953  0.20641411  1
  H+  H337  1  0.62921723  0.84285667  0.64972445  1
  H+  H338  1  0.34033975  0.72397772  0.50266350  1
  H+  H339  1  0.83454002  0.40001677  0.04941485  1
  H+  H340  1  0.59715595  0.02119998  0.93176782  1
  H+  H341  1  0.59838434  0.41944004  0.10042885  1
  H+  H342  1  0.28770756  0.35528539  0.10748538  1
  H+  H343  1  0.42643207  0.84080743  0.24980521  1
  H+  H344  1  0.56705490  0.35941182  0.71378548  1
  H+  H345  1  0.58583458  0.90795131  0.72561009  1
  H+  H346  1  0.16212063  0.34244844  0.26853405  1
  H+  H347  1  0.89682518  0.35822655  0.84798629  1
  H+  H348  1  0.93434131  0.33453243  0.22869034  1
  H+  H349  1  0.16488999  0.83725354  0.56949258  1
  H+  H350  1  0.17907204  0.32634017  0.57714663  1
  H+  H351  1  0.16714948  0.08562434  0.59881262  1
  H+  H352  1  0.07135211  0.90527436  0.43663268  1
  H+  H353  1  0.41948475  0.32584442  0.93971122  1
  H+  H354  1  0.68523936  0.07001971  0.56153729  1
  H+  H355  1  0.13956170  0.11958240  0.49564722  1
  H+  H356  1  0.08137498  0.90991626  0.07019596  1
  H+  H357  1  0.08634870  0.18486508  0.10099966  1
  H+  H358  1  0.83592592  0.17294240  0.42609338  1
  H+  H359  1  0.66892160  0.84921955  0.89634523  1
  H+  H360  1  0.54690642  0.17172184  0.76241617  1
  H+  H361  1  0.34243388  0.66558315  0.76231503  1
  H+  H362  1  0.59194816  0.91707708  0.39710375  1
  H+  H363  1  0.91961402  0.08471388  0.26533827  1
  H+  H364  1  0.56294264  0.15331707  0.66080814  1
  H+  H365  1  0.93184834  0.85106419  0.89965071  1
  H+  H366  1  0.60013921  0.87446798  0.48967176  1
  H+  H367  1  0.64299212  0.60725488  0.33414875  1
  H+  H368  1  0.23021109  0.12062144  0.02769360  1
  H+  H369  1  0.58207176  0.67486530  0.07063868  1
  H+  H370  1  0.89166054  0.27576125  0.32070611  1
  H+  H371  1  0.33231327  0.36035863  0.49634957  1
  H+  H372  1  0.66742223  0.08061489  0.26224597  1
  H+  H373  1  0.41208047  0.07770129  0.25839567  1
  H+  H374  1  0.84397962  0.37919144  0.50289270  1
  H+  H375  1  0.28082693  0.39351531  0.10595065  1
  H+  H376  1  0.63909247  0.02135783  0.92937361  1
  H+  H377  1  0.33387351  0.16930348  0.42705033  1
  H+  H378  1  0.67418973  0.57895496  0.23678593  1
  H+  H379  1  0.91385584  0.83812774  0.22953377  1
  H+  H380  1  0.29559596  0.26641083  0.89010680  1
  H+  H381  1  0.65617856  0.01459531  0.65494228  1
  H+  H382  1  0.92516904  0.58316162  0.60638696  1
  H+  H383  1  0.17677337  0.34259850  0.89182260  1
  O2-  O384  1  0.08673281  0.17648589  0.14638444  1
  O2-  O385  1  0.10926530  0.18712664  0.46708352  1
  O2-  O386  1  0.09433316  0.16113601  0.83042601  1
  O2-  O387  1  0.09211463  0.42655982  0.13455988  1
  O2-  O388  1  0.06251102  0.42162751  0.47990895  1
  O2-  O389  1  0.07439687  0.39824928  0.80511395  1
  O2-  O390  1  0.08056655  0.66077926  0.14019903  1
  O2-  O391  1  0.07350815  0.66743241  0.47508155  1
  O2-  O392  1  0.14316520  0.68686711  0.80188084  1
  O2-  O393  1  0.08469308  0.91076224  0.14876388  1
  O2-  O394  1  0.07511561  0.91294489  0.48144086  1
  O2-  O395  1  0.09289603  0.92042513  0.81507521  1
  O2-  O396  1  0.33954610  0.15998702  0.14744083  1
  O2-  O397  1  0.33492277  0.16466754  0.47226034  1
  O2-  O398  1  0.33681172  0.16407378  0.80923488  1
  O2-  O399  1  0.33435656  0.43300928  0.21485843  1
  O2-  O400  1  0.30307846  0.38885033  0.47343436  1
  O2-  O401  1  0.34427405  0.42057751  0.81871440  1
  O2-  O402  1  0.33922770  0.66888654  0.13933521  1
  O2-  O403  1  0.29776446  0.66740064  0.48645144  1
  O2-  O404  1  0.34388648  0.66524008  0.80791932  1
  O2-  O405  1  0.32509471  0.90513437  0.14057536  1
  O2-  O406  1  0.32035956  0.90734003  0.47315396  1
  O2-  O407  1  0.34685509  0.91899363  0.82441544  1
  O2-  O408  1  0.58577008  0.16793247  0.14027195  1
  O2-  O409  1  0.59415857  0.16377793  0.51790933  1
  O2-  O410  1  0.57896792  0.18525419  0.80158449  1
  O2-  O411  1  0.59477147  0.41638625  0.14597561  1
  O2-  O412  1  0.57717008  0.40650602  0.50766441  1
  O2-  O413  1  0.63209702  0.46195329  0.80880892  1
  O2-  O414  1  0.59335704  0.66570064  0.14915900  1
  O2-  O415  1  0.54361024  0.64112411  0.47740991  1
  O2-  O416  1  0.59337902  0.68595751  0.81386668  1
  O2-  O417  1  0.59678815  0.90928222  0.15040910  1
  O2-  O418  1  0.57828220  0.91150701  0.47295541  1
  O2-  O419  1  0.58013296  0.92123089  0.81064312  1
  O2-  O420  1  0.84904750  0.16491717  0.15077324  1
  O2-  O421  1  0.83977114  0.17173894  0.47115327  1
  O2-  O422  1  0.82674691  0.16046855  0.79790738  1
  O2-  O423  1  0.82313190  0.40430824  0.18524267  1
  O2-  O424  1  0.81078505  0.40865361  0.49288977  1
  O2-  O425  1  0.91088784  0.45741678  0.85966766  1
  O2-  O426  1  0.83772803  0.66899565  0.14489712  1
  O2-  O427  1  0.82769021  0.67158992  0.52473589  1
  O2-  O428  1  0.86096183  0.69071568  0.81685232  1
  O2-  O429  1  0.84040586  0.92495040  0.15390983  1
  O2-  O430  1  0.85724451  0.94441325  0.48716951  1
  O2-  O431  1  0.83406620  0.92605821  0.82009160  1
  O2-  O432  1  0.17939338  0.09184756  0.16262675  1
  O2-  O433  1  0.16849818  0.08564793  0.50630046  1
  O2-  O434  1  0.17178362  0.07370887  0.86154205  1
  O2-  O435  1  0.16253334  0.34049461  0.19177476  1
  O2-  O436  1  0.21458105  0.35077438  0.49491568  1
  O2-  O437  1  0.17837913  0.34102948  0.84671804  1
  O2-  O438  1  0.17027268  0.58805224  0.17984657  1
  O2-  O439  1  0.14427285  0.58604744  0.52840553  1
  O2-  O440  1  0.08258775  0.53419167  0.86879453  1
  O2-  O441  1  0.16373288  0.82260615  0.18702215  1
  O2-  O442  1  0.15706427  0.83123674  0.52388034  1
  O2-  O443  1  0.16776241  0.83780567  0.85901602  1
  O2-  O444  1  0.41974690  0.07634509  0.18020759  1
  O2-  O445  1  0.42386430  0.08232608  0.47130782  1
  O2-  O446  1  0.42025741  0.08328363  0.85799751  1
  O2-  O447  1  0.42636012  0.34090119  0.17839270  1
  O2-  O448  1  0.39355724  0.32574102  0.51866950  1
  O2-  O449  1  0.35491047  0.29945051  0.87579906  1
  O2-  O450  1  0.43258865  0.59740940  0.19296544  1
  O2-  O451  1  0.36539684  0.56620514  0.50037039  1
  O2-  O452  1  0.42729187  0.59140209  0.85392523  1
  O2-  O453  1  0.43755834  0.86415670  0.20744261  1
  O2-  O454  1  0.41441307  0.83892024  0.52366154  1
  O2-  O455  1  0.43081910  0.85099528  0.85753485  1
  O2-  O456  1  0.67671569  0.08178703  0.18324788  1
  O2-  O457  1  0.67706009  0.07164470  0.51628966  1
  O2-  O458  1  0.66540982  0.09871477  0.81938179  1
  O2-  O459  1  0.65924765  0.32016377  0.17642792  1
  O2-  O460  1  0.65845970  0.32797864  0.54875189  1
  O2-  O461  1  0.66855443  0.34121265  0.84118755  1
  O2-  O462  1  0.67325064  0.57821610  0.19143246  1
  O2-  O463  1  0.65308635  0.57874069  0.54536032  1
  O2-  O464  1  0.69208026  0.62260954  0.86091481  1
  O2-  O465  1  0.68720887  0.83842196  0.19308172  1
  O2-  O466  1  0.63201167  0.80243631  0.51539493  1
  O2-  O467  1  0.67044999  0.85245053  0.85093081  1
  O2-  O468  1  0.92489690  0.07888589  0.18474891  1
  O2-  O469  1  0.95651329  0.12786934  0.51025845  1
  O2-  O470  1  0.92099269  0.09140099  0.85618041  1
  O2-  O471  1  0.93106309  0.33326536  0.18273045  1
  O2-  O472  1  0.90604722  0.33172363  0.52361711  1
  O2-  O473  1  0.91487303  0.31428913  0.85307568  1
  O2-  O474  1  0.91745850  0.57744207  0.17889939  1
  O2-  O475  1  0.91340285  0.58177227  0.52724432  1
  O2-  O476  1  0.86975084  0.50654654  0.85225040  1
  O2-  O477  1  0.91292825  0.83629641  0.18400274  1
  O2-  O478  1  0.91762036  0.84256507  0.53543815  1
  O2-  O479  1  0.93032462  0.85500153  0.85467405  1
  O2-  O480  1  0.16405315  0.08361169  0.36050533  1
  O2-  O481  1  0.16885468  0.08816399  0.64350501  1
  O2-  O482  1  0.16840282  0.09292911  1.03902399  1
  O2-  O483  1  0.16361418  0.33982011  0.31395441  1
  O2-  O484  1  0.15018705  0.29092411  0.61283378  1
  O2-  O485  1  0.18625659  0.34769316  0.97170487  1
  O2-  O486  1  0.17524227  0.58508816  0.30586258  1
  O2-  O487  1  0.17507976  0.58677377  0.65854781  1
  O2-  O488  1  0.14236205  0.53019441  0.98394142  1
  O2-  O489  1  0.15715349  0.83122987  0.31003335  1
  O2-  O490  1  0.19410919  0.86912455  0.64462614  1
  O2-  O491  1  0.16676695  0.84227128  0.97889730  1
  O2-  O492  1  0.41101998  0.08046960  0.30392663  1
  O2-  O493  1  0.46387190  0.12353523  0.70504806  1
  O2-  O494  1  0.41892976  0.08164309  0.98028782  1
  O2-  O495  1  0.41255702  0.33008137  0.30920099  1
  O2-  O496  1  0.41571333  0.31852527  0.63732569  1
  O2-  O497  1  0.43819051  0.34023730  0.98305638  1
  O2-  O498  1  0.42691575  0.57871375  0.31839412  1
  O2-  O499  1  0.42423091  0.58668955  0.65680003  1
  O2-  O500  1  0.42415856  0.59953672  0.97375401  1
  O2-  O501  1  0.42001230  0.81993427  0.32721009  1
  O2-  O502  1  0.41939109  0.83127186  0.64643221  1
  O2-  O503  1  0.40992293  0.82651383  0.97386349  1
  O2-  O504  1  0.66569669  0.08389074  0.30749149  1
  O2-  O505  1  0.69375722  0.07328787  0.63826610  1
  O2-  O506  1  0.68034581  0.09010810  1.04158240  1
  O2-  O507  1  0.65476565  0.32570706  0.31379772  1
  O2-  O508  1  0.64936726  0.34662325  0.66874914  1
  O2-  O509  1  0.67572914  0.33063907  0.95880714  1
  O2-  O510  1  0.66973851  0.57369832  0.31803363  1
  O2-  O511  1  0.67356931  0.54858110  0.70865751  1
  O2-  O512  1  0.64245155  0.58165301  0.98343735  1
  O2-  O513  1  0.67867333  0.83271313  0.31624417  1
  O2-  O514  1  0.65266564  0.81057329  0.62816951  1
  O2-  O515  1  0.66179646  0.83992513  0.97510621  1
  O2-  O516  1  0.91726011  0.08903031  0.31025552  1
  O2-  O517  1  0.95928712  0.08598429  0.65234738  1
  O2-  O518  1  0.94177449  0.10984924  0.97910876  1
  O2-  O519  1  0.92251245  0.33572635  0.30373251  1
  O2-  O520  1  0.92832587  0.32284911  0.64369204  1
  O2-  O521  1  0.93552315  0.34165815  0.97448452  1
  O2-  O522  1  0.93492287  0.58036636  0.29916287  1
  O2-  O523  1  0.93098720  0.58859498  0.65153220  1
  O2-  O524  1  0.89633718  0.57398766  0.96965934  1
  O2-  O525  1  0.92020768  0.85660694  0.30679063  1
  O2-  O526  1  0.92265139  0.82856279  0.66086464  1
  O2-  O527  1  0.92311691  0.83806575  0.97903070  1
  O2-  O528  1  0.09506609  0.19397142  0.02427470  1
  O2-  O529  1  0.08104117  0.17563742  0.34549314  1
  O2-  O530  1  0.03687751  0.13177362  0.68933897  1
  O2-  O531  1  0.10428350  0.44000083  0.00500181  1
  O2-  O532  1  0.07845442  0.42234924  0.35168348  1
  O2-  O533  1  0.08992339  0.39493493  0.68221495  1
  O2-  O534  1  0.04512256  0.69620684  0.02725845  1
  O2-  O535  1  0.09626909  0.67088224  0.35287680  1
  O2-  O536  1  0.10310026  0.69563103  0.67573568  1
  O2-  O537  1  0.08487787  0.92066043  0.02537758  1
  O2-  O538  1  0.07312182  0.91100279  0.35364476  1
  O2-  O539  1  0.09248825  0.92584231  0.69130140  1
  O2-  O540  1  0.34593837  0.16943763  0.02667677  1
  O2-  O541  1  0.33297535  0.16632536  0.34847328  1
  O2-  O542  1  0.33560076  0.16186448  0.68718586  1
  O2-  O543  1  0.35171853  0.42805813  -0.00013794  1
  O2-  O544  1  0.33045761  0.40855012  0.35219650  1
  O2-  O545  1  0.35569636  0.42360074  0.69117080  1
  O2-  O546  1  0.32021904  0.65643719  0.01579298  1
  O2-  O547  1  0.34236652  0.66307583  0.34271506  1
  O2-  O548  1  0.33855573  0.66060639  0.68541110  1
  O2-  O549  1  0.33160152  0.91156624  0.01497610  1
  O2-  O550  1  0.32003836  0.91251936  0.34426195  1
  O2-  O551  1  0.29758154  0.85419653  0.71515543  1
  O2-  O552  1  0.58388749  0.16864873  0.01922017  1
  O2-  O553  1  0.58058298  0.16896850  0.34044826  1
  O2-  O554  1  0.61743771  0.16631210  0.64161267  1
  O2-  O555  1  0.60266389  0.41330587  0.02176556  1
  O2-  O556  1  0.57966729  0.40238947  0.34535714  1
  O2-  O557  1  0.58818053  0.37808722  0.67235866  1
  O2-  O558  1  0.58234957  0.67665383  0.02515366  1
  O2-  O559  1  0.59501091  0.66255431  0.35862187  1
  O2-  O560  1  0.59928811  0.66190236  0.69251602  1
  O2-  O561  1  0.57785858  0.90739221  0.03107785  1
  O2-  O562  1  0.59559720  0.91647410  0.35124318  1
  O2-  O563  1  0.58748586  0.90793965  0.68076229  1
  O2-  O564  1  0.85169716  0.18511585  0.02648646  1
  O2-  O565  1  0.83420079  0.17392955  0.34591851  1
  O2-  O566  1  0.86030914  0.15879415  0.68035806  1
  O2-  O567  1  0.83682425  0.40617225  0.00536828  1
  O2-  O568  1  0.82500694  0.40649224  0.30639644  1
  O2-  O569  1  0.88408494  0.42890688  0.70212430  1
  O2-  O570  1  0.82925075  0.66426452  0.01997886  1
  O2-  O571  1  0.78370363  0.58061432  0.41339180  1
  O2-  O572  1  0.83916922  0.65963766  0.70041934  1
  O2-  O573  1  0.81329329  0.88687435  0.02192949  1
  O2-  O574  1  0.84019054  0.93402291  0.36409311  1
  O2-  O575  1  0.85202398  0.92500281  0.70333969  1
