# generated using pymatgen
data_H2O
_symmetry_space_group_name_H-M   'P 1'
_cell_length_a   17.99450225
_cell_length_b   17.99478606
_cell_length_c   22.02398060
_cell_angle_alpha   90.03545808
_cell_angle_beta   89.97766583
_cell_angle_gamma   119.99171334
_symmetry_Int_Tables_number   1
_chemical_formula_structural   H2O
_chemical_formula_sum   'H384 O192'
_cell_volume   6176.59529934
_cell_formula_units_Z   192
loop_
 _symmetry_equiv_pos_site_id
 _symmetry_equiv_pos_as_xyz
  1  'x, y, z'
loop_
 _atom_type_symbol
 _atom_type_oxidation_number
  H+  1.0
  O2-  -2.0
loop_
 _atom_site_type_symbol
 _atom_site_label
 _atom_site_symmetry_multiplicity
 _atom_site_fract_x
 _atom_site_fract_y
 _atom_site_fract_z
 _atom_site_occupancy
  H+  H0  1  0.59449342  -0.04143299  0.69014837  1
  H+  H1  1  0.63453745  1.02175478  0.32093363  1
  H+  H2  1  0.50687949  0.87904148  0.31901181  1
  H+  H3  1  0.10972514  0.13330080  0.34334535  1
  H+  H4  1  0.77422507  0.14395526  0.33609850  1
  H+  H5  1  0.98901023  0.11880994  0.83802207  1
  H+  H6  1  0.40738141  0.13292354  0.65702262  1
  H+  H7  1  0.37372598  0.39328347  0.34850748  1
  H+  H8  1  0.62524541  0.86669984  0.16165785  1
  H+  H9  1  0.36950362  0.48026679  0.34181430  1
  H+  H10  1  0.79714379  0.90480873  0.83494425  1
  H+  H11  1  0.37012592  0.89263088  0.00874379  1
  H+  H12  1  0.35127558  0.64751147  0.50768890  1
  H+  H13  1  0.33561122  0.58675423  0.83746192  1
  H+  H14  1  0.78753662  0.39386715  0.67346923  1
  H+  H15  1  0.36092233  0.38286641  0.00344347  1
  H+  H16  1  0.63903240  0.27703584  -0.02806931  1
  H+  H17  1  0.62650059  0.33308304  0.31003436  1
  H+  H18  1  0.35930007  0.97130030  0.34260400  1
  H+  H19  1  0.14230391  1.02833257  0.65184180  1
  H+  H20  1  0.03867214  0.90751260  0.17574270  1
  H+  H21  1  0.63033259  0.37235341  0.47766210  1
  H+  H22  1  0.97174053  0.12125701  0.99035893  1
  H+  H23  1  0.62434002  0.45521963  0.65267569  1
  H+  H24  1  0.93537899  0.07531194  0.63892083  1
  H+  H25  1  0.46338870  0.60734468  0.16688599  1
  H+  H26  1  0.13260940  0.99728366  0.84293973  1
  H+  H27  1  0.60467773  0.12364711  0.48988208  1
  H+  H28  1  0.47133869  0.86609977  0.16744277  1
  H+  H29  1  0.73050397  0.11454159  0.99539606  1
  H+  H30  1  0.35735420  0.47088360  1.00596584  1
  H+  H31  1  0.79140835  0.64612922  0.01350163  1
  H+  H32  1  0.23687871  0.37982129  0.66550459  1
  H+  H33  1  0.10041938  0.40133849  0.13944288  1
  H+  H34  1  0.28603152  0.13414210  0.49179928  1
  H+  H35  1  0.98101748  0.12601873  0.32604315  1
  H+  H36  1  0.16538224  0.88273252  0.96980932  1
  H+  H37  1  0.96285917  0.96082550  0.53321576  1
  H+  H38  1  0.13505084  0.61614270  0.32925601  1
  H+  H39  1  0.13776271  1.02205494  0.32978958  1
  H+  H40  1  0.49840321  0.11432685  0.49107846  1
  H+  H41  1  0.96964460  0.60442730  0.83938887  1
  H+  H42  1  0.64754385  0.35262274  0.65648101  1
  H+  H43  1  0.11326594  0.22603930  0.15227437  1
  H+  H44  1  0.94035727  0.80274122  0.16203157  1
  H+  H45  1  0.80994926  0.89471046  0.20080831  1
  H+  H46  1  0.89725625  1.03464957  0.83498814  1
  H+  H47  1  0.86156942  0.19058901  0.77107567  1
  H+  H48  1  0.86119126  0.60101006  0.18066432  1
  H+  H49  1  0.65919865  0.27274241  0.66013303  1
  H+  H50  1  0.14801396  0.87723926  0.17669556  1
  H+  H51  1  0.89547838  1.02802107  0.17397588  1
  H+  H52  1  0.38799298  0.63568870  0.66860051  1
  H+  H53  1  0.77352958  0.13785488  0.69101250  1
  H+  H54  1  0.87311740  0.48807374  0.99139718  1
  H+  H55  1  0.91939015  0.09268816  0.22953652  1
  H+  H56  1  0.38425713  0.53237989  0.51915948  1
  H+  H57  1  0.66742632  0.53411123  0.83237155  1
  H+  H58  1  0.86584963  0.70746630  0.33154330  1
  H+  H59  1  1.01720451  0.37420065  0.67924516  1
  H+  H60  1  0.78232537  0.37889418  0.33039238  1
  H+  H61  1  0.03820856  0.39678948  0.35082939  1
  H+  H62  1  0.15784535  1.02256995  0.49951178  1
  H+  H63  1  0.88565160  0.88283672  0.17380805  1
  H+  H64  1  0.61881851  0.38685850  0.38684045  1
  H+  H65  1  0.73508118  0.37444853  0.15276396  1
  H+  H66  1  0.36877504  -0.01827496  1.00494671  1
  H+  H67  1  0.12525073  0.84719653  0.84520353  1
  H+  H68  1  0.96892664  0.60646054  0.49642858  1
  H+  H69  1  0.11054437  0.13686957  0.99832495  1
  H+  H70  1  0.03388053  0.89860568  0.49165991  1
  H+  H71  1  0.79904854  0.64736291  0.67045587  1
  H+  H72  1  0.69092323  0.59187267  0.92998814  1
  H+  H73  1  0.75147576  0.63599710  0.16941824  1
  H+  H74  1  0.14111967  0.53013753  0.33283763  1
  H+  H75  1  0.34427352  0.35426408  0.18070085  1
  H+  H76  1  0.12980012  0.61502937  -0.00903805  1
  H+  H77  1  0.66109507  0.66157209  0.66174895  1
  H+  H78  1  0.23594665  0.11285773  0.65781760  1
  H+  H79  1  0.54381754  0.61727960  0.01297566  1
  H+  H80  1  0.85480416  0.12955985  0.67704333  1
  H+  H81  1  0.91630895  0.32872250  0.59895314  1
  H+  H82  1  0.88998712  0.64804140  0.67513695  1
  H+  H83  1  0.89711291  0.83191098  0.31812523  1
  H+  H84  1  0.72695215  0.86062699  0.00612567  1
  H+  H85  1  0.88699577  0.90610662  0.83392044  1
  H+  H86  1  0.34887907  0.74035473  0.68152878  1
  H+  H87  1  0.60282369  0.49371649  0.50572844  1
  H+  H88  1  0.01437043  0.89388067  0.66719362  1
  H+  H89  1  0.89084018  0.15798879  0.82884309  1
  H+  H90  1  0.33091058  -0.18060421  0.81406320  1
  H+  H91  1  0.61779056  0.14145725  -0.02268902  1
  H+  H92  1  0.02917858  0.13775717  0.16736295  1
  H+  H93  1  0.12882388  0.39997374  0.35188698  1
  H+  H94  1  0.34490885  0.70779921  0.83527984  1
  H+  H95  1  0.10869504  0.22385182  1.00383487  1
  H+  H96  1  0.87949016  0.60330607  0.49629901  1
  H+  H97  1  0.68533558  0.79572722  0.84618505  1
  H+  H98  1  0.12056876  0.34098350  0.84587668  1
  H+  H99  1  0.08311262  0.66885816  0.39996488  1
  H+  H100  1  0.11711068  0.22537394  0.34539761  1
  H+  H101  1  0.83184844  0.42250758  0.09097285  1
  H+  H102  1  0.27050963  0.39519194  0.50091009  1
  H+  H103  1  0.66030716  0.61775114  0.99106862  1
  H+  H104  1  0.62785085  0.98709580  0.51997763  1
  H+  H105  1  0.35484651  0.47561532  0.15658844  1
  H+  H106  1  0.70731776  0.85619127  0.15102758  1
  H+  H107  1  0.38026663  0.11042096  0.33361574  1
  H+  H108  1  0.79109055  0.73060309  0.79105426  1
  H+  H109  1  0.53898213  0.14852086  0.66897043  1
  H+  H110  1  0.83892627  0.72331299  0.18210570  1
  H+  H111  1  0.91648829  0.56324974  0.92690637  1
  H+  H112  1  0.12953406  0.52545694  0.98903671  1
  H+  H113  1  0.12977423  0.73781004  0.15469155  1
  H+  H114  1  0.38487112  0.77586465  1.00061342  1
  H+  H115  1  0.52042304  0.68906199  0.82881142  1
  H+  H116  1  0.21975415  0.36447480  -0.00143401  1
  H+  H117  1  0.90967467  0.37585598  0.33212492  1
  H+  H118  1  0.10883406  0.37824670  0.68415987  1
  H+  H119  1  0.05661320  0.15039795  0.68671248  1
  H+  H120  1  0.44571349  0.61954723  0.96802993  1
  H+  H121  1  0.94915240  0.30038356  0.83067143  1
  H+  H122  1  0.37267805  0.35919702  0.51434547  1
  H+  H123  1  0.39411150  0.11714205  0.49709198  1
  H+  H124  1  0.52458338  0.13695699  0.82787949  1
  H+  H125  1  0.13998490  0.14402329  0.67292519  1
  H+  H126  1  0.73700081  0.85340929  0.50219407  1
  H+  H127  1  0.63392954  0.26469535  0.26522241  1
  H+  H128  1  0.46426988  0.86176165  0.53071909  1
  H+  H129  1  0.11920070  0.50808872  0.84241497  1
  H+  H130  1  0.56393975  0.87087643  0.72250488  1
  H+  H131  1  0.87561664  0.39420462  0.67129711  1
  H+  H132  1  0.63622420  0.56815590  0.67751252  1
  H+  H133  1  0.24262674  0.36735244  0.34203927  1
  H+  H134  1  0.61185104  0.47618691  -0.01651225  1
  H+  H135  1  0.03099646  0.87551768  0.33393214  1
  H+  H136  1  1.00987638  0.14373599  0.49555532  1
  H+  H137  1  0.25930487  0.64093593  0.00605221  1
  H+  H138  1  0.46385553  0.36700347  0.51661234  1
  H+  H139  1  0.96086893  0.36222861  0.99174028  1
  H+  H140  1  0.61039556  0.98179161  0.16024093  1
  H+  H141  1  0.63510721  0.36514700  0.98141804  1
  H+  H142  1  0.89419925  0.77891031  0.65180638  1
  H+  H143  1  0.84997536  0.87615083  0.48660040  1
  H+  H144  1  0.86061286  0.23060229  0.48920016  1
  H+  H145  1  0.38499473  0.27731593  0.99160503  1
  H+  H146  1  0.26411939  0.11320379  0.82821852  1
  H+  H147  1  0.68719880  0.07044045  0.82999275  1
  H+  H148  1  0.87193567  0.35471023  0.15926816  1
  H+  H149  1  0.11339691  0.72655020  0.33904915  1
  H+  H150  1  0.89183155  0.50982256  0.84101343  1
  H+  H151  1  0.62501890  0.86043167  0.31049215  1
  H+  H152  1  0.27766178  0.13653892  0.00764239  1
  H+  H153  1  0.24859435  0.62538216  0.82853490  1
  H+  H154  1  0.86046164  0.72466261  0.49007225  1
  H+  H155  1  0.34881609  0.25645446  0.18232595  1
  H+  H156  1  0.15040561  0.57441143  0.89889238  1
  H+  H157  1  0.75713271  0.89956877  0.33193650  1
  H+  H158  1  0.85852812  0.87845663  1.01927289  1
  H+  H159  1  0.10325362  0.39242008  0.00216811  1
  H+  H160  1  0.56343175  0.43747636  0.44637890  1
  H+  H161  1  0.63754973  0.77540069  -0.00232519  1
  H+  H162  1  0.23980990  0.86903356  -0.00473207  1
  H+  H163  1  0.46929183  0.35742217  0.66151441  1
  H+  H164  1  0.28124797  0.90137765  0.16152397  1
  H+  H165  1  0.35825391  0.22197601  0.67912603  1
  H+  H166  1  0.22383577  0.86351373  0.50727313  1
  H+  H167  1  0.39273850  0.03895261  0.17621610  1
  H+  H168  1  0.37078480  0.22754626  0.49465340  1
  H+  H169  1  0.97875879  0.60827576  0.32736779  1
  H+  H170  1  0.85688415  0.41752822  0.76699258  1
  H+  H171  1  0.60658732  0.12385324  0.34043787  1
  H+  H172  1  0.27136935  0.13751448  0.34375179  1
  H+  H173  1  0.24291640  0.81672965  0.80929385  1
  H+  H174  1  0.86295205  0.14272808  0.00220619  1
  H+  H175  1  0.38055904  0.11026160  0.83463608  1
  H+  H176  1  0.11792169  0.21439086  0.83881334  1
  H+  H177  1  -0.00357465  0.61808157  0.66837015  1
  H+  H178  1  0.22264528  0.61105845  0.17726744  1
  H+  H179  1  0.73621261  0.12706552  0.49667935  1
  H+  H180  1  0.47698583  0.35521220  0.32548427  1
  H+  H181  1  0.97099604  0.59216198  0.99326130  1
  H+  H182  1  0.15676199  0.28556179  0.66627025  1
  H+  H183  1  0.38843437  0.11509041  0.99135244  1
  H+  H184  1  0.21547689  0.64771582  0.67537436  1
  H+  H185  1  0.06433002  0.39392387  0.76781178  1
  H+  H186  1  0.34292066  0.63345644  0.00587146  1
  H+  H187  1  0.12960298  0.85912566  0.66156563  1
  H+  H188  1  0.10035032  0.48776369  0.15413545  1
  H+  H189  1  0.55434492  0.42297544  0.81109292  1
  H+  H190  1  0.92678597  0.87335278  0.56935153  1
  H+  H191  1  0.76720315  0.64320487  0.49515723  1
  H+  H192  1  0.13104732  0.28221496  0.51131339  1
  H+  H193  1  0.35169469  0.91214208  0.70632672  1
  H+  H194  1  0.85740494  0.13589234  0.15734895  1
  H+  H195  1  0.11177595  0.39468229  0.50486970  1
  H+  H196  1  0.65736876  0.87772692  0.53384703  1
  H+  H197  1  0.01895995  0.88577842  0.01790430  1
  H+  H198  1  0.97170472  0.36396033  0.50662286  1
  H+  H199  1  0.14991073  1.03696016  0.18097701  1
  H+  H200  1  0.90420466  0.53362155  0.67234415  1
  H+  H201  1  0.63511177  0.62784374  0.52071785  1
  H+  H202  1  0.12631244  0.52660998  0.52245547  1
  H+  H203  1  0.82774809  0.16436310  1.06426097  1
  H+  H204  1  0.22952964  0.85852858  0.32743459  1
  H+  H205  1  0.67539532  0.37081713  0.20711162  1
  H+  H206  1  0.62583500  0.27904335  0.83318760  1
  H+  H207  1  0.88673258  0.27099075  0.65962866  1
  H+  H208  1  0.36103751  0.64208732  0.32563739  1
  H+  H209  1  0.27633032  0.92156193  0.68644415  1
  H+  H210  1  0.35956009  0.88992660  0.49882537  1
  H+  H211  1  0.59938767  0.62950489  0.16475635  1
  H+  H212  1  0.21091325  0.34180468  0.84292624  1
  H+  H213  1  0.10396966  0.62355961  0.81929212  1
  H+  H214  1  0.62118668  0.15301666  0.83061618  1
  H+  H215  1  0.59949546  0.71998146  0.15995734  1
  H+  H216  1  0.85600176  0.46844771  0.48702059  1
  H+  H217  1  0.10617947  0.71348897  0.81743983  1
  H+  H218  1  0.61891241  0.24065836  0.17976420  1
  H+  H219  1  0.10714606  0.63715339  0.49681289  1
  H+  H220  1  0.51042500  0.64375761  0.52055387  1
  H+  H221  1  0.33618812  0.34981938  0.83300150  1
  H+  H222  1  0.88624230  0.60112192  0.32971691  1
  H+  H223  1  0.85454080  0.47750558  0.15486196  1
  H+  H224  1  0.85071844  -0.00681939  0.65987963  1
  H+  H225  1  0.86664595  0.47264129  0.33441128  1
  H+  H226  1  0.35716615  0.72692925  0.15889229  1
  H+  H227  1  0.87365861  0.27044724  0.99796595  1
  H+  H228  1  0.85521781  0.22480202  0.15383587  1
  H+  H229  1  0.60851273  0.21299191  0.34454567  1
  H+  H230  1  0.13562579  0.09026068  0.84457820  1
  H+  H231  1  0.46785559  0.10628648  0.33282314  1
  H+  H232  1  0.99699086  0.87631922  0.85210803  1
  H+  H233  1  0.36951472  0.15362957  0.16897509  1
  H+  H234  1  0.64970971  0.41996614  0.12714352  1
  H+  H235  1  0.26258020  0.64624942  0.51220719  1
  H+  H236  1  0.43212836  0.33085500  0.84165280  1
  H+  H237  1  0.37479564  0.60985353  0.16680665  1
  H+  H238  1  0.61850383  0.86219964  0.83162686  1
  H+  H239  1  0.61646888  0.89108726  0.00897067  1
  H+  H240  1  0.08686920  0.66775091  0.06635799  1
  H+  H241  1  0.87819720  0.85943283  0.66135391  1
  H+  H242  1  0.64080002  0.12250201  0.18789816  1
  H+  H243  1  0.72582548  0.59712645  0.32178454  1
  H+  H244  1  0.63959361  0.77929442  0.53551997  1
  H+  H245  1  0.45637572  0.86305572  0.67034657  1
  H+  H246  1  0.91122258  0.40398959  0.81804712  1
  H+  H247  1  0.87977697  0.35922937  0.50437936  1
  H+  H248  1  0.47161418  0.61002941  0.31039417  1
  H+  H249  1  0.51699605  0.38907728  -0.01358679  1
  H+  H250  1  0.12289466  0.64585036  0.15851380  1
  H+  H251  1  0.16456110  0.83495604  0.56682248  1
  H+  H252  1  0.14402085  1.02208749  -0.00084510  1
  H+  H253  1  0.85243312  0.91936965  0.33370109  1
  H+  H254  1  0.71547294  0.37428576  0.45756848  1
  H+  H255  1  0.88506780  0.04619432  0.32804263  1
  H+  H256  1  0.75359749  0.62593241  0.83712028  1
  H+  H257  1  0.38276922  0.77152534  0.31666410  1
  H+  H258  1  0.62730829  0.39429322  0.81762897  1
  H+  H259  1  0.63895214  0.52853811  0.15659124  1
  H+  H260  1  0.32925778  0.43941637  0.83160983  1
  H+  H261  1  0.36711856  0.39854104  0.67796916  1
  H+  H262  1  0.87067955  0.10418910  0.49521247  1
  H+  H263  1  0.14284172  0.86255109  0.32554124  1
  H+  H264  1  0.53163411  0.15576384  0.19898536  1
  H+  H265  1  0.41723584  0.57494057  0.83755431  1
  H+  H266  1  0.61537603  0.72896773  0.31447225  1
  H+  H267  1  0.21614946  0.37424489  0.15483130  1
  H+  H268  1  0.50844103  0.35370898  0.17568317  1
  H+  H269  1  0.63435317  0.10826808  0.68046555  1
  H+  H270  1  0.27389311  0.14184085  0.16694585  1
  H+  H271  1  0.67055586  0.66575911  0.81855198  1
  H+  H272  1  0.52608843  0.65124288  0.82115512  1
  H+  H273  1  0.14848848  0.12618429  0.18301378  1
  H+  H274  1  0.89461153  0.78261703  1.00359046  1
  H+  H275  1  0.16895195  0.34139343  0.57113719  1
  H+  H276  1  0.62065728  0.45867288  0.33958698  1
  H+  H277  1  0.47786261  0.86316545  -0.00087940  1
  H+  H278  1  0.38669970  0.02548024  0.82955297  1
  H+  H279  1  0.59412446  0.93146906  0.81130890  1
  H+  H280  1  0.52799457  0.14097225  0.97581756  1
  H+  H281  1  0.34288111  0.21007585  0.83208940  1
  H+  H282  1  0.38439357  0.01969932  0.49883195  1
  H+  H283  1  0.47155098  0.83017443  0.84504857  1
  H+  H284  1  0.75635080  0.85850925  0.68537718  1
  H+  H285  1  0.72571850  0.11575510  0.17271692  1
  H+  H286  1  0.50232261  0.39104400  0.16845506  1
  H+  H287  1  0.32216583  0.66584442  0.10066205  1
  H+  H288  1  0.68714306  0.12798623  0.55637597  1
  H+  H289  1  0.91542997  0.09845702  0.93089969  1
  H+  H290  1  0.32777975  0.15628920  0.73530567  1
  H+  H291  1  0.09272081  0.86575041  0.03739332  1
  H+  H292  1  0.07347052  0.87871023  0.78586973  1
  H+  H293  1  0.36918161  0.56103654  0.92563183  1
  H+  H294  1  0.39955023  0.55381189  0.67316582  1
  H+  H295  1  0.88038724  0.05945504  0.55296868  1
  H+  H296  1  0.59148861  0.66310642  0.07265724  1
  H+  H297  1  0.40835031  0.07945429  0.92973445  1
  H+  H298  1  0.55553323  0.69380474  0.67908534  1
  H+  H299  1  0.82770754  0.89953850  0.08138925  1
  H+  H300  1  0.66911044  0.08682772  0.26601899  1
  H+  H301  1  0.40876829  0.08640645  0.24016108  1
  H+  H302  1  0.68563907  0.84409468  0.90891954  1
  H+  H303  1  0.11367980  0.88080027  0.49206823  1
  H+  H304  1  0.07428086  0.17400547  0.44049640  1
  H+  H305  1  0.66342685  0.83824987  0.25229231  1
  H+  H306  1  0.61233015  0.44716365  0.07113268  1
  H+  H307  1  0.07030407  0.42906212  0.05610328  1
  H+  H308  1  0.31716016  0.67157917  0.73632035  1
  H+  H309  1  0.32941824  0.41427785  0.73838432  1
  H+  H310  1  0.90024677  0.79933090  0.84692523  1
  H+  H311  1  0.39338794  0.32225605  0.92625581  1
  H+  H312  1  0.66223746  0.05607308  0.63474031  1
  H+  H313  1  0.59895050  0.42298295  0.72187417  1
  H+  H314  1  0.15178391  0.78338084  0.66077535  1
  H+  H315  1  0.58429135  0.66517103  0.36961638  1
  H+  H316  1  0.17605048  0.83937227  0.23210728  1
  H+  H317  1  0.82734809  0.65785934  0.39473663  1
  H+  H318  1  0.63782959  0.59791776  0.31702039  1
  H+  H319  1  0.93363522  0.81878298  0.25388574  1
  H+  H320  1  0.83275014  0.90919740  0.73681347  1
  H+  H321  1  0.07418421  0.94253467  0.72369363  1
  H+  H322  1  0.33618654  0.42749027  0.44471349  1
  H+  H323  1  0.16155602  0.58208475  0.23614939  1
  H+  H324  1  0.58825282  0.16850422  0.73400511  1
  H+  H325  1  0.76566311  0.38345791  0.99569021  1
  H+  H326  1  0.18501777  0.08375047  0.55800062  1
  H+  H327  1  0.61620177  0.98008076  0.00376163  1
  H+  H328  1  0.64931729  0.56198005  0.22783683  1
  H+  H329  1  0.68160541  0.08916067  0.93237177  1
  H+  H330  1  0.38445386  0.27087700  0.33134975  1
  H+  H331  1  0.08941458  0.42910710  0.44509171  1
  H+  H332  1  0.10907062  0.72650326  0.49431143  1
  H+  H333  1  0.96156890  0.36000338  0.15835031  1
  H+  H334  1  0.13924270  0.34515200  0.20202489  1
  H+  H335  1  0.90031336  0.56918747  0.23285489  1
  H+  H336  1  0.40213957  0.57176505  0.25825539  1
  H+  H337  1  0.58474739  0.90822243  0.47597605  1
  H+  H338  1  0.58238758  0.92543072  0.09842175  1
  H+  H339  1  0.56037815  0.15988836  0.08562877  1
  H+  H340  1  0.14686523  0.59120287  0.57923669  1
  H+  H341  1  0.92828731  0.84596435  0.94413619  1
  H+  H342  1  0.16223510  0.80706399  0.89518983  1
  H+  H343  1  0.17138759  0.08750296  0.27351737  1
  H+  H344  1  0.19055930  0.33100619  0.28205606  1
  H+  H345  1  0.33121439  0.91357746  0.43519442  1
  H+  H346  1  0.57671858  0.69073312  0.46698424  1
  H+  H347  1  0.38416237  0.86961564  0.16794826  1
  H+  H348  1  0.33675753  0.17034607  0.40105871  1
  H+  H349  1  0.82972940  0.17397968  0.42693837  1
  H+  H350  1  0.15950291  0.33193561  0.93990218  1
  H+  H351  1  0.56783786  0.90571152  0.37665795  1
  H+  H352  1  0.41182844  0.59436719  0.57887037  1
  H+  H353  1  0.36272195  0.88379800  0.33872899  1
  H+  H354  1  0.37251141  0.77538161  0.52051672  1
  H+  H355  1  0.34084120  0.93090005  0.10198263  1
  H+  H356  1  0.40927919  0.83541589  0.25812230  1
  H+  H357  1  0.67312432  0.60040580  0.57487180  1
  H+  H358  1  0.40349949  0.32734091  0.60665264  1
  H+  H359  1  0.66281013  0.34369157  0.89012167  1
  H+  H360  1  0.33056662  0.41245320  0.09786126  1
  H+  H361  1  0.58436638  0.13570341  0.08774621  1
  H+  H362  1  0.85479500  0.37422346  -0.00024705  1
  H+  H363  1  0.10813678  0.66230211  0.72980245  1
  H+  H364  1  0.83650313  0.41016911  0.42817618  1
  H+  H365  1  0.33810120  0.17172899  0.06634199  1
  H+  H366  1  0.27440471  0.64562436  0.32973130  1
  H+  H367  1  0.17166589  0.06981226  0.93524565  1
  H+  H368  1  0.85132285  0.70238104  0.75801330  1
  H+  H369  1  0.90727300  0.28776228  0.33370771  1
  H+  H370  1  0.10680368  0.16585631  0.77614453  1
  H+  H371  1  0.86669280  0.15064261  0.33550398  1
  H+  H372  1  0.43686875  0.10500405  0.59743448  1
  H+  H373  1  0.76719216  0.15861771  0.84305014  1
  H+  H374  1  0.09126432  0.93404926  0.11354265  1
  H+  H375  1  0.38100217  0.32509986  0.24584687  1
  H+  H376  1  0.39028936  0.83916876  0.61639947  1
  H+  H377  1  0.10646013  0.72094412  1.00460088  1
  H+  H378  1  0.83306202  0.68114875  0.07800004  1
  H+  H379  1  0.08656477  0.91110647  0.39549036  1
  H+  H380  1  0.80371823  0.89237969  0.42784544  1
  H+  H381  1  0.57270310  0.15051142  0.42727089  1
  H+  H382  1  0.41693626  0.82061645  0.90570212  1
  H+  H383  1  0.65527890  0.71604524  0.76250553  1
  O2-  O384  1  0.09261756  0.16614068  0.16368128  1
  O2-  O385  1  0.07079430  0.18214153  0.48455412  1
  O2-  O386  1  0.09380773  0.15565933  0.82009941  1
  O2-  O387  1  0.06799572  0.43160682  0.13191140  1
  O2-  O388  1  0.08078933  0.42463390  0.49021294  1
  O2-  O389  1  0.06950202  0.39580391  0.81664461  1
  O2-  O390  1  0.10128689  0.67963073  0.13675927  1
  O2-  O391  1  0.07971591  0.66746392  0.47685172  1
  O2-  O392  1  0.07878082  0.65486461  0.79797897  1
  O2-  O393  1  0.09911736  0.93749763  0.15854827  1
  O2-  O394  1  0.08967038  0.91530139  0.47265591  1
  O2-  O395  1  0.08341494  0.90039897  0.82726180  1
  O2-  O396  1  0.33613975  0.18048691  0.15267032  1
  O2-  O397  1  0.34833223  0.16928698  0.47638761  1
  O2-  O398  1  0.32447305  0.15117875  0.81301738  1
  O2-  O399  1  0.32357635  0.41323934  0.14365228  1
  O2-  O400  1  0.33325143  0.42665186  0.48979148  1
  O2-  O401  1  0.30539848  0.38215605  0.81285823  1
  O2-  O402  1  0.32724220  0.66541424  0.14600699  1
  O2-  O403  1  0.32286937  0.68063106  0.49779719  1
  O2-  O404  1  0.31018539  0.64985461  0.81569958  1
  O2-  O405  1  0.34280392  0.93280389  0.14739513  1
  O2-  O406  1  0.33081771  0.92038669  0.48039836  1
  O2-  O407  1  0.28291806  0.80490273  0.78636579  1
  O2-  O408  1  0.59503378  0.18797888  0.20566403  1
  O2-  O409  1  0.56840789  0.14725517  0.47399681  1
  O2-  O410  1  0.58387514  0.17205824  0.81137583  1
  O2-  O411  1  0.64472269  0.46820340  0.10986232  1
  O2-  O412  1  0.56583142  0.43370784  0.49060959  1
  O2-  O413  1  0.61109716  0.43828079  0.79613248  1
  O2-  O414  1  0.56963521  0.65926246  0.14611052  1
  O2-  O415  1  0.57577053  0.67984179  0.51033665  1
  O2-  O416  1  0.68812016  0.72296197  0.80040722  1
  O2-  O417  1  0.58002449  0.92149835  0.14418609  1
  O2-  O418  1  0.59810864  0.92276830  0.51866615  1
  O2-  O419  1  0.57252318  0.87003166  0.81073767  1
  O2-  O420  1  0.82239966  0.16093319  0.14264843  1
  O2-  O421  1  0.82603209  0.17008793  0.47287410  1
  O2-  O422  1  0.86965505  0.19839899  0.81603918  1
  O2-  O423  1  0.82808762  0.41763923  0.13609005  1
  O2-  O424  1  0.82531512  0.40663749  0.47278232  1
  O2-  O425  1  0.86481195  0.41699578  0.81177404  1
  O2-  O426  1  0.81494671  0.66832961  0.16054140  1
  O2-  O427  1  0.82395361  0.66712465  0.47405385  1
  O2-  O428  1  0.83477767  0.71346991  0.79905376  1
  O2-  O429  1  0.84808878  0.91172389  0.16584321  1
  O2-  O430  1  0.79377705  0.85723280  0.46519551  1
  O2-  O431  1  0.85368533  0.93094972  0.81372184  1
  O2-  O432  1  0.18251994  0.09774134  0.19678829  1
  O2-  O433  1  0.19214021  0.08289112  0.51341573  1
  O2-  O434  1  0.16586329  0.05969915  0.85842392  1
  O2-  O435  1  0.15209341  0.34479774  0.15917376  1
  O2-  O436  1  0.16716316  0.34332975  0.52584986  1
  O2-  O437  1  0.15251344  0.31406914  0.86339564  1
  O2-  O438  1  0.16159985  0.58192528  0.19049269  1
  O2-  O439  1  0.15386866  0.58829457  0.53488032  1
  O2-  O440  1  0.14842096  0.56986915  0.85334782  1
  O2-  O441  1  0.17943538  0.84619938  0.18684474  1
  O2-  O442  1  0.16289507  0.83262266  0.52117512  1
  O2-  O443  1  0.15180818  0.80810341  0.85156621  1
  O2-  O444  1  0.41770563  0.09709408  0.19536933  1
  O2-  O445  1  0.42240763  0.08267434  0.51078901  1
  O2-  O446  1  0.41403635  0.08139774  0.84954321  1
  O2-  O447  1  0.34657500  0.30724570  0.20655691  1
  O2-  O448  1  0.40272926  0.32817825  0.52835730  1
  O2-  O449  1  0.37494787  0.30413958  0.85907175  1
  O2-  O450  1  0.40211706  0.57551678  0.18064007  1
  O2-  O451  1  0.41477095  0.59350799  0.53327598  1
  O2-  O452  1  0.35908440  0.54817986  0.85408652  1
  O2-  O453  1  0.41062883  0.83467515  0.18177490  1
  O2-  O454  1  0.40234335  0.83849942  0.53432361  1
  O2-  O455  1  0.41271054  0.80743837  0.86151297  1
  O2-  O456  1  0.66596405  0.08422663  0.19108568  1
  O2-  O457  1  0.67560043  0.09735592  0.51785167  1
  O2-  O458  1  0.70407607  0.12274259  0.85282676  1
  O2-  O459  1  0.67134153  0.34922662  0.16587363  1
  O2-  O460  1  0.65500430  0.35426501  0.44503058  1
  O2-  O461  1  0.65311429  0.34044908  0.84519696  1
  O2-  O462  1  0.64795871  0.57792550  0.18483860  1
  O2-  O463  1  0.66788721  0.59793302  0.52969944  1
  O2-  O464  1  0.69373468  0.59129717  0.85301291  1
  O2-  O465  1  0.65405285  0.83244197  0.17448774  1
  O2-  O466  1  0.68581605  0.84177210  0.53783866  1
  O2-  O467  1  0.69276220  0.85044398  0.86368015  1
  O2-  O468  1  0.91925002  0.08939588  0.18432860  1
  O2-  O469  1  0.89488576  0.06823394  0.50945940  1
  O2-  O470  1  0.92730306  0.09588893  0.84899667  1
  O2-  O471  1  0.90118668  0.32250043  0.17105675  1
  O2-  O472  1  0.91021774  0.32874375  0.51962193  1
  O2-  O473  1  0.98334959  0.36293660  0.84222110  1
  O2-  O474  1  0.88778021  0.56552076  0.18878339  1
  O2-  O475  1  0.90733746  0.57020009  0.50717307  1
  O2-  O476  1  0.91395165  0.56874772  0.85988001  1
  O2-  O477  1  0.93693204  0.84130717  0.19168568  1
  O2-  O478  1  0.93741528  0.89906408  0.52694550  1
  O2-  O479  1  0.93410961  0.85596453  0.86721970  1
  O2-  O480  1  0.16750236  0.08441114  0.31909456  1
  O2-  O481  1  0.17670569  0.08942443  0.63918077  1
  O2-  O482  1  0.17569207  0.07946328  0.98046565  1
  O2-  O483  1  0.18209629  0.33535414  0.32523459  1
  O2-  O484  1  0.17610652  0.34421778  0.65078791  1
  O2-  O485  1  0.15924280  0.33849180  0.98509176  1
  O2-  O486  1  0.16663448  0.58769115  0.31279644  1
  O2-  O487  1  0.15253483  0.61742015  0.66228444  1
  O2-  O488  1  0.16234102  0.58716085  0.97468799  1
  O2-  O489  1  0.17026201  0.82962365  0.30991027  1
  O2-  O490  1  0.16738346  0.84004685  0.64346554  1
  O2-  O491  1  0.17839395  0.83769395  0.98004636  1
  O2-  O492  1  0.40738385  0.07703629  0.31804222  1
  O2-  O493  1  0.45791366  0.13865424  0.63486198  1
  O2-  O494  1  0.41384178  0.08084055  0.97486822  1
  O2-  O495  1  0.41547523  0.33175442  0.31504275  1
  O2-  O496  1  0.40724525  0.33011068  0.65211926  1
  O2-  O497  1  0.40787705  0.33485370  0.97267813  1
  O2-  O498  1  0.40892608  0.57550672  0.30354971  1
  O2-  O499  1  0.42587280  0.61233640  0.65570038  1
  O2-  O500  1  0.38595217  0.57411932  0.97036741  1
  O2-  O501  1  0.41364272  0.83552275  0.30363842  1
  O2-  O502  1  0.39370225  0.83754274  0.66115145  1
  O2-  O503  1  0.41725963  0.83557424  0.98422031  1
  O2-  O504  1  0.66603887  0.08423113  0.31194282  1
  O2-  O505  1  0.66608402  0.07340976  0.67694931  1
  O2-  O506  1  0.67076991  0.08107628  0.97664712  1
  O2-  O507  1  0.65987621  0.30427209  0.30071359  1
  O2-  O508  1  0.68724768  0.33257940  0.64475530  1
  O2-  O509  1  0.67240136  0.34202502  0.96717587  1
  O2-  O510  1  0.66450294  0.56277180  0.30789937  1
  O2-  O511  1  0.67731692  0.61633290  0.65290065  1
  O2-  O512  1  0.68536907  0.58385071  0.97507411  1
  O2-  O513  1  0.66245678  0.83611767  0.29777892  1
  O2-  O514  1  0.65977263  0.80445414  0.66914497  1
  O2-  O515  1  0.66834682  0.83645308  0.98561638  1
  O2-  O516  1  0.92133223  0.10241989  0.30872437  1
  O2-  O517  1  0.87352523  0.05141919  0.63948438  1
  O2-  O518  1  0.91169084  0.09918290  0.97564616  1
  O2-  O519  1  0.94546499  0.34901680  0.32429724  1
  O2-  O520  1  0.91933729  0.33096765  0.64429214  1
  O2-  O521  1  0.89880264  0.33038859  0.98160032  1
  O2-  O522  1  0.91797966  0.57373216  0.31270008  1
  O2-  O523  1  0.93466708  0.59628239  0.66287056  1
  O2-  O524  1  0.91298002  0.55713279  0.97459628  1
  O2-  O525  1  0.93030859  0.80703740  0.30238319  1
  O2-  O526  1  0.91569697  0.84057127  0.63975696  1
  O2-  O527  1  0.92717653  0.84464621  0.98980946  1
  O2-  O528  1  0.07582186  0.16165589  0.01274909  1
  O2-  O529  1  0.07888824  0.16412431  0.35616830  1
  O2-  O530  1  0.11765581  0.17865329  0.69542741  1
  O2-  O531  1  0.07251418  0.42476009  0.01071548  1
  O2-  O532  1  0.09999857  0.43078296  0.36671552  1
  O2-  O533  1  0.07151250  0.39800759  0.70324570  1
  O2-  O534  1  0.07757974  0.66165183  0.02013855  1
  O2-  O535  1  0.08167121  0.66615186  0.35436743  1
  O2-  O536  1  0.11774485  0.67175620  0.68326572  1
  O2-  O537  1  0.07971456  0.91233795  0.03624118  1
  O2-  O538  1  0.09002097  0.91370755  0.35002901  1
  O2-  O539  1  0.07584966  0.92484416  0.68200135  1
  O2-  O540  1  0.33914791  0.16948984  0.02153554  1
  O2-  O541  1  0.33386667  0.16972781  0.35529734  1
  O2-  O542  1  0.33023602  0.15991070  0.68974729  1
  O2-  O543  1  0.33174249  0.41266444  0.02356657  1
  O2-  O544  1  0.34319329  0.42331032  0.36310949  1
  O2-  O545  1  0.34035635  0.43134667  0.69438344  1
  O2-  O546  1  0.31958346  0.66861265  0.02305465  1
  O2-  O547  1  0.33742286  0.67887343  0.33807451  1
  O2-  O548  1  0.31828571  0.67601299  0.69121317  1
  O2-  O549  1  0.33858531  0.92229092  0.02293194  1
  O2-  O550  1  0.33138410  0.91087754  0.35775104  1
  O2-  O551  1  0.33320156  0.95515893  0.70512055  1
  O2-  O552  1  0.59038535  0.17623158  -0.03200412  1
  O2-  O553  1  0.57478833  0.15175750  0.35833930  1
  O2-  O554  1  0.59618923  0.16521905  0.68931449  1
  O2-  O555  1  0.57890932  0.41557498  -0.00192446  1
  O2-  O556  1  0.58718327  0.39767656  0.35302177  1
  O2-  O557  1  0.58322233  0.40793017  0.67768833  1
  O2-  O558  1  0.59858988  0.66409541  0.02699857  1
  O2-  O559  1  0.58616476  0.66629102  0.32549077  1
  O2-  O560  1  0.61697748  0.71584566  0.68933199  1
  O2-  O561  1  0.58477964  0.92087023  0.02225726  1
  O2-  O562  1  0.57152566  0.90941046  0.33263120  1
  O2-  O563  1  0.55886980  0.89611266  0.68423361  1
  O2-  O564  1  0.82747446  0.16861052  0.01906517  1
  O2-  O565  1  0.83332312  0.17619285  0.35323621  1
  O2-  O566  1  0.83746117  0.16926334  0.69502621  1
  O2-  O567  1  0.82655653  0.41175546  0.01260779  1
  O2-  O568  1  0.83902489  0.41166681  0.34955726  1
  O2-  O569  1  0.84813317  0.42542685  0.68899890  1
  O2-  O570  1  0.84542780  0.68722924  0.03397245  1
  O2-  O571  1  0.82722251  0.64974780  0.34999986  1
  O2-  O572  1  0.85926534  0.68282227  0.68295711  1
  O2-  O573  1  0.81581046  0.89159696  0.03771152  1
  O2-  O574  1  0.81327043  0.93344474  0.35449328  1
  O2-  O575  1  0.82185543  0.90001409  0.69197660  1
