# generated using pymatgen
data_H2O
_symmetry_space_group_name_H-M   'P 1'
_cell_length_a   17.97274460
_cell_length_b   17.97256919
_cell_length_c   22.00043052
_cell_angle_alpha   90.01121072
_cell_angle_beta   89.96785550
_cell_angle_gamma   119.94713853
_symmetry_Int_Tables_number   1
_chemical_formula_structural   H2O
_chemical_formula_sum   'H384 O192'
_cell_volume   6157.68396912
_cell_formula_units_Z   192
loop_
 _symmetry_equiv_pos_site_id
 _symmetry_equiv_pos_as_xyz
  1  'x, y, z'
loop_
 _atom_type_symbol
 _atom_type_oxidation_number
  H+  1.0
  O2-  -2.0
loop_
 _atom_site_type_symbol
 _atom_site_label
 _atom_site_symmetry_multiplicity
 _atom_site_fract_x
 _atom_site_fract_y
 _atom_site_fract_z
 _atom_site_occupancy
  H+  H0  1  0.36054037  0.74708059  0.34313366  1
  H+  H1  1  0.61809306  0.22579815  0.17048664  1
  H+  H2  1  0.28675331  0.63691936  0.16105343  1
  H+  H3  1  0.86719484  0.33563647  0.99819776  1
  H+  H4  1  0.86496111  0.38633647  0.49400996  1
  H+  H5  1  1.12876118  0.63618184  0.49011218  1
  H+  H6  1  0.39283985  0.11544939  0.84751011  1
  H+  H7  1  0.13939734  0.26882760  0.16931830  1
  H+  H8  1  0.38083318  1.01499595  -0.00391383  1
  H+  H9  1  0.83564063  0.66753756  0.22358176  1
  H+  H10  1  0.71805870  0.35801374  0.83265893  1
  H+  H11  1  0.47578192  0.88227636  0.32207502  1
  H+  H12  1  0.39530967  0.89823955  0.31472487  1
  H+  H13  1  0.36275248  0.13701510  0.15479802  1
  H+  H14  1  0.61053387  0.88515926  0.00287859  1
  H+  H15  1  0.08195764  0.60719682  0.08386213  1
  H+  H16  1  0.87916954  0.12566375  0.50327649  1
  H+  H17  1  0.63934347  0.62763226  0.50332809  1
  H+  H18  1  0.07642339  0.91640973  0.39133337  1
  H+  H19  1  0.12934260  0.15132770  0.82478052  1
  H+  H20  1  0.61604397  0.97510137  0.16070431  1
  H+  H21  1  0.01432931  0.13474560  0.67308557  1
  H+  H22  1  0.88633599  0.02198625  0.32187981  1
  H+  H23  1  0.39602218  0.25642480  0.30737578  1
  H+  H24  1  0.29249996  0.05344645  0.65913272  1
  H+  H25  1  0.72067262  0.09001746  0.83787263  1
  H+  H26  1  0.88075887  0.65884142  0.93949128  1
  H+  H27  1  0.76276463  0.38191330  0.16387071  1
  H+  H28  1  0.36247727  0.48161618  0.00617764  1
  H+  H29  1  0.62983358  0.10979539  -0.01383896  1
  H+  H30  1  0.60650680  0.38471049  0.81991498  1
  H+  H31  1  0.62365398  0.64696790  0.15304430  1
  H+  H32  1  0.39108828  0.51795023  0.83828165  1
  H+  H33  1  0.62466380  0.51869022  0.83054167  1
  H+  H34  1  0.11154797  0.13508419  0.15107412  1
  H+  H35  1  0.84512643  0.37430840  0.16715367  1
  H+  H36  1  0.60534218  0.97521851  0.66945609  1
  H+  H37  1  0.38331988  0.76971823  0.83838107  1
  H+  H38  1  0.08832417  0.94459730  0.64571200  1
  H+  H39  1  0.23174641  0.60708818  0.50005810  1
  H+  H40  1  0.13937061  0.68763742  -0.01889143  1
  H+  H41  1  0.43081648  0.33457850  0.20877387  1
  H+  H42  1  0.60393704  0.71776711  0.32975214  1
  H+  H43  1  0.62827815  0.77581806  0.64942408  1
  H+  H44  1  0.07855186  0.18196249  0.39655700  1
  H+  H45  1  0.87445575  0.87966776  0.82784002  1
  H+  H46  1  0.25670122  0.88056708  0.65224145  1
  H+  H47  1  0.46194171  0.36031414  0.51054200  1
  H+  H48  1  0.64100952  0.36556276  0.33078714  1
  H+  H49  1  0.62390748  0.85346148  0.32407481  1
  H+  H50  1  0.66662020  0.33636004  0.24053017  1
  H+  H51  1  0.97844410  0.11470450  0.17171568  1
  H+  H52  1  0.11671412  0.69710807  0.11194585  1
  H+  H53  1  0.39096442  0.34191791  0.30829494  1
  H+  H54  1  0.86888710  0.64099242  0.30891117  1
  H+  H55  1  0.96435385  0.96258324  0.51504797  1
  H+  H56  1  0.60356441  0.96674319  0.82422863  1
  H+  H57  1  0.10935620  0.88879090  0.83968541  1
  H+  H58  1  0.85678540  0.13576599  0.66681994  1
  H+  H59  1  0.85266552  0.25391327  0.19523627  1
  H+  H60  1  0.66714601  0.33519820  0.58437109  1
  H+  H61  1  1.02592587  0.15359353  0.98696886  1
  H+  H62  1  0.13986921  0.51871320  0.50277041  1
  H+  H63  1  0.34391063  0.92208427  0.73742446  1
  H+  H64  1  0.62722870  0.74542585  0.15511891  1
  H+  H65  1  0.52202112  0.64338283  0.66329211  1
  H+  H66  1  0.47830343  0.11654221  0.17815876  1
  H+  H67  1  0.47466184  0.86023830  0.99181024  1
  H+  H68  1  0.49482403  0.14183639  1.01581002  1
  H+  H69  1  0.65414011  0.58341383  0.22462956  1
  H+  H70  1  0.61882103  0.27550635  0.99084147  1
  H+  H71  1  0.38690398  0.85960353  0.66472470  1
  H+  H72  1  0.33328387  0.89848360  0.09353424  1
  H+  H73  1  0.10493789  0.08770747  0.65006682  1
  H+  H74  1  0.61537886  0.64589965  0.00094299  1
  H+  H75  1  0.86271544  0.63285420  0.68029967  1
  H+  H76  1  0.73704179  0.10788105  0.33351123  1
  H+  H77  1  0.76720911  0.88313831  0.32817395  1
  H+  H78  1  0.72791202  0.35874104  0.51087731  1
  H+  H79  1  0.83074027  0.98240414  0.81453164  1
  H+  H80  1  0.02525519  0.89586839  0.82884648  1
  H+  H81  1  0.13592947  0.78106820  0.18678117  1
  H+  H82  1  0.33989595  0.06551355  0.31658449  1
  H+  H83  1  0.57648462  0.41135713  0.72500323  1
  H+  H84  1  0.36382981  0.62687699  0.48606942  1
  H+  H85  1  0.14811154  0.36716610  0.32534087  1
  H+  H86  1  0.13184488  0.72772588  0.49306907  1
  H+  H87  1  0.13667048  0.64836279  0.83152973  1
  H+  H88  1  0.63158268  0.36824305  0.98415659  1
  H+  H89  1  0.51819136  0.38584790  0.82316721  1
  H+  H90  1  0.40606240  0.48261476  0.29592681  1
  H+  H91  1  0.00858235  0.38352983  -0.00996113  1
  H+  H92  1  0.66253397  1.07905231  -0.07127372  1
  H+  H93  1  1.00995569  0.60898861  0.51558398  1
  H+  H94  1  0.88196733  0.25532674  0.99992272  1
  H+  H95  1  0.72442473  0.87723798  0.97953186  1
  H+  H96  1  0.47938147  0.10935260  0.84596468  1
  H+  H97  1  1.02577864  0.38294534  0.66729605  1
  H+  H98  1  0.61158641  0.73505499  0.48499281  1
  H+  H99  1  0.60546944  0.47394133  0.66722937  1
  H+  H100  1  0.57186557  0.14732976  0.76983557  1
  H+  H101  1  0.14192465  0.78310384  0.33053909  1
  H+  H102  1  0.85904911  -0.00269243  0.97255523  1
  H+  H103  1  0.14724550  0.77741283  0.84844814  1
  H+  H104  1  0.75761516  0.64095040  0.82354205  1
  H+  H105  1  0.64161599  0.36634964  0.17731798  1
  H+  H106  1  0.23600989  0.11522371  0.83969484  1
  H+  H107  1  0.27976176  0.65309201  0.34156303  1
  H+  H108  1  0.40281294  0.81186215  0.57128823  1
  H+  H109  1  0.85878699  0.97585248  0.16850204  1
  H+  H110  1  0.38437113  0.51924994  0.66210400  1
  H+  H111  1  0.46581753  0.36675501  0.65882720  1
  H+  H112  1  0.17638134  0.57690417  0.59391626  1
  H+  H113  1  0.15060138  0.85272288  0.49521634  1
  H+  H114  1  0.55293805  0.95590433  0.48712452  1
  H+  H115  1  0.91439304  0.33146659  0.59778473  1
  H+  H116  1  0.11689694  0.38550270  0.50187997  1
  H+  H117  1  0.75222138  0.90675782  0.47846169  1
  H+  H118  1  0.63283678  0.37019787  0.65288515  1
  H+  H119  1  0.42194163  0.84954172  0.23269795  1
  H+  H120  1  0.14374424  0.52840581  0.83285971  1
  H+  H121  1  0.04730550  0.39468580  0.15363509  1
  H+  H122  1  0.89711311  0.27943163  0.34681105  1
  H+  H123  1  0.39977038  -0.01105564  0.68489804  1
  H+  H124  1  0.86800904  0.45192521  0.82130598  1
  H+  H125  1  0.17342681  0.84475914  0.27203873  1
  H+  H126  1  0.36053937  0.88575897  0.83150419  1
  H+  H127  1  0.39003754  0.36851535  0.83778335  1
  H+  H128  1  0.61321531  -0.02728256  0.34330038  1
  H+  H129  1  0.72998209  0.10682976  0.17912421  1
  H+  H130  1  0.51955539  0.22013850  0.05865099  1
  H+  H131  1  0.88816146  0.11327984  0.32640194  1
  H+  H132  1  0.13220400  1.00185284  0.49224830  1
  H+  H133  1  0.14173755  0.61756204  0.32928107  1
  H+  H134  1  0.09068742  0.67257756  0.39931245  1
  H+  H135  1  0.40373461  0.23166407  0.68489610  1
  H+  H136  1  0.63965461  0.49586574  0.14804138  1
  H+  H137  1  0.87306287  0.14021234  0.16973932  1
  H+  H138  1  0.94544034  0.94361214  0.48464811  1
  H+  H139  1  0.22376649  0.38367045  -0.00479317  1
  H+  H140  1  0.38569742  0.50671972  0.19702539  1
  H+  H141  1  0.47010108  0.85943099  0.83728251  1
  H+  H142  1  0.04976557  0.65202274  0.66670832  1
  H+  H143  1  0.62887978  0.14024620  0.34916999  1
  H+  H144  1  0.75583369  0.36538106  1.00645819  1
  H+  H145  1  0.61122606  0.21875481  0.82328089  1
  H+  H146  1  0.83548189  0.88743830  0.66608036  1
  H+  H147  1  0.87102152  0.39502006  0.35057427  1
  H+  H148  1  0.86095414  0.60968295  0.53906752  1
  H+  H149  1  0.72607101  0.37020727  0.65512861  1
  H+  H150  1  0.59039845  0.49393278  0.48204921  1
  H+  H151  1  0.27309093  0.87110445  1.00829040  1
  H+  H152  1  0.58595881  0.10641134  0.67096769  1
  H+  H153  1  0.09581224  1.00378167  0.00677588  1
  H+  H154  1  0.36858397  0.38319394  0.48173449  1
  H+  H155  1  0.12083745  0.87608603  0.64491416  1
  H+  H156  1  0.39013810  0.27629328  0.15197103  1
  H+  H157  1  0.13817095  0.12319071  0.32772786  1
  H+  H158  1  0.35367701  0.13306499  1.00184540  1
  H+  H159  1  0.25084309  0.05177611  0.65194747  1
  H+  H160  1  0.37560826  0.87079200  0.16138722  1
  H+  H161  1  0.72653529  0.62215343  0.17346423  1
  H+  H162  1  0.62814964  0.52523495  0.98568679  1
  H+  H163  1  0.50375580  0.62510894  0.83662246  1
  H+  H164  1  0.27365315  0.13850614  0.15634543  1
  H+  H165  1  0.37098019  0.72649758  0.15754891  1
  H+  H166  1  0.86602165  0.47359576  0.49958312  1
  H+  H167  1  0.09266625  0.17576936  0.76744309  1
  H+  H168  1  0.03074301  0.88927833  0.16177827  1
  H+  H169  1  0.97889296  0.52753551  0.86797437  1
  H+  H170  1  -0.02127103  0.59876698  0.15939112  1
  H+  H171  1  0.28674637  0.39586089  0.82521926  1
  H+  H172  1  0.47683928  0.61651541  0.99112665  1
  H+  H173  1  0.88690142  0.51468408  0.16634729  1
  H+  H174  1  0.52395422  0.37700034  0.32755381  1
  H+  H175  1  0.15501754  0.52242514  0.17987722  1
  H+  H176  1  0.27606216  0.87413685  0.15828948  1
  H+  H177  1  0.60828533  0.47060042  0.32887579  1
  H+  H178  1  0.75415580  0.89698942  0.66588972  1
  H+  H179  1  0.86135287  0.88872068  0.16532650  1
  H+  H180  1  0.39752375  0.06326480  0.22124329  1
  H+  H181  1  0.41343320  0.57409977  0.59787015  1
  H+  H182  1  0.61871862  0.73798125  1.00088103  1
  H+  H183  1  0.89661845  0.28771739  0.49729636  1
  H+  H184  1  0.36322797  0.71843850  0.00372792  1
  H+  H185  1  0.12625167  0.48242257  0.34358073  1
  H+  H186  1  0.85719987  0.38142240  0.66512648  1
  H+  H187  1  0.85567032  0.74884898  -0.01578703  1
  H+  H188  1  0.16632592  0.09162162  0.23070142  1
  H+  H189  1  0.38635154  0.61489267  -0.00827435  1
  H+  H190  1  0.36875767  0.63314444  0.66879611  1
  H+  H191  1  0.40086243  0.52438226  0.49486161  1
  H+  H192  1  0.27008707  0.13230966  0.33444182  1
  H+  H193  1  0.72189375  0.60866328  0.30597382  1
  H+  H194  1  0.85440480  0.90793641  0.98341288  1
  H+  H195  1  0.33967757  0.66184589  0.06359071  1
  H+  H196  1  0.48295763  0.87214719  0.17096521  1
  H+  H197  1  0.38788037  0.22902422  0.48787251  1
  H+  H198  1  0.88166135  0.27134270  0.65771699  1
  H+  H199  1  0.71710291  0.61643501  0.97989470  1
  H+  H200  1  0.63789306  0.10617298  0.83653142  1
  H+  H201  1  0.32670991  0.16379430  0.06190247  1
  H+  H202  1  0.89087753  0.52431388  0.66958432  1
  H+  H203  1  0.88327985  0.48351983  0.00204340  1
  H+  H204  1  0.91936063  0.57022912  0.95907902  1
  H+  H205  1  0.12800695  0.81239867  0.00104072  1
  H+  H206  1  0.27802917  0.37250556  0.32745332  1
  H+  H207  1  0.14942956  0.60698169  0.17442381  1
  H+  H208  1  0.12420374  0.39514297  0.82190899  1
  H+  H209  1  0.03759462  0.39333059  0.34678932  1
  H+  H210  1  0.79319508  0.27328548  0.23681682  1
  H+  H211  1  0.10716660  0.21728271  0.66849357  1
  H+  H212  1  0.52632413  0.62077585  0.32227154  1
  H+  H213  1  0.87225515  0.78956016  0.82865226  1
  H+  H214  1  0.61632487  0.86073671  0.50187109  1
  H+  H215  1  0.53372536  0.12906067  0.49691409  1
  H+  H216  1  0.84539244  0.76577908  0.65694224  1
  H+  H217  1  0.14248586  0.51710028  0.65379159  1
  H+  H218  1  0.51519026  0.38918506  0.00168545  1
  H+  H219  1  0.84606494  0.18675216  0.29933750  1
  H+  H220  1  0.27658991  0.91183070  0.33432211  1
  H+  H221  1  0.66937904  0.08782411  0.59869373  1
  H+  H222  1  0.86498761  0.73008830  0.30854038  1
  H+  H223  1  1.02348960  0.13821770  0.33680907  1
  H+  H224  1  0.60367242  0.72510499  0.82936045  1
  H+  H225  1  0.82260309  0.66331048  0.73249995  1
  H+  H226  1  0.82418272  0.63916162  0.59189867  1
  H+  H227  1  0.11390938  0.68882135  0.77489999  1
  H+  H228  1  0.28129308  0.44779638  0.70556995  1
  H+  H229  1  0.63927029  0.26542225  0.51270290  1
  H+  H230  1  0.64934658  0.12874319  0.50360674  1
  H+  H231  1  0.61144409  0.64666756  0.66526254  1
  H+  H232  1  0.23030850  0.87040007  0.85144365  1
  H+  H233  1  0.40877921  0.09966946  0.50410823  1
  H+  H234  1  1.03141398  0.64525529  0.33910193  1
  H+  H235  1  0.84955756  0.65375686  0.83685918  1
  H+  H236  1  0.56135105  0.43145084  0.42274002  1
  H+  H237  1  0.37141665  0.63769645  0.82450634  1
  H+  H238  1  0.37175339  0.87600942  0.48985918  1
  H+  H239  1  0.21063807  0.35839786  0.50860366  1
  H+  H240  1  0.15207878  0.28389531  0.83569403  1
  H+  H241  1  0.37039028  0.38874358  0.15265030  1
  H+  H242  1  0.14539321  0.87160825  0.17131398  1
  H+  H243  1  0.13985572  1.02734564  0.17413435  1
  H+  H244  1  0.37497094  0.36132157  0.66322833  1
  H+  H245  1  0.83552544  0.42772969  0.40372530  1
  H+  H246  1  0.75762612  0.12009948  0.01061304  1
  H+  H247  1  0.14341304  1.02826223  0.84018979  1
  H+  H248  1  0.37995651  0.27625334  0.99445219  1
  H+  H249  1  0.40946407  0.01170282  0.49776362  1
  H+  H250  1  0.22200974  0.11934343  0.99000195  1
  H+  H251  1  0.77504152  0.23681260  0.87573878  1
  H+  H252  1  0.36490708  0.97720358  0.83282368  1
  H+  H253  1  0.63593402  0.86115979  0.16816711  1
  H+  H254  1  0.11252870  0.37766802  0.66593277  1
  H+  H255  1  0.36593412  0.87963602  0.00472777  1
  H+  H256  1  0.51558597  0.88473227  0.67044357  1
  H+  H257  1  0.11302372  0.89598370  0.33319007  1
  H+  H258  1  0.96353292  0.68134921  0.89977592  1
  H+  H259  1  0.62069372  0.85236555  0.83116738  1
  H+  H260  1  1.00854500  0.55641150  1.00038239  1
  H+  H261  1  0.38448751  0.76751770  0.66446219  1
  H+  H262  1  0.93508694  0.75947248  0.55505646  1
  H+  H263  1  0.64211280  0.10934351  0.17865577  1
  H+  H264  1  0.96239432  0.88017178  0.98108208  1
  H+  H265  1  0.23489683  0.61465546  0.83439093  1
  H+  H266  1  0.88207042  0.86645321  0.32243900  1
  H+  H267  1  0.17148506  0.78777496  0.64657007  1
  H+  H268  1  -0.03660070  0.55303123  0.85019505  1
  H+  H269  1  0.37070577  0.22785800  0.83657076  1
  H+  H270  1  0.87356181  0.02703622  0.65598121  1
  H+  H271  1  0.71603723  0.60650378  0.65988086  1
  H+  H272  1  0.11357384  0.15349820  0.99398343  1
  H+  H273  1  0.13495172  0.03258882  0.32470707  1
  H+  H274  1  0.89729657  0.78100779  0.17439615  1
  H+  H275  1  0.13288849  0.64270510  0.65782052  1
  H+  H276  1  0.48153179  0.61699525  0.50108660  1
  H+  H277  1  0.29420649  0.89000032  0.47968487  1
  H+  H278  1  0.63347085  0.60879636  0.31835438  1
  H+  H279  1  0.72018735  0.11208933  0.66113089  1
  H+  H280  1  0.02528066  0.84737571  0.49835727  1
  H+  H281  1  0.65477936  0.83659828  0.55917129  1
  H+  H282  1  0.13842111  0.27347464  0.32418882  1
  H+  H283  1  0.89296366  0.13487369  -0.03266559  1
  H+  H284  1  0.34185398  0.15852742  0.38718682  1
  H+  H285  1  0.67220149  0.05126022  0.49945258  1
  H+  H286  1  0.72867285  0.86435228  0.17356086  1
  H+  H287  1  0.22251800  0.35291195  0.65627853  1
  H+  H288  1  0.33222058  0.42484522  0.06702954  1
  H+  H289  1  0.81078536  0.91983525  0.75738713  1
  H+  H290  1  0.41690144  0.34097592  0.90005174  1
  H+  H291  1  0.83876878  0.17259448  0.11317701  1
  H+  H292  1  0.93001509  0.57964147  0.26268078  1
  H+  H293  1  0.62902018  0.22949389  0.34705091  1
  H+  H294  1  0.17418653  0.58585163  0.27209820  1
  H+  H295  1  0.90527679  0.10375122  0.90211235  1
  H+  H296  1  0.72156239  0.61515085  0.51431688  1
  H+  H297  1  0.37914403  0.36571597  0.99676976  1
  H+  H298  1  0.70021490  0.47272402  0.11216375  1
  H+  H299  1  0.07729105  0.50291235  1.00417373  1
  H+  H300  1  0.96653978  0.12880229  0.50273272  1
  H+  H301  1  0.34348212  0.42820640  0.76238343  1
  H+  H302  1  0.27849138  0.63082286  0.67041877  1
  H+  H303  1  0.60376026  0.63038906  0.82849885  1
  H+  H304  1  0.86660115  0.63458005  0.16894862  1
  H+  H305  1  0.92592107  0.84535270  0.22998260  1
  H+  H306  1  0.27980806  0.38591468  0.15977715  1
  H+  H307  1  0.09070169  0.42060045  0.76380399  1
  H+  H308  1  0.13243621  0.06187713  0.58774749  1
  H+  H309  1  0.90784022  0.08901601  0.59715308  1
  H+  H310  1  0.62362105  0.86344054  0.65244952  1
  H+  H311  1  0.86557079  0.28980064  0.90629877  1
  H+  H312  1  0.65154744  0.57701587  0.89169117  1
  H+  H313  1  0.13371533  0.29775684  -0.00878500  1
  H+  H314  1  0.90830252  0.84963640  0.91715511  1
  H+  H315  1  0.36668026  0.17602218  0.77781210  1
  H+  H316  1  0.60799246  0.97268064  0.00451196  1
  H+  H317  1  0.01937099  0.23321694  0.44574413  1
  H+  H318  1  0.41723735  0.57894651  0.90105818  1
  H+  H319  1  0.17117574  0.32703909  0.23024909  1
  H+  H320  1  0.97833127  0.52686985  0.55626160  1
  H+  H321  1  0.65675187  0.58195816  0.59975858  1
  H+  H322  1  0.07946486  0.16721712  0.09281920  1
  H+  H323  1  0.44964452  0.44957918  0.45055524  1
  H+  H324  1  0.65610798  0.83279943  0.92575990  1
  H+  H325  1  0.58235837  0.16738637  0.11167499  1
  H+  H326  1  0.34292958  0.66636227  0.76382618  1
  H+  H327  1  0.89322681  0.82913625  0.60306277  1
  H+  H328  1  0.40177204  0.32134787  0.56953777  1
  H+  H329  1  0.81508605  0.08591372  0.03882290  1
  H+  H330  1  0.67069550  0.07556540  0.27731632  1
  H+  H331  1  0.73389976  0.37185896  0.33091861  1
  H+  H332  1  0.59872029  0.17215628  0.43800560  1
  H+  H333  1  0.41415272  0.07608714  0.93624412  1
  H+  H334  1  0.91384074  0.33610013  0.28943615  1
  H+  H335  1  0.58353007  0.91669840  0.09968225  1
  H+  H336  1  0.16742189  0.09035737  0.92778984  1
  H+  H337  1  0.83660456  0.35288441  0.82400056  1
  H+  H338  1  1.01409907  0.84250480  0.59419381  1
  H+  H339  1  0.35025857  0.40667935  0.38076099  1
  H+  H340  1  0.00550168  0.54148316  0.73559246  1
  H+  H341  1  0.85154146  0.18420697  0.83063113  1
  H+  H342  1  0.82834939  0.15631229  0.72939317  1
  H+  H343  1  0.48919131  0.85850968  0.49464775  1
  H+  H344  1  0.65371447  0.82567116  0.26344966  1
  H+  H345  1  0.92322431  0.08822030  0.23468372  1
  H+  H346  1  0.82115996  0.92436850  0.38794899  1
  H+  H347  1  0.09345505  0.41892956  0.43828304  1
  H+  H348  1  0.65865504  0.32935849  0.89202108  1
  H+  H349  1  0.22266852  0.07975426  0.50305534  1
  H+  H350  1  0.59695898  0.68216460  0.08867987  1
  H+  H351  1  0.33666338  0.66912192  0.42999018  1
  H+  H352  1  0.81257388  0.38811828  0.06885308  1
  H+  H353  1  0.71231444  0.85760455  0.82936864  1
  H+  H354  1  0.78120757  0.61396071  0.40699544  1
  H+  H355  1  -0.01388578  0.37514190  0.50494234  1
  H+  H356  1  0.89579139  0.52894266  0.32584286  1
  H+  H357  1  0.57393453  0.91238484  0.76217013  1
  H+  H358  1  0.01692481  0.97532567  0.05023036  1
  H+  H359  1  0.80117880  0.62255830  0.43811204  1
  H+  H360  1  0.58366668  0.67011214  0.42736472  1
  H+  H361  1  0.41461637  0.83056128  0.93189410  1
  H+  H362  1  0.09969794  0.26167050  0.49150204  1
  H+  H363  1  0.03904722  0.80525828  0.43897244  1
  H+  H364  1  0.13143421  0.38841539  0.16205885  1
  H+  H365  1  0.17100492  0.81710428  0.93609413  1
  H+  H366  1  0.84259522  0.67896700  0.03481043  1
  H+  H367  1  0.93334357  0.58650830  0.61431519  1
  H+  H368  1  0.17673823  0.34697814  0.89402020  1
  H+  H369  1  0.97475235  0.87108891  0.32283900  1
  H+  H370  1  0.03398940  0.52445227  0.74565244  1
  H+  H371  1  0.84209698  0.99600847  0.47942663  1
  H+  H372  1  0.16133246  0.32695054  0.59602681  1
  H+  H373  1  0.56475471  0.90390022  0.39631220  1
  H+  H374  1  0.84103844  0.18217643  0.41930670  1
  H+  H375  1  0.19518898  0.84172906  0.55597329  1
  H+  H376  1  0.43634159  0.16297772  0.69469978  1
  H+  H377  1  0.82424137  0.40358327  0.72593671  1
  H+  H378  1  0.08684147  0.92651791  0.10219569  1
  H+  H379  1  0.78542522  0.16271091  0.48094797  1
  H+  H380  1  0.11135650  0.41229842  -0.00831542  1
  H+  H381  1  0.44859334  0.21085658  0.44775165  1
  H+  H382  1  0.58749700  0.42424939  0.05507852  1
  H+  H383  1  0.37174228  0.74718277  0.51117985  1
  O2-  O384  1  0.07912705  0.16429307  0.13805124  1
  O2-  O385  1  0.05253385  0.20882073  0.46296521  1
  O2-  O386  1  0.10331006  0.18603397  0.81174033  1
  O2-  O387  1  0.10916991  0.42712214  0.14828551  1
  O2-  O388  1  0.08712836  0.41885752  0.48336583  1
  O2-  O389  1  0.09181429  0.42389527  0.80870141  1
  O2-  O390  1  0.08406852  0.63662011  0.12301454  1
  O2-  O391  1  0.09598667  0.66652842  0.47830622  1
  O2-  O392  1  0.11115245  0.68613387  0.81929510  1
  O2-  O393  1  0.09203776  0.91906828  0.14640600  1
  O2-  O394  1  0.06466126  0.86024230  0.46019333  1
  O2-  O395  1  0.08757172  0.92452882  0.82151298  1
  O2-  O396  1  0.33133187  0.16520726  0.13686467  1
  O2-  O397  1  0.38907659  0.18352034  0.46150202  1
  O2-  O398  1  0.34573200  0.16767488  0.82161164  1
  O2-  O399  1  0.34016559  0.42287825  0.14556790  1
  O2-  O400  1  0.38783855  0.43371589  0.45455389  1
  O2-  O401  1  0.34799466  0.42649360  0.81064937  1
  O2-  O402  1  0.34301890  0.66851012  0.14019281  1
  O2-  O403  1  0.33098248  0.65656336  0.47543489  1
  O2-  O404  1  0.34398135  0.67016612  0.80931475  1
  O2-  O405  1  0.33441981  0.89620185  0.14025986  1
  O2-  O406  1  0.35585921  0.91544064  0.46964693  1
  O2-  O407  1  0.33101564  0.91719942  0.81698171  1
  O2-  O408  1  0.59216245  0.16528876  0.15571904  1
  O2-  O409  1  0.59725000  0.16975300  0.48449488  1
  O2-  O410  1  0.58412123  0.15604149  0.81484454  1
  O2-  O411  1  0.64117524  0.44699108  0.12672332  1
  O2-  O412  1  0.54199187  0.44243116  0.46267185  1
  O2-  O413  1  0.57792371  0.41671469  0.80526162  1
  O2-  O414  1  0.59841060  0.68272744  0.13592192  1
  O2-  O415  1  0.58606560  0.67310314  0.47254963  1
  O2-  O416  1  0.56999029  0.66069304  0.81905065  1
  O2-  O417  1  0.58298046  0.91449283  0.14526698  1
  O2-  O418  1  0.54818291  0.90124623  0.47598094  1
  O2-  O419  1  0.57234582  0.90726864  0.80791428  1
  O2-  O420  1  0.83894284  0.16974318  0.15786984  1
  O2-  O421  1  0.84506717  0.19013337  0.46433085  1
  O2-  O422  1  0.82082140  0.12668801  0.81144106  1
  O2-  O423  1  0.82195519  0.40688507  0.14529981  1
  O2-  O424  1  0.83097976  0.41540840  0.48234039  1
  O2-  O425  1  0.82400638  0.39634250  0.80530239  1
  O2-  O426  1  0.83625133  0.66712839  0.17744411  1
  O2-  O427  1  0.83969683  0.64880720  0.54877659  1
  O2-  O428  1  0.81936569  0.67498432  0.81086162  1
  O2-  O429  1  0.82520254  0.91463947  0.15619106  1
  O2-  O430  1  0.80245375  0.94680184  0.45363145  1
  O2-  O431  1  0.81039087  0.92017971  0.80339149  1
  O2-  O432  1  0.16664862  0.08910296  0.18515109  1
  O2-  O433  1  0.16190292  0.06243486  0.50362332  1
  O2-  O434  1  0.17569278  0.08971460  0.85461200  1
  O2-  O435  1  0.17304138  0.32886291  0.18472716  1
  O2-  O436  1  0.15309825  0.33418570  0.52531885  1
  O2-  O437  1  0.18317417  0.34641952  0.84940457  1
  O2-  O438  1  0.18115542  0.58320897  0.19565398  1
  O2-  O439  1  0.17135120  0.58103665  0.51647028  1
  O2-  O440  1  0.17463771  0.58896719  0.84815117  1
  O2-  O441  1  0.17624322  0.84251501  0.18944122  1
  O2-  O442  1  0.18798252  0.83093611  0.51068073  1
  O2-  O443  1  0.17111725  0.83624253  0.86890705  1
  O2-  O444  1  0.41527845  0.08945448  0.18065750  1
  O2-  O445  1  0.44117025  0.07134255  0.51611373  1
  O2-  O446  1  0.41974394  0.08083812  0.86240831  1
  O2-  O447  1  0.42388406  0.33761610  0.16442439  1
  O2-  O448  1  0.40311961  0.31709136  0.52392125  1
  O2-  O449  1  0.41995463  0.33821289  0.85497373  1
  O2-  O450  1  0.40474855  0.55363715  0.22862191  1
  O2-  O451  1  0.42035887  0.58121740  0.51431683  1
  O2-  O452  1  0.42144414  0.58026571  0.85494453  1
  O2-  O453  1  0.42161674  0.84323555  0.18619239  1
  O2-  O454  1  0.40180144  0.80875774  0.52569558  1
  O2-  O455  1  0.41091553  0.82982491  0.85502049  1
  O2-  O456  1  0.66903857  0.07531213  0.19285705  1
  O2-  O457  1  0.68929265  0.10610381  0.51890624  1
  O2-  O458  1  0.66269846  0.07246364  0.85584520  1
  O2-  O459  1  0.66561793  0.33181366  0.19452418  1
  O2-  O460  1  0.66822608  0.32730806  0.52779024  1
  O2-  O461  1  0.65734747  0.32734556  0.84670273  1
  O2-  O462  1  0.66245388  0.59147047  0.17881942  1
  O2-  O463  1  0.65940429  0.58885186  0.52103221  1
  O2-  O464  1  0.65272125  0.57977231  0.84612437  1
  O2-  O465  1  0.66403337  0.82867108  0.18352807  1
  O2-  O466  1  0.65225165  0.83538185  0.51313318  1
  O2-  O467  1  0.65194531  0.82268390  0.84657178  1
  O2-  O468  1  0.91894516  0.08796072  0.18878950  1
  O2-  O469  1  0.90698007  0.09381490  0.51953514  1
  O2-  O470  1  0.86860485  0.08431074  0.83397867  1
  O2-  O471  1  0.85086833  0.30104387  0.21933714  1
  O2-  O472  1  0.92358084  0.34514478  0.51800593  1
  O2-  O473  1  0.83589798  0.27206801  0.86574931  1
  O2-  O474  1  0.92237293  0.57566726  0.17990092  1
  O2-  O475  1  0.95806430  0.56432738  0.54014177  1
  O2-  O476  1  0.90459669  0.63617810  0.90788396  1
  O2-  O477  1  0.92885332  0.84348037  0.18425254  1
  O2-  O478  1  0.97372690  0.82217646  0.55544626  1
  O2-  O479  1  0.90486045  0.84950308  0.84379546  1
  O2-  O480  1  0.16770484  0.09315212  0.31000318  1
  O2-  O481  1  0.12236653  0.04832935  0.63133688  1
  O2-  O482  1  0.16210177  0.09288513  0.97377760  1
  O2-  O483  1  0.17359573  0.33344277  0.30793397  1
  O2-  O484  1  0.16168361  0.32279229  0.64259014  1
  O2-  O485  1  0.16441717  0.35877896  0.97790462  1
  O2-  O486  1  0.17182699  0.58586027  0.31771141  1
  O2-  O487  1  0.17575098  0.57826199  0.63944280  1
  O2-  O488  1  0.07499971  0.56807410  1.01213652  1
  O2-  O489  1  0.16930734  0.84462321  0.31693141  1
  O2-  O490  1  0.20017397  0.84813573  0.63101067  1
  O2-  O491  1  0.16941116  0.80005645  0.98170061  1
  O2-  O492  1  0.33810332  0.01806022  0.29082022  1
  O2-  O493  1  0.47005031  0.09350486  0.67294638  1
  O2-  O494  1  0.40902356  0.07585417  0.98219013  1
  O2-  O495  1  0.42704133  0.31741225  0.29392043  1
  O2-  O496  1  0.40475731  0.33274606  0.64562144  1
  O2-  O497  1  0.41173439  0.33763567  0.98117162  1
  O2-  O498  1  0.45285150  0.53110306  0.27163616  1
  O2-  O499  1  0.41621566  0.58008007  0.64270229  1
  O2-  O500  1  0.41770031  0.58385850  0.97498744  1
  O2-  O501  1  0.41729818  0.85923517  0.30337983  1
  O2-  O502  1  0.41373108  0.82703550  0.64686206  1
  O2-  O503  1  0.41393229  0.83144259  0.97762990  1
  O2-  O504  1  0.67284938  0.07615062  0.32237831  1
  O2-  O505  1  0.66090342  0.08054959  0.64339332  1
  O2-  O506  1  0.66243568  0.08177358  0.97510022  1
  O2-  O507  1  0.67400528  0.33797452  0.31501032  1
  O2-  O508  1  0.66640954  0.34206025  0.63727297  1
  O2-  O509  1  0.65841045  0.33274672  0.97255946  1
  O2-  O510  1  0.65869595  0.57575743  0.29875665  1
  O2-  O511  1  0.65573737  0.57723179  0.64508557  1
  O2-  O512  1  0.65510771  0.58522623  0.96893219  1
  O2-  O513  1  0.65406026  0.82312247  0.30863098  1
  O2-  O514  1  0.65638669  0.83769480  0.63397668  1
  O2-  O515  1  0.66095661  0.83695857  0.97108536  1
  O2-  O516  1  0.92067913  0.08403291  0.31005251  1
  O2-  O517  1  0.90716048  0.08875158  0.64268661  1
  O2-  O518  1  0.92170966  0.10746421  0.94725870  1
  O2-  O519  1  0.92610626  0.34163955  0.33363721  1
  O2-  O520  1  0.91180590  0.33232265  0.64312554  1
  O2-  O521  1  0.90079596  0.31047204  0.97922175  1
  O2-  O522  1  0.92811332  0.58768686  0.30730392  1
  O2-  O523  1  0.92287553  0.58666042  0.65851456  1
  O2-  O524  1  0.93075587  0.54451458  0.99558368  1
  O2-  O525  1  0.91523976  0.83902416  0.30593951  1
  O2-  O526  1  0.84599433  0.81190978  0.63257897  1
  O2-  O527  1  0.90409891  0.84516052  0.96332089  1
  O2-  O528  1  0.08070704  0.18073547  0.01006336  1
  O2-  O529  1  0.08416835  0.17184117  0.35212199  1
  O2-  O530  1  0.07506201  0.15800418  0.68579593  1
  O2-  O531  1  0.06726200  0.42992249  0.00150845  1
  O2-  O532  1  0.09938161  0.42145338  0.35824910  1
  O2-  O533  1  0.08694904  0.41358115  0.67966510  1
  O2-  O534  1  0.13492958  0.63176215  -0.03137907  1
  O2-  O535  1  0.09196348  0.67795816  0.35397352  1
  O2-  O536  1  0.11261933  0.68303746  0.67080427  1
  O2-  O537  1  0.04957520  0.95220707  0.03025572  1
  O2-  O538  1  0.08065024  0.92523907  0.34663051  1
  O2-  O539  1  0.06851193  0.88146071  0.64708336  1
  O2-  O540  1  0.32684071  0.16679354  0.01603959  1
  O2-  O541  1  0.33180451  0.15019294  0.34268727  1
  O2-  O542  1  0.41975477  0.20243195  0.71536717  1
  O2-  O543  1  0.32835699  0.42122372  0.02147287  1
  O2-  O544  1  0.34062103  0.39564730  0.33620140  1
  O2-  O545  1  0.32560329  0.43290890  0.69665430  1
  O2-  O546  1  0.33880196  0.65866116  0.01805318  1
  O2-  O547  1  0.33854556  0.68836212  0.35850525  1
  O2-  O548  1  0.33867589  0.66323234  0.68618499  1
  O2-  O549  1  0.33335895  0.90723089  0.02307879  1
  O2-  O550  1  0.33907830  0.95683282  0.33426689  1
  O2-  O551  1  0.35452252  0.92684550  0.69259895  1
  O2-  O552  1  0.54586190  0.19068781  0.03822535  1
  O2-  O553  1  0.60163538  0.17209954  0.36626146  1
  O2-  O554  1  0.55534423  0.12917104  0.69632752  1
  O2-  O555  1  0.57903985  0.42071200  0.01028229  1
  O2-  O556  1  0.58118155  0.41266761  0.34825824  1
  O2-  O557  1  0.57719392  0.41178753  0.67955262  1
  O2-  O558  1  0.58984729  0.67883365  0.01975216  1
  O2-  O559  1  0.57968547  0.65758393  0.34550817  1
  O2-  O560  1  0.58358785  0.68071118  0.67470813  1
  O2-  O561  1  0.57995581  0.91380005  0.02153098  1
  O2-  O562  1  0.57358104  0.90976031  0.35153234  1
  O2-  O563  1  0.57620302  0.91565334  0.68630126  1
  O2-  O564  1  0.81529198  0.13940803  0.02991417  1
  O2-  O565  1  0.84001562  0.16716766  0.34125906  1
  O2-  O566  1  0.82633332  0.16545344  0.68520798  1
  O2-  O567  1  0.81471151  0.38500993  0.02333946  1
  O2-  O568  1  0.83996515  0.42737949  0.35841675  1
  O2-  O569  1  0.82676319  0.41198283  0.68105783  1
  O2-  O570  1  0.82797389  0.68421517  -0.00701743  1
  O2-  O571  1  0.83321904  0.66740804  0.29793031  1
  O2-  O572  1  0.82370718  0.65672661  0.68740084  1
  O2-  O573  1  0.82553338  0.94112801  -0.00654439  1
  O2-  O574  1  0.82753396  0.91472903  0.34300969  1
  O2-  O575  1  0.81424699  0.92583516  0.68273788  1
