# generated using pymatgen
data_H2O
_symmetry_space_group_name_H-M   'P 1'
_cell_length_a   17.99482411
_cell_length_b   17.99561352
_cell_length_c   22.00638804
_cell_angle_alpha   90.01759439
_cell_angle_beta   90.00574751
_cell_angle_gamma   119.98096046
_symmetry_Int_Tables_number   1
_chemical_formula_structural   H2O
_chemical_formula_sum   'H384 O192'
_cell_volume   6172.72476062
_cell_formula_units_Z   192
loop_
 _symmetry_equiv_pos_site_id
 _symmetry_equiv_pos_as_xyz
  1  'x, y, z'
loop_
 _atom_type_symbol
 _atom_type_oxidation_number
  H+  1.0
  O2-  -2.0
loop_
 _atom_site_type_symbol
 _atom_site_label
 _atom_site_symmetry_multiplicity
 _atom_site_fract_x
 _atom_site_fract_y
 _atom_site_fract_z
 _atom_site_occupancy
  H+  H0  1  0.58965971  0.12188294  0.01202520  1
  H+  H1  1  0.78891154  0.89498179  0.15465565  1
  H+  H2  1  0.11152244  0.47459642  0.15983229  1
  H+  H3  1  0.70934613  0.82329969  0.55458497  1
  H+  H4  1  0.62110685  0.72445364  0.49607585  1
  H+  H5  1  0.14243218  0.02771018  0.33681124  1
  H+  H6  1  0.37003854  0.91158854  0.34093537  1
  H+  H7  1  0.32829809  0.40792795  0.40854582  1
  H+  H8  1  0.15429962  0.04390951  0.50303058  1
  H+  H9  1  0.50602179  0.13573733  0.82762607  1
  H+  H10  1  0.37836498  0.91072198  0.49533816  1
  H+  H11  1  0.98233797  0.86623474  0.99949565  1
  H+  H12  1  0.59354699  0.17358774  0.43430773  1
  H+  H13  1  0.10971765  0.63752307  0.15683882  1
  H+  H14  1  0.34051558  0.60091748  0.33725400  1
  H+  H15  1  0.61439731  0.38836871  0.66755838  1
  H+  H16  1  0.88127316  0.90230190  0.15586310  1
  H+  H17  1  0.35907450  0.38330564  0.50368720  1
  H+  H18  1  0.90107641  1.03264287  0.32702178  1
  H+  H19  1  0.22761289  0.86623026  0.83786323  1
  H+  H20  1  0.87416310  0.70985815  0.82749217  1
  H+  H21  1  0.80797880  0.91371339  0.78436027  1
  H+  H22  1  0.49947712  0.37095558  0.16533955  1
  H+  H23  1  0.33993844  0.65290505  0.88026981  1
  H+  H24  1  0.56422813  0.40067074  0.07293032  1
  H+  H25  1  0.87883875  0.27376245  0.83621846  1
  H+  H26  1  0.44999922  0.11505632  0.56513396  1
  H+  H27  1  1.01011433  0.62162613  0.50318593  1
  H+  H28  1  0.61076694  0.71268842  0.82134601  1
  H+  H29  1  0.40040144  0.81255072  0.31381167  1
  H+  H30  1  1.01333324  0.63067751  0.83462430  1
  H+  H31  1  0.44991095  0.84976634  1.00098467  1
  H+  H32  1  0.37504201  0.99870593  0.49919901  1
  H+  H33  1  0.27989129  0.37417257  0.68078844  1
  H+  H34  1  0.41104245  0.49090505  0.84328227  1
  H+  H35  1  0.64271443  0.02367811  0.65963022  1
  H+  H36  1  0.02339254  0.37882695  0.01053612  1
  H+  H37  1  0.89619835  0.61150894  0.66227910  1
  H+  H38  1  0.03183026  0.38002727  0.49064411  1
  H+  H39  1  0.89086942  0.27060012  0.33332451  1
  H+  H40  1  0.64903166  0.60918047  0.83066431  1
  H+  H41  1  0.49083688  0.89749546  0.32182415  1
  H+  H42  1  0.25022968  0.87359553  0.00947833  1
  H+  H43  1  0.81670446  0.40769364  0.22102970  1
  H+  H44  1  0.02621190  0.14418702  0.66784181  1
  H+  H45  1  0.57641056  0.88934825  0.07605577  1
  H+  H46  1  0.89601533  0.12483904  0.66165017  1
  H+  H47  1  0.46973999  0.10769120  0.17830315  1
  H+  H48  1  0.03299151  0.89602830  0.33895045  1
  H+  H49  1  0.57340677  0.89574903  -0.05020399  1
  H+  H50  1  0.20206885  0.60458385  0.85367188  1
  H+  H51  1  0.35943248  0.97704115  0.16327095  1
  H+  H52  1  0.04475879  0.90495777  0.50047562  1
  H+  H53  1  0.13623984  0.27810120  0.17949175  1
  H+  H54  1  0.79445120  0.66471891  0.18689065  1
  H+  H55  1  0.11085383  0.14494326  0.15964881  1
  H+  H56  1  0.90868276  0.49806822  0.68370126  1
  H+  H57  1  0.37273809  0.21207155  0.65960593  1
  H+  H58  1  0.77879337  0.62796205  0.82256728  1
  H+  H59  1  0.36884575  0.47468565  0.00981639  1
  H+  H60  1  0.36940435  0.34915250  0.17524020  1
  H+  H61  1  0.92252346  0.33091494  0.94320331  1
  H+  H62  1  0.11117557  0.85778984  0.64791616  1
  H+  H63  1  0.38942349  0.35073317  0.65200306  1
  H+  H64  1  0.52617884  0.14692478  0.34083944  1
  H+  H65  1  0.34000008  0.93539957  0.40363135  1
  H+  H66  1  0.91913099  0.08822725  0.23539418  1
  H+  H67  1  0.15215496  0.61458551  0.49616900  1
  H+  H68  1  -0.03055474  0.12414815  0.82897470  1
  H+  H69  1  0.61680880  0.35877008  0.17322974  1
  H+  H70  1  0.10199759  0.47041512  0.83103446  1
  H+  H71  1  0.48675962  0.54542919  0.37747892  1
  H+  H72  1  0.12473720  0.51666875  1.00534270  1
  H+  H73  1  0.45686242  0.10114231  -0.00985643  1
  H+  H74  1  0.11758001  0.89166199  0.00535258  1
  H+  H75  1  0.86975185  0.85284341  0.78057698  1
  H+  H76  1  0.12099865  0.88322412  0.16517677  1
  H+  H77  1  0.29826133  0.64477825  0.65104910  1
  H+  H78  1  0.61269605  0.89227522  0.82050848  1
  H+  H79  1  0.26042852  0.13806279  0.83339423  1
  H+  H80  1  0.83837147  0.11537641  1.01337219  1
  H+  H81  1  0.97572848  0.36640567  0.83816707  1
  H+  H82  1  0.53348762  0.61694969  0.82249455  1
  H+  H83  1  0.60821653  0.62389316  0.50428337  1
  H+  H84  1  0.62039122  0.22671663  0.49566671  1
  H+  H85  1  0.96939738  0.86591609  0.61932425  1
  H+  H86  1  0.35961022  0.22038969  0.16260071  1
  H+  H87  1  0.66565563  0.33348795  0.26449737  1
  H+  H88  1  0.48133211  0.35847064  0.64870083  1
  H+  H89  1  0.13121917  0.11697047  0.99927266  1
  H+  H90  1  0.64800833  0.11763767  0.50944358  1
  H+  H91  1  0.96021401  0.73279368  0.29951706  1
  H+  H92  1  0.88273811  0.90875035  0.49294883  1
  H+  H93  1  0.77379764  0.35006873  0.00930209  1
  H+  H94  1  0.97700809  0.04608236  0.94650727  1
  H+  H95  1  0.64907217  0.03944338  0.19811102  1
  H+  H96  1  0.85013084  0.65362142  0.33662816  1
  H+  H97  1  0.53073183  0.90203893  0.81960703  1
  H+  H98  1  0.12082461  0.73567049  0.34009744  1
  H+  H99  1  0.21951691  0.35449341  0.51866598  1
  H+  H100  1  0.93943331  0.64354885  0.52102686  1
  H+  H101  1  0.39330626  0.59252569  0.63666104  1
  H+  H102  1  0.84972658  0.40973306  0.49500535  1
  H+  H103  1  0.18408203  0.59698129  0.59759420  1
  H+  H104  1  0.13030344  0.90058002  0.49185839  1
  H+  H105  1  0.87624351  0.50372576  0.48067552  1
  H+  H106  1  0.12154843  0.39127829  0.33961013  1
  H+  H107  1  0.61784427  0.61585653  0.16502529  1
  H+  H108  1  0.22768967  0.85920348  0.17933284  1
  H+  H109  1  0.15585542  0.08246631  0.10667772  1
  H+  H110  1  0.34568068  0.49239038  0.32455385  1
  H+  H111  1  0.26577802  0.13931846  1.00664427  1
  H+  H112  1  -0.01886553  0.36103045  0.17677703  1
  H+  H113  1  0.12335025  0.02087041  0.83689300  1
  H+  H114  1  0.63204447  0.76605603  0.35339182  1
  H+  H115  1  0.66420133  0.56896540  0.89056086  1
  H+  H116  1  0.48508994  0.12898586  0.50156303  1
  H+  H117  1  0.42493336  0.57283489  0.94043353  1
  H+  H118  1  0.65883525  0.77396932  0.16410479  1
  H+  H119  1  0.68686553  0.58341896  0.15647993  1
  H+  H120  1  0.67110390  0.91063505  0.30878349  1
  H+  H121  1  0.87488573  0.13959128  0.34208580  1
  H+  H122  1  0.59812145  0.90892760  0.57810274  1
  H+  H123  1  0.63347277  0.24628286  0.98843297  1
  H+  H124  1  0.37991570  0.55228416  0.26428581  1
  H+  H125  1  0.10800618  0.64113082  0.33386239  1
  H+  H126  1  0.73772122  0.61850227  0.33016595  1
  H+  H127  1  0.39786316  0.56900613  0.83483354  1
  H+  H128  1  0.63906775  0.51818137  0.65624504  1
  H+  H129  1  0.38445327  0.85276193  0.65797686  1
  H+  H130  1  0.10788061  0.22631577  0.82430721  1
  H+  H131  1  0.22444975  0.61675250  0.32395599  1
  H+  H132  1  0.80328951  0.12888832  0.07488933  1
  H+  H133  1  0.13005690  0.25912881  0.66598081  1
  H+  H134  1  0.39354392  0.12893789  0.33408280  1
  H+  H135  1  0.64368403  1.03623759  0.82856822  1
  H+  H136  1  0.12882129  0.35797853  0.66958636  1
  H+  H137  1  0.02707026  0.37211457  0.67109495  1
  H+  H138  1  0.11674577  0.14319230  0.34838167  1
  H+  H139  1  0.64891986  0.81498287  0.90303783  1
  H+  H140  1  0.86916303  0.97610941  0.00069443  1
  H+  H141  1  0.22762580  0.61370082  0.17341826  1
  H+  H142  1  0.89189969  0.03020248  0.17396096  1
  H+  H143  1  0.64740157  0.02820641  0.52056635  1
  H+  H144  1  0.60149018  0.22274336  0.16261667  1
  H+  H145  1  0.36814170  0.89246658  0.15831113  1
  H+  H146  1  0.12288962  0.89737222  0.81513624  1
  H+  H147  1  0.61077385  0.13951568  0.16793056  1
  H+  H148  1  0.86580085  0.48499758  0.17770391  1
  H+  H149  1  0.89139771  0.34655970  1.00623310  1
  H+  H150  1  0.59027666  0.76453581  0.34711667  1
  H+  H151  1  0.76630808  0.37140564  0.33236372  1
  H+  H152  1  0.11159281  0.72679581  0.16271262  1
  H+  H153  1  0.90553722  0.25054453  0.51075775  1
  H+  H154  1  0.83507059  0.64705840  0.48349036  1
  H+  H155  1  0.60891141  0.58480144  0.98522138  1
  H+  H156  1  0.59860872  0.97750169  -0.01246769  1
  H+  H157  1  0.13769858  0.77648320  0.84261851  1
  H+  H158  1  0.62687156  0.36747124  0.49950601  1
  H+  H159  1  0.50776087  0.37280153  0.48609573  1
  H+  H160  1  0.74134114  0.13103848  0.33963196  1
  H+  H161  1  0.61285992  0.38473259  0.33631311  1
  H+  H162  1  0.23044146  0.87260879  0.33281417  1
  H+  H163  1  0.37489084  0.11360319  0.83868009  1
  H+  H164  1  0.60063414  0.21683118  0.61992440  1
  H+  H165  1  0.39306321  0.78837543  0.50238549  1
  H+  H166  1  0.34215232  0.86775275  1.01552868  1
  H+  H167  1  0.89880037  0.78839428  0.17033679  1
  H+  H168  1  0.59221913  0.45006058  0.00797099  1
  H+  H169  1  0.13057351  1.02583833  -0.00160385  1
  H+  H170  1  0.25524382  0.62528882  0.02176228  1
  H+  H171  1  0.86003500  0.72706673  0.01052090  1
  H+  H172  1  0.79192519  0.12321005  0.50434349  1
  H+  H173  1  0.10605348  0.97742834  0.66055315  1
  H+  H174  1  0.27837142  0.14631395  0.35590243  1
  H+  H175  1  0.02907755  0.14993759  0.00820901  1
  H+  H176  1  0.13830054  0.27606096  0.33232365  1
  H+  H177  1  0.62782152  0.50991845  0.31837068  1
  H+  H178  1  0.37671338  0.26450890  0.00033961  1
  H+  H179  1  0.87941911  0.61879587  0.99063865  1
  H+  H180  1  0.65849273  0.57230438  0.56786298  1
  H+  H181  1  0.81732332  0.38277216  0.07356045  1
  H+  H182  1  0.40564148  0.61063381  0.17766993  1
  H+  H183  1  0.58394480  0.46450462  0.16393534  1
  H+  H184  1  0.87937738  0.59713572  0.83753794  1
  H+  H185  1  0.69227765  0.18322239  0.96014223  1
  H+  H186  1  0.99031800  0.87368808  0.16932944  1
  H+  H187  1  0.09982601  0.13343809  0.82485191  1
  H+  H188  1  0.70784841  0.36301513  0.16880408  1
  H+  H189  1  0.49022287  0.87666056  0.16099203  1
  H+  H190  1  0.17242925  0.33732742  0.27307044  1
  H+  H191  1  0.73684267  0.12513585  0.18136630  1
  H+  H192  1  0.64984957  0.85091019  0.51814141  1
  H+  H193  1  0.59555191  0.13860270  0.81549785  1
  H+  H194  1  0.09557812  0.22161161  0.49927496  1
  H+  H195  1  0.71034398  0.35474802  0.83587464  1
  H+  H196  1  0.32931014  0.16481630  0.06494918  1
  H+  H197  1  0.13534875  0.36162960  0.51361759  1
  H+  H198  1  0.89176192  0.87849742  0.80875064  1
  H+  H199  1  0.37430766  0.10918558  -0.01442889  1
  H+  H200  1  0.33174761  0.65221676  0.80968341  1
  H+  H201  1  0.77166808  0.15312751  0.82349706  1
  H+  H202  1  0.59561882  0.37833249  0.82309576  1
  H+  H203  1  0.34279994  0.66606860  0.11681140  1
  H+  H204  1  0.13514851  0.51618715  0.50194084  1
  H+  H205  1  0.89284384  0.32515402  0.48975175  1
  H+  H206  1  0.03056159  0.87992413  0.82245168  1
  H+  H207  1  0.47877129  0.35609757  0.00771719  1
  H+  H208  1  0.13544091  0.73368415  0.48713752  1
  H+  H209  1  0.48244711  0.61040800  0.99946708  1
  H+  H210  1  0.36342402  0.90096456  0.82454559  1
  H+  H211  1  0.03910392  0.63761420  0.68053105  1
  H+  H212  1  0.12314317  0.97424528  0.15692008  1
  H+  H213  1  0.10542615  0.63813000  0.00821538  1
  H+  H214  1  0.67234302  0.77007939  0.65734687  1
  H+  H215  1  0.61816977  0.14977080  0.34247500  1
  H+  H216  1  0.86687268  0.64439486  0.16614841  1
  H+  H217  1  0.87086782  1.04536533  0.82604268  1
  H+  H218  1  0.98683369  0.76806227  0.88513054  1
  H+  H219  1  0.89340538  0.86610967  0.99274511  1
  H+  H220  1  0.74301183  0.86000977  -0.00830092  1
  H+  H221  1  0.72222954  0.12005830  0.98959148  1
  H+  H222  1  0.42033144  0.84222907  0.56422603  1
  H+  H223  1  0.23286700  0.14060707  0.50962833  1
  H+  H224  1  0.38379759  0.36170586  1.00183589  1
  H+  H225  1  0.74595097  0.63997998  0.49007275  1
  H+  H226  1  0.92727373  0.61312338  0.23231795  1
  H+  H227  1  0.13333345  0.77327884  -0.00869998  1
  H+  H228  1  0.38890791  0.79192561  0.84598658  1
  H+  H229  1  0.58101553  0.59507421  0.35144265  1
  H+  H230  1  0.60952745  0.47248830  0.81897565  1
  H+  H231  1  0.72561626  0.36087419  0.65108475  1
  H+  H232  1  0.27466436  0.87443391  0.66678928  1
  H+  H233  1  0.26916653  0.37441823  0.34891002  1
  H+  H234  1  0.46252690  0.37662266  0.82133091  1
  H+  H235  1  0.38905734  0.27474171  0.33200791  1
  H+  H236  1  0.86349601  0.22544637  0.16149946  1
  H+  H237  1  0.61990209  0.51418224  0.50560262  1
  H+  H238  1  0.36120733  0.13111158  0.16135520  1
  H+  H239  1  0.38855750  0.36253136  0.33224252  1
  H+  H240  1  0.13836597  0.36760513  0.17881005  1
  H+  H241  1  0.85387379  0.92706629  0.39200568  1
  H+  H242  1  0.47693914  0.58657721  0.64312232  1
  H+  H243  1  0.55506325  0.76936476  0.87844133  1
  H+  H244  1  0.09372913  0.13380094  0.49570924  1
  H+  H245  1  0.14139781  0.11429460  0.66005450  1
  H+  H246  1  0.48364502  0.59090040  0.18764038  1
  H+  H247  1  0.25574519  0.59511822  0.49425493  1
  H+  H248  1  -0.02171710  0.62047920  0.17118615  1
  H+  H249  1  0.38499854  0.69905916  0.36297071  1
  H+  H250  1  0.62544501  1.00405954  0.34104695  1
  H+  H251  1  0.63549981  0.96867385  0.11380181  1
  H+  H252  1  0.16666433  0.62904426  0.66090885  1
  H+  H253  1  0.40324996  0.07835928  0.89588972  1
  H+  H254  1  0.52113687  0.38180086  0.33444326  1
  H+  H255  1  0.62660055  0.71434401  0.00389474  1
  H+  H256  1  0.86686668  0.23152403  0.67046901  1
  H+  H257  1  0.74208284  0.11958121  0.66229494  1
  H+  H258  1  0.90535391  0.86797937  0.32422248  1
  H+  H259  1  0.78409834  0.62479563  0.66654896  1
  H+  H260  1  0.35435016  0.98396014  0.81971775  1
  H+  H261  1  0.24057430  0.87582851  0.50285665  1
  H+  H262  1  0.78923844  0.89117461  0.48070676  1
  H+  H263  1  0.98552992  0.12508850  0.32749219  1
  H+  H264  1  0.86487060  0.36647927  0.33451985  1
  H+  H265  1  0.14246868  0.28122842  -0.00693320  1
  H+  H266  1  0.86191400  0.13580315  0.16640243  1
  H+  H267  1  0.88026952  0.37312076  0.84000412  1
  H+  H268  1  0.64695381  0.61070383  0.65483918  1
  H+  H269  1  0.38560804  0.50618731  0.55449404  1
  H+  H270  1  0.38704336  0.18671332  0.51043588  1
  H+  H271  1  0.34437129  0.19044305  0.41151149  1
  H+  H272  1  0.11791588  0.38965488  0.00830451  1
  H+  H273  1  0.38189413  0.72912572  0.17257504  1
  H+  H274  1  0.89678491  0.79526273  0.51332687  1
  H+  H275  1  0.72152307  0.38321567  0.49391560  1
  H+  H276  1  0.38824130  0.03815929  0.33335262  1
  H+  H277  1  0.52875358  0.90388200  0.66452050  1
  H+  H278  1  0.11307881  0.60189188  0.85004950  1
  H+  H279  1  0.91983435  0.10196711  0.59849021  1
  H+  H280  1  0.26639608  0.38085119  0.16122633  1
  H+  H281  1  0.22716750  0.35581337  0.83883346  1
  H+  H282  1  -0.01222513  0.66764502  0.32620017  1
  H+  H283  1  0.79758760  0.90421119  0.63125484  1
  H+  H284  1  0.86403912  0.15616262  0.82713710  1
  H+  H285  1  0.80216296  0.91417199  0.32873987  1
  H+  H286  1  0.63832209  0.27550289  0.32589786  1
  H+  H287  1  0.61930162  0.26768568  0.83254304  1
  H+  H288  1  0.65323313  0.85912758  0.15671292  1
  H+  H289  1  0.12383700  0.72632336  0.68534237  1
  H+  H290  1  0.67940961  0.09454173  0.59914338  1
  H+  H291  1  0.36281227  0.75871629  1.00635666  1
  H+  H292  1  0.28618659  0.12460703  0.66601130  1
  H+  H293  1  0.32407776  0.61943233  0.43235374  1
  H+  H294  1  0.17021723  0.33453961  0.89838421  1
  H+  H295  1  0.83473160  0.41506441  0.39185975  1
  H+  H296  1  0.67098531  0.29876086  0.92626099  1
  H+  H297  1  0.44036980  0.86375897  0.22414007  1
  H+  H298  1  0.16874743  0.08873386  0.59869787  1
  H+  H299  1  0.34465803  0.62608241  0.01946407  1
  H+  H300  1  0.41619853  0.11235816  0.69202388  1
  H+  H301  1  0.08246494  0.17026141  0.73056245  1
  H+  H302  1  0.84047262  0.65476460  0.72704254  1
  H+  H303  1  0.16903939  0.83204462  0.23940105  1
  H+  H304  1  0.91739691  0.32808704  0.27049864  1
  H+  H305  1  0.40216889  0.32352776  0.23640877  1
  H+  H306  1  0.59904286  0.66227820  0.06674076  1
  H+  H307  1  0.59162449  0.92772310  0.72151218  1
  H+  H308  1  0.08155716  0.17971415  0.07133904  1
  H+  H309  1  0.83650432  0.17856813  0.73326405  1
  H+  H310  1  0.56276870  0.15086466  0.07278024  1
  H+  H311  1  0.65104277  0.57443092  0.25958354  1
  H+  H312  1  0.54765659  0.67693219  0.13883971  1
  H+  H313  1  0.40709561  0.30652502  0.56119818  1
  H+  H314  1  0.58433470  0.65272312  0.72680023  1
  H+  H315  1  0.84541704  0.42036718  0.77689717  1
  H+  H316  1  0.06778519  0.91317507  0.71647395  1
  H+  H317  1  0.93752059  0.84781339  0.26309105  1
  H+  H318  1  0.14065780  0.87031465  0.33184482  1
  H+  H319  1  0.67384821  0.35002623  0.58977584  1
  H+  H320  1  0.90776853  0.37148081  0.65741340  1
  H+  H321  1  0.17085012  0.83758582  0.93223002  1
  H+  H322  1  0.79823386  0.66342950  0.39822805  1
  H+  H323  1  0.93648933  0.58236029  0.60606581  1
  H+  H324  1  0.33044675  0.41012505  0.06708962  1
  H+  H325  1  0.57158501  0.41314453  0.42893777  1
  H+  H326  1  0.84377117  0.92433436  0.06454096  1
  H+  H327  1  0.41571549  0.85144286  0.90234387  1
  H+  H328  1  0.66970109  0.09930208  0.88664338  1
  H+  H329  1  0.02064285  0.14348301  0.16558783  1
  H+  H330  1  0.92331001  0.33062755  0.59576676  1
  H+  H331  1  0.65310886  0.85344044  0.99906630  1
  H+  H332  1  0.82553970  0.83694367  0.61416203  1
  H+  H333  1  0.09007231  0.92582496  0.40129054  1
  H+  H334  1  0.33310319  0.56214550  0.49060665  1
  H+  H335  1  0.34625310  0.22771599  0.82767574  1
  H+  H336  1  0.57804897  0.41335821  0.72643267  1
  H+  H337  1  0.10721747  0.38366985  0.83030859  1
  H+  H338  1  0.23116583  0.11595296  0.15303323  1
  H+  H339  1  0.08176518  0.40243257  0.73388693  1
  H+  H340  1  0.23246419  0.36787067  0.99054653  1
  H+  H341  1  0.16168935  0.32772433  0.60475791  1
  H+  H342  1  0.53719780  0.88451792  0.52176826  1
  H+  H343  1  0.85034159  0.16450578  0.40560537  1
  H+  H344  1  0.08031481  0.66257306  0.77816360  1
  H+  H345  1  0.06849075  0.76799417  0.61761566  1
  H+  H346  1  0.16335929  0.58426910  0.22831272  1
  H+  H347  1  0.82707152  0.66729352  0.06774761  1
  H+  H348  1  0.35990942  0.39113933  0.76888815  1
  H+  H349  1  0.17767985  0.09376159  0.28173263  1
  H+  H350  1  0.08996025  0.91473701  0.06843927  1
  H+  H351  1  0.77410828  0.96637266  0.75004779  1
  H+  H352  1  0.55015088  0.50789980  0.94264907  1
  H+  H353  1  0.07806582  0.67447542  0.06428886  1
  H+  H354  1  0.31809591  0.88946216  0.73145835  1
  H+  H355  1  0.96020284  0.46871697  0.72464336  1
  H+  H356  1  0.09841534  0.67246369  0.42826857  1
  H+  H357  1  0.86291095  0.47424373  0.83894136  1
  H+  H358  1  -0.02953408  0.62308528  -0.01099819  1
  H+  H359  1  0.37250793  0.66965911  0.69987024  1
  H+  H360  1  0.90866689  0.57850263  0.90373103  1
  H+  H361  1  0.31513519  0.90697068  0.07653656  1
  H+  H362  1  0.56732255  0.64297545  0.44212582  1
  H+  H363  1  0.15068612  0.57453322  0.94588715  1
  H+  H364  1  0.52708067  0.12968309  0.64452289  1
  H+  H365  1  0.16990370  0.83590310  0.55663556  1
  H+  H366  1  0.94413478  0.12149026  0.49613035  1
  H+  H367  1  0.36868306  0.45998974  0.67296785  1
  H+  H368  1  0.70318710  0.87962859  0.25188185  1
  H+  H369  1  0.41061899  0.08343860  0.23753630  1
  H+  H370  1  0.92403513  0.08474339  0.92069459  1
  H+  H371  1  0.14792185  0.07699825  0.89876444  1
  H+  H372  1  0.59402222  0.92985649  0.39066933  1
  H+  H373  1  0.68535613  0.11005757  0.27855316  1
  H+  H374  1  0.09341347  0.41686704  0.43220484  1
  H+  H375  1  0.40852225  0.77981984  0.64490213  1
  H+  H376  1  0.07877496  0.17146660  0.40426651  1
  H+  H377  1  0.08174651  0.41046033  0.10305676  1
  H+  H378  1  0.13861991  0.52773858  0.32415698  1
  H+  H379  1  0.89364216  0.36366122  0.18057718  1
  H+  H380  1  0.93708517  0.81220054  0.90956438  1
  H+  H381  1  0.35993529  0.46440140  0.15965703  1
  H+  H382  1  0.49195115  0.12379261  0.73476537  1
  H+  H383  1  0.03253654  0.39141989  0.34049978  1
  O2-  O384  1  0.08103137  0.17709628  0.14914557  1
  O2-  O385  1  0.06286814  0.16339457  0.48109127  1
  O2-  O386  1  0.07375903  0.16718323  0.80730219  1
  O2-  O387  1  0.08145523  0.41248913  0.14894414  1
  O2-  O388  1  0.09284449  0.41653441  0.47800545  1
  O2-  O389  1  0.07343160  0.40998313  0.81454641  1
  O2-  O390  1  0.07856078  0.66806032  0.14452981  1
  O2-  O391  1  0.10549493  0.67190999  0.47377473  1
  O2-  O392  1  0.07610192  0.66328987  0.82341579  1
  O2-  O393  1  0.09160250  0.91231299  0.14582913  1
  O2-  O394  1  0.10140619  0.93369098  0.48018315  1
  O2-  O395  1  0.08519645  0.91993763  0.80161016  1
  O2-  O396  1  0.33261333  0.16179487  0.14351217  1
  O2-  O397  1  0.35402003  0.21449384  0.49482884  1
  O2-  O398  1  0.32185442  0.16550253  0.82306716  1
  O2-  O399  1  0.32589078  0.40484995  0.14372751  1
  O2-  O400  1  0.32412054  0.41066125  0.49239033  1
  O2-  O401  1  0.36129680  0.39548099  0.81459266  1
  O2-  O402  1  0.35194424  0.66740076  0.16143524  1
  O2-  O403  1  0.31812395  0.60787304  0.47891533  1
  O2-  O404  1  0.31930213  0.67356586  0.84683498  1
  O2-  O405  1  0.33035437  0.91645521  0.14693259  1
  O2-  O406  1  0.34594489  0.93909596  0.48180836  1
  O2-  O407  1  0.32605816  0.92121909  0.80721682  1
  O2-  O408  1  0.57350568  0.16080826  0.15134502  1
  O2-  O409  1  0.59434758  0.16772430  0.47927626  1
  O2-  O410  1  0.56365896  0.16876121  0.80678273  1
  O2-  O411  1  0.56061081  0.40382150  0.15022946  1
  O2-  O412  1  0.56868531  0.41232760  0.47431347  1
  O2-  O413  1  0.57046583  0.41208852  0.80523935  1
  O2-  O414  1  0.60179976  0.67696990  0.13804907  1
  O2-  O415  1  0.58132229  0.65928038  0.48735193  1
  O2-  O416  1  0.59118382  0.65481706  0.80422083  1
  O2-  O417  1  0.59256997  0.90807229  0.11832684  1
  O2-  O418  1  0.59912482  0.91161765  0.53355630  1
  O2-  O419  1  0.59003672  0.92785896  0.80339231  1
  O2-  O420  1  0.82874021  0.16345511  0.15059809  1
  O2-  O421  1  0.85261829  0.15151141  0.48896245  1
  O2-  O422  1  0.83477933  0.18792088  0.81127676  1
  O2-  O423  1  0.83188726  0.42038494  0.17827219  1
  O2-  O424  1  0.83801483  0.44350006  0.46584084  1
  O2-  O425  1  0.83530533  0.41212914  0.82155056  1
  O2-  O426  1  0.83695990  0.67735322  0.15516181  1
  O2-  O427  1  0.80412874  0.67578594  0.47036900  1
  O2-  O428  1  0.83872858  0.65404213  0.80634480  1
  O2-  O429  1  0.84985203  0.93121659  0.13991240  1
  O2-  O430  1  0.84948342  0.92736801  0.46820381  1
  O2-  O431  1  0.78909996  0.95563488  0.79044787  1
  O2-  O432  1  0.16581045  0.08540768  0.15049753  1
  O2-  O433  1  0.17184254  0.10185222  0.51981816  1
  O2-  O434  1  0.14562868  0.07988036  0.85384766  1
  O2-  O435  1  0.16973775  0.33859945  0.19469085  1
  O2-  O436  1  0.15880934  0.32706910  0.53287926  1
  O2-  O437  1  0.16760889  0.33330358  0.85245410  1
  O2-  O438  1  0.16563617  0.58447145  0.18293227  1
  O2-  O439  1  0.17453984  0.57807563  0.51408272  1
  O2-  O440  1  0.14110099  0.56823663  0.86460461  1
  O2-  O441  1  0.16705743  0.82902236  0.19381835  1
  O2-  O442  1  0.17768975  0.83868239  0.51164117  1
  O2-  O443  1  0.16806135  0.83750986  0.85606090  1
  O2-  O444  1  0.40850170  0.07744606  0.19218686  1
  O2-  O445  1  0.42886043  0.10806260  0.52270453  1
  O2-  O446  1  0.40455341  0.08068414  0.84988829  1
  O2-  O447  1  0.40000147  0.31918349  0.19096184  1
  O2-  O448  1  0.40274964  0.30604624  0.51402136  1
  O2-  O449  1  0.40138158  0.34628026  0.83663541  1
  O2-  O450  1  0.42148451  0.56718343  0.19151672  1
  O2-  O451  1  0.37700985  0.50326111  0.50899140  1
  O2-  O452  1  0.43472433  0.55289508  0.85679654  1
  O2-  O453  1  0.43264344  0.85036655  0.17981701  1
  O2-  O454  1  0.42639805  0.84679380  0.51795185  1
  O2-  O455  1  0.42481329  0.85261433  0.85807043  1
  O2-  O456  1  0.67761566  0.10175292  0.20106469  1
  O2-  O457  1  0.68107200  0.09117197  0.52731417  1
  O2-  O458  1  0.67146791  0.09753576  0.84123615  1
  O2-  O459  1  0.65011035  0.33004403  0.18685975  1
  O2-  O460  1  0.66577079  0.34570280  0.51320518  1
  O2-  O461  1  0.65137243  0.32672413  0.85196601  1
  O2-  O462  1  0.63880176  0.57236059  0.18298374  1
  O2-  O463  1  0.65136783  0.57453616  0.52158834  1
  O2-  O464  1  0.67543077  0.57536585  0.84599583  1
  O2-  O465  1  0.68741623  0.83717750  0.17657254  1
  O2-  O466  1  0.68041600  0.81756215  0.51463548  1
  O2-  O467  1  0.61445991  0.80241172  0.86461043  1
  O2-  O468  1  0.91857174  0.09054041  0.18972117  1
  O2-  O469  1  0.88798218  0.10097838  0.51732305  1
  O2-  O470  1  0.91025973  0.10095439  0.84675768  1
  O2-  O471  1  0.92091396  0.33032386  0.19410076  1
  O2-  O472  1  0.92869599  0.31431112  0.51738720  1
  O2-  O473  1  0.91333499  0.33775504  0.85300486  1
  O2-  O474  1  0.91874423  0.59355693  0.18944366  1
  O2-  O475  1  0.94915344  0.59483625  0.52006469  1
  O2-  O476  1  0.90980897  0.56905311  0.85702347  1
  O2-  O477  1  0.92990236  0.84901412  0.18442401  1
  O2-  O478  1  0.93442798  0.85164656  0.53260242  1
  O2-  O479  1  0.95412903  0.79453386  0.87082903  1
  O2-  O480  1  0.17440312  0.09133599  0.32599321  1
  O2-  O481  1  0.16611760  0.08017655  0.64363867  1
  O2-  O482  1  0.16014128  0.08620699  0.98273855  1
  O2-  O483  1  0.17177823  0.33761363  0.31869548  1
  O2-  O484  1  0.16296470  0.32587064  0.65139167  1
  O2-  O485  1  0.17245410  0.33983629  0.97466862  1
  O2-  O486  1  0.16521313  0.58768213  0.30811511  1
  O2-  O487  1  0.20017289  0.60604102  0.64092223  1
  O2-  O488  1  0.15482589  0.57832731  0.99104796  1
  O2-  O489  1  0.17015349  0.83851247  0.31740112  1
  O2-  O490  1  0.12495600  0.81351175  0.63058229  1
  O2-  O491  1  0.16807495  0.83570063  0.97827457  1
  O2-  O492  1  0.42123795  0.09778021  0.31627804  1
  O2-  O493  1  0.45654534  0.09067392  0.69999630  1
  O2-  O494  1  0.40011074  0.07578465  0.96998437  1
  O2-  O495  1  0.41843375  0.33381776  0.31358655  1
  O2-  O496  1  0.42171092  0.32608521  0.63179272  1
  O2-  O497  1  0.41354522  0.32850023  0.98876049  1
  O2-  O498  1  0.34350038  0.53873574  0.30116014  1
  O2-  O499  1  0.41630405  0.55288851  0.62958470  1
  O2-  O500  1  0.42145784  0.58012839  0.98471584  1
  O2-  O501  1  0.43183098  0.87317705  0.30288112  1
  O2-  O502  1  0.42795772  0.84145627  0.63644148  1
  O2-  O503  1  0.38872171  0.81886867  0.98955798  1
  O2-  O504  1  0.68123892  0.10626148  0.32390038  1
  O2-  O505  1  0.68075509  0.08835679  0.64550899  1
  O2-  O506  1  0.67676190  0.12143714  0.96378161  1
  O2-  O507  1  0.67407859  0.33655867  0.30985109  1
  O2-  O508  1  0.66870704  0.34288176  0.63510314  1
  O2-  O509  1  0.68659858  0.27880553  0.96398790  1
  O2-  O510  1  0.65512338  0.57235065  0.30531964  1
  O2-  O511  1  0.67333941  0.57767314  0.63834607  1
  O2-  O512  1  0.60745893  0.53662284  0.96052539  1
  O2-  O513  1  0.72237692  0.91668748  0.28847761  1
  O2-  O514  1  0.61125697  0.74462654  0.66943721  1
  O2-  O515  1  0.68091726  0.82621785  0.97774255  1
  O2-  O516  1  0.92477681  0.09387194  0.31256431  1
  O2-  O517  1  0.92905213  0.10034751  0.64257848  1
  O2-  O518  1  0.94198104  0.07030263  0.96036320  1
  O2-  O519  1  0.91430907  0.33077743  0.31647661  1
  O2-  O520  1  0.92524209  0.33079971  0.64094739  1
  O2-  O521  1  0.92687387  0.32379594  0.98688385  1
  O2-  O522  1  0.94002035  0.67129346  0.30518839  1
  O2-  O523  1  0.93534422  0.58611184  0.65070294  1
  O2-  O524  1  0.91236918  0.59388650  0.97111131  1
  O2-  O525  1  0.93860732  0.84104784  0.30805703  1
  O2-  O526  1  0.91406748  0.82888215  0.59745344  1
  O2-  O527  1  0.92383886  0.83477230  0.98096953  1
  O2-  O528  1  0.08747112  0.17956332  0.02588145  1
  O2-  O529  1  0.08612331  0.17473074  0.35886835  1
  O2-  O530  1  0.08714751  0.17414325  0.68489369  1
  O2-  O531  1  0.08458914  0.41451636  0.02679375  1
  O2-  O532  1  0.09258616  0.42351991  0.35488482  1
  O2-  O533  1  0.08582290  0.39735857  0.68907985  1
  O2-  O534  1  0.08099738  0.67558215  0.01901530  1
  O2-  O535  1  0.08277018  0.67403083  0.35272379  1
  O2-  O536  1  0.09751005  0.66631396  0.69942393  1
  O2-  O537  1  0.08826471  0.92114556  0.02325918  1
  O2-  O538  1  0.09369477  0.92707749  0.35593506  1
  O2-  O539  1  0.06882322  0.91469207  0.67133850  1
  O2-  O540  1  0.32730093  0.17008006  0.01980362  1
  O2-  O541  1  0.34046709  0.17939545  0.36712231  1
  O2-  O542  1  0.34889444  0.15036156  0.66700845  1
  O2-  O543  1  0.33607143  0.41252106  0.02148714  1
  O2-  O544  1  0.33064284  0.40539515  0.36367171  1
  O2-  O545  1  0.34103866  0.40141789  0.69173951  1
  O2-  O546  1  0.31696576  0.65724408  0.03602085  1
  O2-  O547  1  0.33134764  0.64456640  0.36581027  1
  O2-  O548  1  0.36333113  0.66896810  0.65619947  1
  O2-  O549  1  0.31140416  0.89922156  0.03007699  1
  O2-  O550  1  0.33482896  0.93489555  0.35815991  1
  O2-  O551  1  0.30724807  0.85698041  0.69256252  1
  O2-  O552  1  0.55689775  0.14837038  0.02766049  1
  O2-  O553  1  0.58731113  0.18051875  0.35524824  1
  O2-  O554  1  0.56480317  0.15671838  0.60788041  1
  O2-  O555  1  0.56125283  0.39258704  0.02772062  1
  O2-  O556  1  0.58236002  0.41529159  0.34966084  1
  O2-  O557  1  0.58204815  0.41728680  0.68098047  1
  O2-  O558  1  0.59083698  0.65562391  0.02027337  1
  O2-  O559  1  0.53980957  0.60035331  0.37839757  1
  O2-  O560  1  0.58433387  0.65355003  0.68096158  1
  O2-  O561  1  0.57222957  0.91486804  -0.00874575  1
  O2-  O562  1  0.59000942  0.93972314  0.34754037  1
  O2-  O563  1  0.59094241  0.93439374  0.67659437  1
  O2-  O564  1  0.78504495  0.09885453  0.03493930  1
  O2-  O565  1  0.84714954  0.17151637  0.36121365  1
  O2-  O566  1  0.83598602  0.17203022  0.68806239  1
  O2-  O567  1  0.82976694  0.38421989  0.03045664  1
  O2-  O568  1  0.82958512  0.39900330  0.34754370  1
  O2-  O569  1  0.90328160  0.44603004  0.70657293  1
  O2-  O570  1  0.82637705  0.66623004  0.02318035  1
  O2-  O571  1  0.79891451  0.65730698  0.35207299  1
  O2-  O572  1  0.84369129  0.65154631  0.68196072  1
  O2-  O573  1  0.83901070  0.91772094  0.01871688  1
  O2-  O574  1  0.85947972  0.92954080  0.34651203  1
  O2-  O575  1  0.77414108  0.84430506  0.61953676  1
