# generated using pymatgen
data_H2O
_symmetry_space_group_name_H-M   'P 1'
_cell_length_a   17.99881174
_cell_length_b   17.99722881
_cell_length_c   22.00830606
_cell_angle_alpha   89.99731655
_cell_angle_beta   90.01778001
_cell_angle_gamma   119.99710364
_symmetry_Int_Tables_number   1
_chemical_formula_structural   H2O
_chemical_formula_sum   'H384 O192'
_cell_volume   6174.18120510
_cell_formula_units_Z   192
loop_
 _symmetry_equiv_pos_site_id
 _symmetry_equiv_pos_as_xyz
  1  'x, y, z'
loop_
 _atom_type_symbol
 _atom_type_oxidation_number
  H+  1.0
  O2-  -2.0
loop_
 _atom_site_type_symbol
 _atom_site_label
 _atom_site_symmetry_multiplicity
 _atom_site_fract_x
 _atom_site_fract_y
 _atom_site_fract_z
 _atom_site_occupancy
  H+  H0  1  0.86285507  0.22255964  0.17026510  1
  H+  H1  1  0.39108374  0.85895742  0.66375453  1
  H+  H2  1  0.89754931  0.60968690  0.66117403  1
  H+  H3  1  0.21860687  0.34982723  0.66849654  1
  H+  H4  1  0.32635189  0.42303545  0.27094141  1
  H+  H5  1  0.13422361  0.25678307  0.32555714  1
  H+  H6  1  0.11876269  0.89617577  0.00962839  1
  H+  H7  1  0.72822533  0.86232196  1.01312597  1
  H+  H8  1  0.21891168  0.34809932  0.17237356  1
  H+  H9  1  0.89228011  0.78938704  0.98690009  1
  H+  H10  1  0.22560755  0.62466892  0.98981285  1
  H+  H11  1  1.01905110  0.64824936  0.15234489  1
  H+  H12  1  0.38553497  0.59904648  0.18188612  1
  H+  H13  1  0.38812659  0.26944914  0.84095737  1
  H+  H14  1  0.56892691  0.90109454  0.42788004  1
  H+  H15  1  0.36534057  0.72876705  0.50720827  1
  H+  H16  1  0.81648707  0.63746486  0.61262100  1
  H+  H17  1  0.27589394  0.88368803  0.67622286  1
  H+  H18  1  0.70059535  0.90025554  0.89321735  1
  H+  H19  1  0.76897670  0.13032298  0.84575170  1
  H+  H20  1  0.97365466  0.36484514  0.50977022  1
  H+  H21  1  0.13894068  0.35758318  0.68778680  1
  H+  H22  1  0.16283944  0.84602203  0.93337424  1
  H+  H23  1  0.65697256  0.28574464  0.33205822  1
  H+  H24  1  0.42119620  0.09175393  0.71263597  1
  H+  H25  1  0.52664367  0.13259960  0.15919036  1
  H+  H26  1  0.46826810  0.74478520  0.22987081  1
  H+  H27  1  0.62312881  0.22969895  0.49338663  1
  H+  H28  1  0.72432610  0.85885060  0.50421746  1
  H+  H29  1  0.60930805  0.97862967  0.33568789  1
  H+  H30  1  0.10480532  0.38755680  0.50039498  1
  H+  H31  1  0.73347041  0.11213682  0.66933980  1
  H+  H32  1  0.26432923  0.12233468  0.84895026  1
  H+  H33  1  0.41310817  0.57701912  0.57638354  1
  H+  H34  1  0.92766239  0.77622613  0.83457341  1
  H+  H35  1  0.85094541  0.06406287  0.31089462  1
  H+  H36  1  0.46148072  0.35614636  0.51307047  1
  H+  H37  1  0.62952740  0.26733839  0.84166794  1
  H+  H38  1  0.89303299  0.02481409  1.01466861  1
  H+  H39  1  0.36625602  0.37835178  1.00839871  1
  H+  H40  1  0.15601437  0.75340237  0.50488892  1
  H+  H41  1  0.88672593  0.61765827  0.16537983  1
  H+  H42  1  0.50935344  0.13220100  0.84916936  1
  H+  H43  1  0.10681786  0.47506758  0.49234753  1
  H+  H44  1  0.63026468  0.35768610  0.83571313  1
  H+  H45  1  0.37322356  0.14196438  0.47973251  1
  H+  H46  1  0.77493678  0.14139332  0.50072005  1
  H+  H47  1  0.36306751  0.22503863  0.48448686  1
  H+  H48  1  0.88197572  0.37465030  0.33716233  1
  H+  H49  1  0.88517137  0.53840472  0.99488168  1
  H+  H50  1  0.17469349  0.49444359  0.31560668  1
  H+  H51  1  0.49041949  0.61832677  0.32958754  1
  H+  H52  1  0.62458618  0.73898985  0.33703637  1
  H+  H53  1  0.64272109  0.02236880  0.66203934  1
  H+  H54  1  0.26385258  0.57882203  0.32290392  1
  H+  H55  1  0.38360646  0.86627205  0.33204513  1
  H+  H56  1  0.07813292  0.68020471  0.05671277  1
  H+  H57  1  0.11648937  0.28104121  0.52471305  1
  H+  H58  1  0.15785643  0.05404262  0.70883517  1
  H+  H59  1  0.15401817  0.53114621  0.68018839  1
  H+  H60  1  0.64142220  0.36081289  0.51348816  1
  H+  H61  1  0.22140113  0.86460232  0.33789300  1
  H+  H62  1  0.61442974  0.22725846  1.00461977  1
  H+  H63  1  0.21650367  0.48695274  0.75038695  1
  H+  H64  1  0.36546996  0.97899086  0.34001544  1
  H+  H65  1  0.39039079  0.77562416  0.83407243  1
  H+  H66  1  0.39774115  0.02775875  0.50218830  1
  H+  H67  1  0.51911128  0.88444435  0.82618707  1
  H+  H68  1  0.35614554  0.62268677  0.99382200  1
  H+  H69  1  0.78051782  0.14244500  -0.00002314  1
  H+  H70  1  0.14430321  0.77476409  0.65435179  1
  H+  H71  1  0.91352305  0.91930482  0.85120540  1
  H+  H72  1  0.96667379  0.09914658  0.65671548  1
  H+  H73  1  0.39882865  0.13890331  0.84310286  1
  H+  H74  1  0.71768916  0.60612715  0.50581476  1
  H+  H75  1  0.36577675  0.14502242  0.66482571  1
  H+  H76  1  0.74616105  0.37646554  0.33404097  1
  H+  H77  1  0.88525660  0.76856204  0.16333732  1
  H+  H78  1  0.52478234  0.39001384  0.00468432  1
  H+  H79  1  0.73254207  0.36236595  0.50769263  1
  H+  H80  1  0.60849817  0.72911644  0.82990993  1
  H+  H81  1  0.85276936  0.71933685  0.34158392  1
  H+  H82  1  0.37138250  0.13996525  1.00260813  1
  H+  H83  1  0.63640474  0.52788001  0.31604632  1
  H+  H84  1  0.63182591  0.27260229  0.17729840  1
  H+  H85  1  0.09574701  0.15619962  0.48444066  1
  H+  H86  1  0.13534492  0.02456618  0.15386207  1
  H+  H87  1  0.09523663  0.36503771  0.34043050  1
  H+  H88  1  0.91673601  0.98391500  0.31826036  1
  H+  H89  1  0.08764167  0.95325678  0.34720379  1
  H+  H90  1  0.35752643  0.38081740  0.66598843  1
  H+  H91  1  0.11166344  0.74181919  0.82960902  1
  H+  H92  1  0.50954658  0.63328104  0.67153447  1
  H+  H93  1  0.86824781  0.64838358  -0.00599389  1
  H+  H94  1  0.86474585  0.87954563  0.15984001  1
  H+  H95  1  0.46923729  0.36651128  0.84124786  1
  H+  H96  1  0.11481210  0.65358322  -0.00186051  1
  H+  H97  1  0.90039908  0.28984056  0.98897200  1
  H+  H98  1  0.27285258  0.88358194  -0.00021682  1
  H+  H99  1  0.28404347  0.91078777  0.49753420  1
  H+  H100  1  0.00329224  0.65465338  0.34391978  1
  H+  H101  1  0.97427557  0.85916888  0.16895315  1
  H+  H102  1  0.85379654  0.24642108  0.34557120  1
  H+  H103  1  0.64865970  0.82582938  0.96489470  1
  H+  H104  1  0.77349665  0.63647254  0.14979254  1
  H+  H105  1  0.39971358  0.32096110  0.56822729  1
  H+  H106  1  0.61616778  0.38922107  0.16071428  1
  H+  H107  1  0.63757031  0.86968224  0.32683800  1
  H+  H108  1  0.52092594  0.88799743  0.33672348  1
  H+  H109  1  1.00701494  0.92981371  0.85183463  1
  H+  H110  1  0.05431740  0.89573945  0.43161991  1
  H+  H111  1  0.33662914  0.66151626  0.59099468  1
  H+  H112  1  0.10696446  0.22185863  0.14612885  1
  H+  H113  1  0.62762242  0.73801922  0.49162123  1
  H+  H114  1  0.21354652  0.35048329  0.31857782  1
  H+  H115  1  0.63103748  0.11499269  0.32248470  1
  H+  H116  1  0.11106774  0.36754671  1.01334499  1
  H+  H117  1  0.10527567  0.24482472  0.82238686  1
  H+  H118  1  0.17450670  0.03741171  0.84326809  1
  H+  H119  1  0.39591052  0.27584289  0.99232426  1
  H+  H120  1  0.96655445  0.36455283  0.33110123  1
  H+  H121  1  0.99874104  0.58687902  0.48470172  1
  H+  H122  1  0.39501647  0.11262041  0.31992173  1
  H+  H123  1  0.85902620  0.88722242  0.00975102  1
  H+  H124  1  0.12450399  0.73429817  0.53062860  1
  H+  H125  1  0.13874520  0.13088546  0.32345147  1
  H+  H126  1  0.76149677  0.63437826  0.34266571  1
  H+  H127  1  0.62318676  0.89283674  1.04830549  1
  H+  H128  1  0.80922341  0.04776014  0.29390235  1
  H+  H129  1  0.36151356  0.38098922  0.31581790  1
  H+  H130  1  0.62694653  0.64915046  0.33486918  1
  H+  H131  1  0.64696097  0.86860377  0.16811119  1
  H+  H132  1  0.63518194  0.86198158  0.65825442  1
  H+  H133  1  0.88958746  0.02270364  0.17041494  1
  H+  H134  1  0.61471967  0.73165867  0.02910777  1
  H+  H135  1  0.77755086  0.88388508  0.16348401  1
  H+  H136  1  0.63328772  0.61159395  0.00104119  1
  H+  H137  1  0.46958734  0.60956121  0.83082661  1
  H+  H138  1  0.38256173  0.51672817  0.82860600  1
  H+  H139  1  0.63115322  0.10574679  0.86165612  1
  H+  H140  1  0.40117962  0.57768138  0.70816745  1
  H+  H141  1  0.63056070  0.87652172  0.84249538  1
  H+  H142  1  0.52732882  0.38867385  0.15746214  1
  H+  H143  1  0.39511180  0.77303742  0.64824303  1
  H+  H144  1  0.36775998  0.96841895  0.67482661  1
  H+  H145  1  0.37015482  0.21901588  0.15831003  1
  H+  H146  1  0.70249386  0.60808465  0.65127768  1
  H+  H147  1  0.77254780  0.41461165  0.00683159  1
  H+  H148  1  0.39773453  0.86913253  0.84124045  1
  H+  H149  1  0.16748330  0.03064914  0.27993911  1
  H+  H150  1  0.37768468  -0.01089092  0.83287392  1
  H+  H151  1  0.52780637  0.63482887  0.17608445  1
  H+  H152  1  0.35188503  0.89222567  0.22523105  1
  H+  H153  1  0.82223632  0.65821539  0.43915294  1
  H+  H154  1  0.71858508  0.11696981  0.32582415  1
  H+  H155  1  1.03688941  0.64125969  0.66864981  1
  H+  H156  1  0.70799670  0.59935262  0.84043885  1
  H+  H157  1  0.48018064  0.58128077  -0.03333689  1
  H+  H158  1  -0.00071256  0.07387172  0.32581614  1
  H+  H159  1  0.26827128  0.69647483  0.15346201  1
  H+  H160  1  0.87266624  0.52711985  0.32449104  1
  H+  H161  1  0.37840017  0.77638704  0.34185395  1
  H+  H162  1  0.38726362  0.35517569  0.16889083  1
  H+  H163  1  0.88979921  0.27206052  0.84477469  1
  H+  H164  1  0.10760738  0.38313386  0.16341139  1
  H+  H165  1  -0.01749098  0.62512077  -0.01641741  1
  H+  H166  1  0.02962986  0.38078223  0.00997404  1
  H+  H167  1  0.64781086  0.28239632  0.65682480  1
  H+  H168  1  0.53524141  0.14069468  0.49061867  1
  H+  H169  1  0.94394453  0.35713092  0.67290553  1
  H+  H170  1  0.38761877  0.27693533  0.66036446  1
  H+  H171  1  0.63338084  0.39171725  0.33274840  1
  H+  H172  1  0.10575253  0.87310244  0.34389941  1
  H+  H173  1  0.34559471  0.38157442  0.50284015  1
  H+  H174  1  0.36157807  0.46564249  0.16195855  1
  H+  H175  1  0.22398676  0.86618276  0.18983299  1
  H+  H176  1  0.21333201  -0.03254920  0.54514165  1
  H+  H177  1  0.87244698  0.00028623  0.65652406  1
  H+  H178  1  0.76316617  0.88177581  0.66892483  1
  H+  H179  1  0.82906168  0.91128347  0.07236438  1
  H+  H180  1  0.97925939  0.36340488  0.17576988  1
  H+  H181  1  0.23035704  0.36677544  0.83592196  1
  H+  H182  1  0.38778595  0.00995700  0.17517176  1
  H+  H183  1  0.36310217  0.89067818  0.49680639  1
  H+  H184  1  0.85331300  0.96808210  0.48957049  1
  H+  H185  1  0.86906596  0.85103795  0.51019268  1
  H+  H186  1  -0.04391175  0.84871906  0.51087112  1
  H+  H187  1  0.43738786  0.80763467  0.24894353  1
  H+  H188  1  0.08056794  0.40830900  0.10203723  1
  H+  H189  1  0.77089242  0.87611241  0.33811690  1
  H+  H190  1  0.77051746  0.89627620  0.82424988  1
  H+  H191  1  0.27936158  0.13352989  0.14876395  1
  H+  H192  1  0.90034079  0.76452117  0.86285475  1
  H+  H193  1  0.86746415  0.10628251  0.50797357  1
  H+  H194  1  0.89318240  0.36037344  0.83971248  1
  H+  H195  1  0.13825442  0.54091372  0.83002892  1
  H+  H196  1  0.36699371  0.75812244  0.16035838  1
  H+  H197  1  0.87095902  0.47605019  0.68197374  1
  H+  H198  1  0.59413573  0.86667623  0.48670970  1
  H+  H199  1  0.31922010  0.67121737  0.42002374  1
  H+  H200  1  0.83250096  0.66900318  0.08910763  1
  H+  H201  1  0.47646524  0.36637969  0.65856810  1
  H+  H202  1  0.35517905  0.46900122  0.66773265  1
  H+  H203  1  0.63216990  0.13443072  0.66304388  1
  H+  H204  1  0.63458163  -0.00846492  0.14339400  1
  H+  H205  1  0.64963476  0.12034419  0.50828911  1
  H+  H206  1  0.77694844  0.64358114  -0.00346190  1
  H+  H207  1  0.63056681  0.77021384  0.65645699  1
  H+  H208  1  0.90947478  0.57199818  0.90976758  1
  H+  H209  1  0.14014232  0.64803159  0.29683804  1
  H+  H210  1  0.41763577  0.33616492  0.93297865  1
  H+  H211  1  0.60438977  0.47241460  0.82785095  1
  H+  H212  1  0.14208891  0.63244988  0.83303271  1
  H+  H213  1  0.48473493  0.36568235  0.32361721  1
  H+  H214  1  0.35816606  0.64100578  0.82279311  1
  H+  H215  1  0.08892270  0.94643712  0.65904807  1
  H+  H216  1  0.53135802  0.14649296  0.33736141  1
  H+  H217  1  0.63593739  0.11215299  1.00439788  1
  H+  H218  1  0.63337210  0.52273329  0.99592472  1
  H+  H219  1  0.12161901  0.10602715  0.67427207  1
  H+  H220  1  0.47730090  0.10867269  0.99752366  1
  H+  H221  1  0.60452059  0.47509170  0.66892006  1
  H+  H222  1  0.56073122  0.39552259  0.45282709  1
  H+  H223  1  0.90652005  0.81446276  0.25899559  1
  H+  H224  1  0.16406557  0.53582037  0.16342637  1
  H+  H225  1  0.10518410  0.88993559  0.83037906  1
  H+  H226  1  0.89096958  0.02888354  0.85782588  1
  H+  H227  1  0.12539914  0.77596514  0.34143456  1
  H+  H228  1  0.85052777  0.71540236  0.49956857  1
  H+  H229  1  0.46727750  0.85789911  0.50220832  1
  H+  H230  1  0.02957684  0.89629310  0.01177574  1
  H+  H231  1  0.14027044  0.60759938  0.30542822  1
  H+  H232  1  0.36740159  0.63654936  0.50810233  1
  H+  H233  1  0.88778735  0.27387872  0.51224222  1
  H+  H234  1  0.61417878  0.61008702  0.65451902  1
  H+  H235  1  0.09483354  0.21443598  0.67416772  1
  H+  H236  1  0.13880823  0.05298164  0.99766194  1
  H+  H237  1  0.64988327  0.58040336  0.56206322  1
  H+  H238  1  0.85856963  0.13262003  0.84869551  1
  H+  H239  1  0.25231821  0.67697926  0.37750249  1
  H+  H240  1  0.14368837  0.88937506  0.51003814  1
  H+  H241  1  0.64086136  0.61255317  0.17612806  1
  H+  H242  1  -0.04183585  0.84324114  0.66284922  1
  H+  H243  1  0.85781691  0.38052683  0.49899924  1
  H+  H244  1  0.13879513  0.78512566  0.99135697  1
  H+  H245  1  0.89909842  0.82420757  0.60382632  1
  H+  H246  1  0.38793877  1.01851341  -0.00377276  1
  H+  H247  1  0.61423479  0.39066141  0.67080689  1
  H+  H248  1  0.77904697  0.39227583  0.67965505  1
  H+  H249  1  0.22443352  0.60810090  0.51555398  1
  H+  H250  1  0.36127361  0.38009553  0.82491349  1
  H+  H251  1  0.23602277  0.61278226  0.65220934  1
  H+  H252  1  0.33113610  0.40767239  0.10181995  1
  H+  H253  1  0.63967512  0.77662614  0.17996677  1
  H+  H254  1  0.87125901  0.58644437  0.84035157  1
  H+  H255  1  0.28686665  0.14157921  0.31993437  1
  H+  H256  1  0.11164789  0.89278893  0.16420551  1
  H+  H257  1  0.62204699  0.63870089  0.48779437  1
  H+  H258  1  0.86709765  0.49148987  0.84394607  1
  H+  H259  1  -0.04505020  0.10581274  0.50726315  1
  H+  H260  1  0.52850310  0.88667736  0.67289302  1
  H+  H261  1  0.25870341  0.10926490  0.52675018  1
  H+  H262  1  0.76446024  0.37843356  0.82947334  1
  H+  H263  1  0.84995533  0.85741774  0.33789985  1
  H+  H264  1  0.73386664  0.11692927  0.17111231  1
  H+  H265  1  0.05864965  0.15863402  0.73269932  1
  H+  H266  1  0.60792107  -0.02426194  0.83115500  1
  H+  H267  1  0.38655834  0.09904279  0.16867348  1
  H+  H268  1  0.07397589  0.96486105  0.48288766  1
  H+  H269  1  0.02388078  0.14410869  0.04578341  1
  H+  H270  1  0.36706780  0.71483430  1.00096069  1
  H+  H271  1  0.87126865  0.50542573  0.51186343  1
  H+  H272  1  -0.03509514  0.84063365  0.31930087  1
  H+  H273  1  0.63324226  0.36182917  -0.00902313  1
  H+  H274  1  0.27670720  0.14321802  0.67112300  1
  H+  H275  1  0.26178249  0.38828186  0.51057989  1
  H+  H276  1  0.64030673  0.52236542  0.17142318  1
  H+  H277  1  0.39145858  0.84912012  0.99046180  1
  H+  H278  1  0.84425419  0.68479473  0.80153132  1
  H+  H279  1  0.86444951  0.21430822  0.68521838  1
  H+  H280  1  0.61874584  0.13983439  0.15729207  1
  H+  H281  1  0.12497137  0.39859725  0.81620631  1
  H+  H282  1  0.14940630  0.26328488  0.98939659  1
  H+  H283  1  0.22542792  0.13592660  -0.00747496  1
  H+  H284  1  0.58604650  0.41924406  0.06409530  1
  H+  H285  1  0.86808163  0.61266300  0.32775046  1
  H+  H286  1  0.12613762  0.64272145  0.67107891  1
  H+  H287  1  0.76777974  0.36656867  0.15282338  1
  H+  H288  1  0.42315362  0.58013621  0.24207987  1
  H+  H289  1  0.66300360  0.33227709  0.93192785  1
  H+  H290  1  0.60392449  0.47199291  0.50125719  1
  H+  H291  1  0.66926847  0.84193712  0.26700357  1
  H+  H292  1  0.10312520  0.69317087  0.76579959  1
  H+  H293  1  0.07710461  0.91307424  0.76583487  1
  H+  H294  1  0.58698258  0.91650232  0.73296999  1
  H+  H295  1  0.83406064  0.17408203  0.44036826  1
  H+  H296  1  0.41826308  0.84146734  0.56676371  1
  H+  H297  1  0.37686664  0.52026502  0.51736302  1
  H+  H298  1  0.97610330  0.11795835  0.85840443  1
  H+  H299  1  0.91347767  0.59205411  0.22677722  1
  H+  H300  1  0.63071028  0.45192673  0.38335868  1
  H+  H301  1  0.17050186  0.33622224  0.89540214  1
  H+  H302  1  0.91673252  0.33798463  0.23428410  1
  H+  H303  1  0.21769704  0.57095010  0.22292177  1
  H+  H304  1  0.67069558  0.33627294  0.23473106  1
  H+  H305  1  0.18080939  0.09832291  0.23092282  1
  H+  H306  1  0.82874224  0.90397248  0.43147578  1
  H+  H307  1  0.42406747  0.09086961  0.55880271  1
  H+  H308  1  0.66291313  0.82652259  0.56397735  1
  H+  H309  1  0.93574610  0.06902475  0.22996315  1
  H+  H310  1  0.32224163  0.83609045  0.16509237  1
  H+  H311  1  0.15394995  0.31292216  0.22924107  1
  H+  H312  1  0.56816464  0.13182113  0.79428868  1
  H+  H313  1  0.41522397  0.09030059  0.90504651  1
  H+  H314  1  0.83202500  0.41366785  0.43545835  1
  H+  H315  1  0.58672644  0.17221492  0.06635691  1
  H+  H316  1  0.83008426  0.41528814  0.77119699  1
  H+  H317  1  0.62310309  0.18691648  0.71796240  1
  H+  H318  1  0.65401935  0.58102380  0.90221520  1
  H+  H319  1  0.87719430  0.59782917  0.51037379  1
  H+  H320  1  0.60321577  0.68008566  0.42257780  1
  H+  H321  1  0.10502890  0.73807702  0.15413740  1
  H+  H322  1  0.15654428  0.83698777  0.24284325  1
  H+  H323  1  0.42323460  0.82364733  0.93221767  1
  H+  H324  1  0.92041911  0.57385552  0.60278836  1
  H+  H325  1  0.93475219  0.08836101  0.95975996  1
  H+  H326  1  0.79824005  0.61208086  0.75353404  1
  H+  H327  1  0.60854343  0.64079574  0.82840857  1
  H+  H328  1  0.85173780  0.87885450  0.67328317  1
  H+  H329  1  0.27416604  0.64864115  0.82268604  1
  H+  H330  1  0.87035314  0.14627331  0.00704239  1
  H+  H331  1  0.86067001  0.13212684  0.17401594  1
  H+  H332  1  0.82827157  0.43370340  0.06622353  1
  H+  H333  1  0.49621967  0.11897215  0.66737668  1
  H+  H334  1  0.66154282  0.07807856  0.22338818  1
  H+  H335  1  0.64039640  0.02733198  1.01915223  1
  H+  H336  1  0.07789584  0.40819981  0.39840958  1
  H+  H337  1  0.52069830  0.65328728  0.03790088  1
  H+  H338  1  0.67390512  0.59028084  0.25923426  1
  H+  H339  1  0.01448053  0.21277598  0.79628057  1
  H+  H340  1  0.58038586  0.67040256  0.72603814  1
  H+  H341  1  0.34672896  0.17256624  0.06170899  1
  H+  H342  1  0.08843560  0.59037695  0.48220602  1
  H+  H343  1  0.58819604  0.66788867  0.11792202  1
  H+  H344  1  0.08262149  0.91651124  0.10023810  1
  H+  H345  1  0.66054526  0.06852479  0.91619617  1
  H+  H346  1  0.37217190  0.63138580  0.64772103  1
  H+  H347  1  0.90875123  0.47971723  0.37836428  1
  H+  H348  1  0.34524106  0.92471381  0.77633815  1
  H+  H349  1  0.39777259  0.27455614  0.32189144  1
  H+  H350  1  0.94005934  0.34998293  0.93310786  1
  H+  H351  1  0.36167759  0.46400638  0.00484549  1
  H+  H352  1  0.93407366  0.87334126  0.94111841  1
  H+  H353  1  0.67854457  0.34387644  0.60082175  1
  H+  H354  1  0.41012684  0.56574731  0.91850643  1
  H+  H355  1  0.93021555  0.31931153  0.60714341  1
  H+  H356  1  0.36096959  0.18434392  0.77711122  1
  H+  H357  1  0.58001563  0.41675826  0.76659623  1
  H+  H358  1  0.05820218  0.65726868  0.40172071  1
  H+  H359  1  0.42441888  0.07766121  0.26364428  1
  H+  H360  1  0.82408986  0.16109494  0.74707941  1
  H+  H361  1  0.59097206  0.17365385  0.39732157  1
  H+  H362  1  0.33685135  0.92328204  0.40169597  1
  H+  H363  1  0.32957485  0.89826891  0.05840229  1
  H+  H364  1  0.15840419  0.57114783  0.57099445  1
  H+  H365  1  0.19932464  0.08042436  0.58788200  1
  H+  H366  1  0.85373921  0.36189959  0.14962053  1
  H+  H367  1  0.23353136  0.35297146  -0.00952698  1
  H+  H368  1  0.83024395  0.92804047  0.76577903  1
  H+  H369  1  0.33425230  0.16437139  0.38611617  1
  H+  H370  1  0.42338445  0.33072574  0.22743678  1
  H+  H371  1  0.67921922  0.09137488  0.56840336  1
  H+  H372  1  0.10124088  0.86577468  0.66806131  1
  H+  H373  1  0.85230691  0.15774495  0.34275522  1
  H+  H374  1  0.84731338  0.71674172  0.65647226  1
  H+  H375  1  0.05922812  0.19221576  0.43638640  1
  H+  H376  1  0.39888346  0.53210666  0.32849372  1
  H+  H377  1  0.90258632  0.06790005  0.59230699  1
  H+  H378  1  0.16751835  0.17370928  0.38648999  1
  H+  H379  1  0.17782811  0.85180190  0.60302734  1
  H+  H380  1  0.16997885  0.60471880  0.92977733  1
  H+  H381  1  0.14833078  0.33593098  0.58569146  1
  H+  H382  1  0.33039872  0.40680639  0.76273322  1
  H+  H383  1  0.14118232  0.11639860  0.14145713  1
  O2-  O384  1  0.08343799  0.16551165  0.12383936  1
  O2-  O385  1  0.05847183  0.18069009  0.47989306  1
  O2-  O386  1  0.05470400  0.19227452  0.80362653  1
  O2-  O387  1  0.08038257  0.41534853  0.14829695  1
  O2-  O388  1  0.07558932  0.41412667  0.47809275  1
  O2-  O389  1  0.10590046  0.43318690  0.79114431  1
  O2-  O390  1  0.07663718  0.68288182  0.13258741  1
  O2-  O391  1  0.04208979  0.58784204  0.45654917  1
  O2-  O392  1  0.09852611  0.68560711  0.81017511  1
  O2-  O393  1  0.07945138  0.91974047  0.14658637  1
  O2-  O394  1  0.05405431  0.90399361  0.47712812  1
  O2-  O395  1  0.08930869  0.93153347  0.80837111  1
  O2-  O396  1  0.34246386  0.15910246  0.14254838  1
  O2-  O397  1  0.33683021  0.16610202  0.46610767  1
  O2-  O398  1  0.36715438  0.18751805  0.82112387  1
  O2-  O399  1  0.33034628  0.40534614  0.14761405  1
  O2-  O400  1  0.31958526  0.41698208  0.49223020  1
  O2-  O401  1  0.33185241  0.41199600  0.80783398  1
  O2-  O402  1  0.31520646  0.75499505  0.14215086  1
  O2-  O403  1  0.33254595  0.66549268  0.49755402  1
  O2-  O404  1  0.33461448  0.67633127  0.80719230  1
  O2-  O405  1  0.33144277  0.89363913  0.18446302  1
  O2-  O406  1  0.34141265  0.92828158  0.47937141  1
  O2-  O407  1  0.35609716  0.92876661  0.82029420  1
  O2-  O408  1  0.58675986  0.17011802  0.14531776  1
  O2-  O409  1  0.59513031  0.17089802  0.47503141  1
  O2-  O410  1  0.57652255  0.15692894  0.83457059  1
  O2-  O411  1  0.58846428  0.42163841  0.14392407  1
  O2-  O412  1  0.57409194  0.40781717  0.49581635  1
  O2-  O413  1  0.57994268  0.41314262  0.81180062  1
  O2-  O414  1  0.58933823  0.66838060  0.16332430  1
  O2-  O415  1  0.60115749  0.67761693  0.47005787  1
  O2-  O416  1  0.58050573  0.67210847  0.81097373  1
  O2-  O417  1  0.61415197  0.93013609  0.12950381  1
  O2-  O418  1  0.55627315  0.88735994  0.47173903  1
  O2-  O419  1  0.58198572  0.91781301  0.81149220  1
  O2-  O420  1  0.82815086  0.16039515  0.16007857  1
  O2-  O421  1  0.83778758  0.16915441  0.48532646  1
  O2-  O422  1  0.82797835  0.15899776  0.82829561  1
  O2-  O423  1  0.81255577  0.37090791  0.12513659  1
  O2-  O424  1  0.82569291  0.40881641  0.48366162  1
  O2-  O425  1  0.82684679  0.41174179  0.81757584  1
  O2-  O426  1  0.83335819  0.67021681  0.13445652  1
  O2-  O427  1  0.82067846  0.65466783  0.48486924  1
  O2-  O428  1  0.80662812  0.62259416  0.79731662  1
  O2-  O429  1  0.83570761  0.91143919  0.14485323  1
  O2-  O430  1  0.82618548  0.90662402  0.47730463  1
  O2-  O431  1  0.83080453  0.93071006  0.81069571  1
  O2-  O432  1  0.17056855  0.08855149  0.16232036  1
  O2-  O433  1  0.22797721  0.06374267  0.55751184  1
  O2-  O434  1  0.20644856  0.08939890  0.86783543  1
  O2-  O435  1  0.15745013  0.31502351  0.18407874  1
  O2-  O436  1  0.15083234  0.33987293  0.54032013  1
  O2-  O437  1  0.16938888  0.34200143  0.84995899  1
  O2-  O438  1  0.21261242  0.58822145  0.18099395  1
  O2-  O439  1  0.16222635  0.57397864  0.52593732  1
  O2-  O440  1  0.17103152  0.59910294  0.84701513  1
  O2-  O441  1  0.16197416  0.84440749  0.19801044  1
  O2-  O442  1  0.19658546  0.90701392  0.53363587  1
  O2-  O443  1  0.12805715  0.83002846  0.86220789  1
  O2-  O444  1  0.41886151  0.07177420  0.18589824  1
  O2-  O445  1  0.42787499  0.09050455  0.51460512  1
  O2-  O446  1  0.42373883  0.09701938  0.86013751  1
  O2-  O447  1  0.42140676  0.32794431  0.18222650  1
  O2-  O448  1  0.39965732  0.32028250  0.52248413  1
  O2-  O449  1  0.40914539  0.33519936  0.85568549  1
  O2-  O450  1  0.41993377  0.57401291  0.19543854  1
  O2-  O451  1  0.40945842  0.58119618  0.53223459  1
  O2-  O452  1  0.40920678  0.57669759  0.84528165  1
  O2-  O453  1  0.45466700  0.78642520  0.21299351  1
  O2-  O454  1  0.40819074  0.83422718  0.52182098  1
  O2-  O455  1  0.42676438  0.83514848  0.85156366  1
  O2-  O456  1  0.66759615  0.08320519  0.17859100  1
  O2-  O457  1  0.68387151  0.09484022  0.52342197  1
  O2-  O458  1  0.66032119  0.07219625  0.87057368  1
  O2-  O459  1  0.65997097  0.33392889  0.19050829  1
  O2-  O460  1  0.67196626  0.33050666  0.52607099  1
  O2-  O461  1  0.66265287  0.32993406  0.85156727  1
  O2-  O462  1  0.67402455  0.58329357  0.18664636  1
  O2-  O463  1  0.65463949  0.57891040  0.51626626  1
  O2-  O464  1  0.64974919  0.57908485  0.85660501  1
  O2-  O465  1  0.67253747  0.83878424  0.19084317  1
  O2-  O466  1  0.66327416  0.82352194  0.51830657  1
  O2-  O467  1  0.66684828  0.85458377  0.86426524  1
  O2-  O468  1  0.91578968  0.07919220  0.19076302  1
  O2-  O469  1  0.89551302  0.07124853  0.52277366  1
  O2-  O470  1  0.91904857  0.08569703  0.87786152  1
  O2-  O471  1  0.91774208  0.33060229  0.18983012  1
  O2-  O472  1  0.91519978  0.33370072  0.52862767  1
  O2-  O473  1  0.92783239  0.33442610  0.85165211  1
  O2-  O474  1  0.91942561  0.59161744  0.18219992  1
  O2-  O475  1  0.90454051  0.56661201  0.52781492  1
  O2-  O476  1  0.89940306  0.55760988  0.85997077  1
  O2-  O477  1  0.91340098  0.82640986  0.18380732  1
  O2-  O478  1  0.89661808  0.81923416  0.52802959  1
  O2-  O479  1  0.96053817  0.92723706  0.87809544  1
  O2-  O480  1  0.18683624  0.09174023  0.27738624  1
  O2-  O481  1  0.15517126  0.07532860  0.66844117  1
  O2-  O482  1  0.16476177  0.11536219  1.00142693  1
  O2-  O483  1  0.15097080  0.31453622  0.30979956  1
  O2-  O484  1  0.15435583  0.32187932  0.66243262  1
  O2-  O485  1  0.17552843  0.32075019  0.97125946  1
  O2-  O486  1  0.22986754  0.53122882  0.29484769  1
  O2-  O487  1  0.17124291  0.58018835  0.65249249  1
  O2-  O488  1  0.16779822  0.60979704  0.97435109  1
  O2-  O489  1  0.16092845  0.83687668  0.32321681  1
  O2-  O490  1  0.17204751  0.83884845  0.64736783  1
  O2-  O491  1  0.17325604  0.84721149  0.97881275  1
  O2-  O492  1  0.42530205  0.08078245  0.30928243  1
  O2-  O493  1  0.43171920  0.09018284  0.66918942  1
  O2-  O494  1  0.41674152  0.07971271  0.98281974  1
  O2-  O495  1  0.42567475  0.33553416  0.30745422  1
  O2-  O496  1  0.41585355  0.33659153  0.64330276  1
  O2-  O497  1  0.42315431  0.33789660  0.97863614  1
  O2-  O498  1  0.43162078  0.59099261  0.31244689  1
  O2-  O499  1  0.41372637  0.58040886  0.66476739  1
  O2-  O500  1  0.41936539  0.56274858  0.96379283  1
  O2-  O501  1  0.41185664  0.83244357  0.32040887  1
  O2-  O502  1  0.42702797  0.83726038  0.64468326  1
  O2-  O503  1  0.42247575  0.81968296  0.97727966  1
  O2-  O504  1  0.65981386  0.08263290  0.30871081  1
  O2-  O505  1  0.67458182  0.08339010  0.64798888  1
  O2-  O506  1  0.66411459  0.07821477  0.99248195  1
  O2-  O507  1  0.68695041  0.34648771  0.31705793  1
  O2-  O508  1  0.67452064  0.34413609  0.64656302  1
  O2-  O509  1  0.66305564  0.33081001  0.97711808  1
  O2-  O510  1  0.66704528  0.58958014  0.30519875  1
  O2-  O511  1  0.64208507  0.57721156  0.63721524  1
  O2-  O512  1  0.66105602  0.58368590  0.97974173  1
  O2-  O513  1  0.66786756  0.83847619  0.31262617  1
  O2-  O514  1  0.66490750  0.83130129  0.64157736  1
  O2-  O515  1  0.66169558  0.82994993  1.00829937  1
  O2-  O516  1  0.96956740  0.02697406  0.29703152  1
  O2-  O517  1  0.90646974  0.06332332  0.63905284  1
  O2-  O518  1  0.93213487  0.08630223  1.00481888  1
  O2-  O519  1  0.90542675  0.33806123  0.31800119  1
  O2-  O520  1  0.94224049  0.31000684  0.64988818  1
  O2-  O521  1  0.93710127  0.35151198  0.97811118  1
  O2-  O522  1  0.90092049  0.58713651  0.30919031  1
  O2-  O523  1  0.92801961  0.57974593  0.64834732  1
  O2-  O524  1  0.92029505  0.59320339  0.96841006  1
  O2-  O525  1  0.90460035  0.81171772  0.30485324  1
  O2-  O526  1  0.89668006  0.81958421  0.64950323  1
  O2-  O527  1  0.92173351  0.85285783  0.98482008  1
  O2-  O528  1  0.08030524  0.19166569  0.06185280  1
  O2-  O529  1  0.12232443  0.15858551  0.35647337  1
  O2-  O530  1  0.06173327  0.15244483  0.68727141  1
  O2-  O531  1  0.08534881  0.39873173  0.03207068  1
  O2-  O532  1  0.07463727  0.40459002  0.35313986  1
  O2-  O533  1  0.15743318  0.45167083  0.73542618  1
  O2-  O534  1  0.07858294  0.68009254  0.01084800  1
  O2-  O535  1  0.05501224  0.69327323  0.36814473  1
  O2-  O536  1  0.09826142  0.67740367  0.68013472  1
  O2-  O537  1  0.08862302  0.92426249  0.02877426  1
  O2-  O538  1  0.06301865  0.89305120  0.35799385  1
  O2-  O539  1  0.06192530  0.88949299  0.67800624  1
  O2-  O540  1  0.34905201  0.17785531  0.01678559  1
  O2-  O541  1  0.34322233  0.16915070  0.34102063  1
  O2-  O542  1  0.33807092  0.17579082  0.68171294  1
  O2-  O543  1  0.33387865  0.40672846  0.02459752  1
  O2-  O544  1  0.32603636  0.40951264  0.31389794  1
  O2-  O545  1  0.32322124  0.40707576  0.68122571  1
  O2-  O546  1  0.33149477  0.65356672  0.01418143  1
  O2-  O547  1  0.30736752  0.67878126  0.37658509  1
  O2-  O548  1  0.34006918  0.66510413  0.63546905  1
  O2-  O549  1  0.33428084  0.90943749  0.01491386  1
  O2-  O550  1  0.33201079  0.91903507  0.35626025  1
  O2-  O551  1  0.33675708  0.90916244  0.69026581  1
  O2-  O552  1  0.58475574  0.16718285  0.02103528  1
  O2-  O553  1  0.59203125  0.17834305  0.35181482  1
  O2-  O554  1  0.60423379  0.17106468  0.67606914  1
  O2-  O555  1  0.58639947  0.42192759  0.01870462  1
  O2-  O556  1  0.60048445  0.42189545  0.34660279  1
  O2-  O557  1  0.57954730  0.41618228  0.68627170  1
  O2-  O558  1  0.58084404  0.66834460  0.04069643  1
  O2-  O559  1  0.59892112  0.67908585  0.35478912  1
  O2-  O560  1  0.57615393  0.66770612  0.68108035  1
  O2-  O561  1  0.59995432  0.92912892  0.06401591  1
  O2-  O562  1  0.58233139  0.91752871  0.34970295  1
  O2-  O563  1  0.58958597  0.91614950  0.68746202  1
  O2-  O564  1  0.84299234  0.17980893  -0.00444982  1
  O2-  O565  1  0.82245273  0.18427027  0.36194618  1
  O2-  O566  1  0.82162027  0.15737473  0.70202354  1
  O2-  O567  1  0.82052858  0.46180075  0.02903568  1
  O2-  O568  1  0.85086840  0.43205133  0.37020071  1
  O2-  O569  1  0.83636192  0.41760270  0.69934331  1
  O2-  O570  1  0.83748651  0.67769672  0.01005422  1
  O2-  O571  1  0.81938710  0.66206798  0.36240846  1
  O2-  O572  1  0.81618914  0.65121368  0.65560635  1
  O2-  O573  1  0.82366089  0.91226934  0.02647144  1
  O2-  O574  1  0.82876440  0.89445380  0.35602306  1
  O2-  O575  1  0.82501043  0.91467313  0.68359227  1
