# generated using pymatgen
data_H2O
_symmetry_space_group_name_H-M   'P 1'
_cell_length_a   17.98486457
_cell_length_b   17.98421112
_cell_length_c   21.97771001
_cell_angle_alpha   89.99389936
_cell_angle_beta   90.02433270
_cell_angle_gamma   119.98632514
_symmetry_Int_Tables_number   1
_chemical_formula_structural   H2O
_chemical_formula_sum   'H384 O192'
_cell_volume   6157.03213011
_cell_formula_units_Z   192
loop_
 _symmetry_equiv_pos_site_id
 _symmetry_equiv_pos_as_xyz
  1  'x, y, z'
loop_
 _atom_type_symbol
 _atom_type_oxidation_number
  H+  1.0
  O2-  -2.0
loop_
 _atom_site_type_symbol
 _atom_site_label
 _atom_site_symmetry_multiplicity
 _atom_site_fract_x
 _atom_site_fract_y
 _atom_site_fract_z
 _atom_site_occupancy
  H+  H0  1  0.64349264  0.61261853  0.84909090  1
  H+  H1  1  0.86168210  0.64002855  0.67123679  1
  H+  H2  1  -0.03241187  0.39158905  0.17924692  1
  H+  H3  1  0.36398402  0.37847721  0.49029780  1
  H+  H4  1  0.22555096  0.34446454  0.50902215  1
  H+  H5  1  0.16497433  0.52779234  0.49550353  1
  H+  H6  1  0.71580062  0.35953231  0.17078797  1
  H+  H7  1  0.13484740  0.77746306  0.96156426  1
  H+  H8  1  0.61436944  0.13102687  0.82631701  1
  H+  H9  1  1.01637173  0.13809525  1.00187646  1
  H+  H10  1  0.02324354  0.89240711  0.68679927  1
  H+  H11  1  0.14569215  0.62908744  0.16862602  1
  H+  H12  1  0.63038530  0.77349066  0.33067907  1
  H+  H13  1  0.58200574  0.58068250  0.48162469  1
  H+  H14  1  0.51718343  0.13175935  0.15710026  1
  H+  H15  1  0.14814765  0.62264432  0.33180803  1
  H+  H16  1  0.85723219  0.88641038  0.67566025  1
  H+  H17  1  0.88617023  0.77639010  0.66710579  1
  H+  H18  1  0.10666829  0.64090732  0.84013437  1
  H+  H19  1  0.77159962  0.12700536  0.15346202  1
  H+  H20  1  0.62218066  0.13872995  1.01012150  1
  H+  H21  1  0.48529357  0.60767673  0.15576987  1
  H+  H22  1  0.87394665  0.86638728  0.50707503  1
  H+  H23  1  0.85107153  0.39296029  0.16553629  1
  H+  H24  1  0.71847816  0.85174066  0.18048375  1
  H+  H25  1  0.72514041  0.11514870  -0.00698373  1
  H+  H26  1  0.16058264  0.57196288  0.59308548  1
  H+  H27  1  0.14283121  0.86877691  0.31951731  1
  H+  H28  1  0.10463463  -0.03684248  0.15317509  1
  H+  H29  1  0.86907187  0.89485385  0.82643848  1
  H+  H30  1  0.27539938  0.89065387  0.84771198  1
  H+  H31  1  0.36965076  0.73164906  0.17301802  1
  H+  H32  1  0.38550955  0.61278725  -0.00182082  1
  H+  H33  1  0.88265485  0.77086871  0.32540323  1
  H+  H34  1  0.14073620  0.76271438  0.51163314  1
  H+  H35  1  0.37520188  1.01899744  -0.00808717  1
  H+  H36  1  0.77119933  0.88496595  0.33806201  1
  H+  H37  1  0.37241935  0.51199835  0.33994276  1
  H+  H38  1  0.48629204  0.38066359  0.99165757  1
  H+  H39  1  0.42157906  0.07131343  0.25824685  1
  H+  H40  1  0.40429439  0.28251851  0.50205515  1
  H+  H41  1  0.86767673  0.51701719  0.15898876  1
  H+  H42  1  0.11609578  0.39292458  0.83091602  1
  H+  H43  1  0.63596427  0.61612264  0.65800135  1
  H+  H44  1  0.61448790  0.48147403  0.16522073  1
  H+  H45  1  0.13067198  0.52574241  0.01234880  1
  H+  H46  1  0.26513544  0.63079239  0.35226033  1
  H+  H47  1  0.09732076  0.87718392  -0.00803168  1
  H+  H48  1  0.60663547  0.38773198  0.33403633  1
  H+  H49  1  0.60446793  0.72440752  0.66989541  1
  H+  H50  1  0.76853667  0.38249287  0.00657951  1
  H+  H51  1  0.37660283  0.01968080  0.67209626  1
  H+  H52  1  0.37073066  0.14298618  0.67273469  1
  H+  H53  1  0.52435908  0.62772627  1.00821069  1
  H+  H54  1  0.05326450  0.66992038  0.35184957  1
  H+  H55  1  0.83668139  0.21423969  0.49943506  1
  H+  H56  1  0.72697888  0.88072061  1.00172858  1
  H+  H57  1  0.91679799  0.58659867  0.55935816  1
  H+  H58  1  0.33818631  0.89587058  0.44114833  1
  H+  H59  1  0.67102260  0.58620151  0.56510112  1
  H+  H60  1  0.63713849  0.48845359  0.01691026  1
  H+  H61  1  0.87427060  0.26457594  0.66623277  1
  H+  H62  1  0.60027515  0.43169178  0.78170356  1
  H+  H63  1  0.61116484  0.48086881  0.67331771  1
  H+  H64  1  0.58785314  0.16520202  0.07816548  1
  H+  H65  1  0.38797184  0.28376266  0.31915950  1
  H+  H66  1  0.85949698  0.97465888  0.33634709  1
  H+  H67  1  0.36884771  0.39631930  0.83466945  1
  H+  H68  1  0.62967709  0.86496035  0.65790266  1
  H+  H69  1  0.72737124  0.11808942  0.32640527  1
  H+  H70  1  0.10430771  0.38049986  0.67499889  1
  H+  H71  1  0.37146529  0.64340770  0.16450132  1
  H+  H72  1  0.37079319  0.73305180  0.63535454  1
  H+  H73  1  0.88587931  0.38890520  0.83523934  1
  H+  H74  1  0.82686486  0.15759325  0.06232759  1
  H+  H75  1  0.61558088  0.70486011  0.52843183  1
  H+  H76  1  0.37824309  0.76749626  0.83052703  1
  H+  H77  1  0.52293104  0.12972067  0.32403103  1
  H+  H78  1  0.60928771  -0.01743754  1.00058949  1
  H+  H79  1  0.85667541  0.86883321  0.16990295  1
  H+  H80  1  0.65407840  0.27159276  0.81730333  1
  H+  H81  1  0.74838270  0.63128994  0.16674981  1
  H+  H82  1  0.11686760  0.86828118  0.48945050  1
  H+  H83  1  0.85882675  0.72456416  0.15895998  1
  H+  H84  1  0.36899012  0.62772244  0.49598272  1
  H+  H85  1  0.88312233  0.52553831  0.50065532  1
  H+  H86  1  0.33161628  0.16661564  0.25797674  1
  H+  H87  1  0.35016773  0.46021247  0.49027458  1
  H+  H88  1  0.87141151  0.64385152  0.49027973  1
  H+  H89  1  0.13847838  0.28125953  0.84405898  1
  H+  H90  1  0.86724264  0.72745836  0.82815833  1
  H+  H91  1  0.85806799  0.22487083  0.00481122  1
  H+  H92  1  0.45841712  0.57781434  0.49426477  1
  H+  H93  1  0.58098956  0.42330683  0.43246278  1
  H+  H94  1  0.45175346  0.19894869  0.45613639  1
  H+  H95  1  0.71481838  0.34873150  0.32563033  1
  H+  H96  1  0.88773527  0.11951025  0.82999110  1
  H+  H97  1  0.61333249  0.72515238  0.15873081  1
  H+  H98  1  0.48132070  0.11344591  0.83974362  1
  H+  H99  1  0.88467738  0.36050023  0.99360051  1
  H+  H100  1  0.35084452  0.67847654  0.73951455  1
  H+  H101  1  0.52612317  0.90014739  0.34176392  1
  H+  H102  1  0.82956526  0.92198278  0.43006385  1
  H+  H103  1  0.38791715  0.25059317  0.82826309  1
  H+  H104  1  0.35551867  0.18634489  0.73190454  1
  H+  H105  1  0.63439380  0.48221459  0.84417335  1
  H+  H106  1  0.65025537  0.71930267  0.50428367  1
  H+  H107  1  0.62660023  0.10862547  0.65703476  1
  H+  H108  1  0.21754452  0.09744783  0.90109811  1
  H+  H109  1  0.22181838  0.36301063  -0.00342850  1
  H+  H110  1  0.36057763  0.87988367  1.00098343  1
  H+  H111  1  0.88086362  0.48446104  0.83515783  1
  H+  H112  1  0.25010302  0.34620189  0.17178306  1
  H+  H113  1  0.09089706  0.96169459  -0.00554737  1
  H+  H114  1  0.23621579  0.09811958  0.51981911  1
  H+  H115  1  0.52073931  0.88628033  0.99844025  1
  H+  H116  1  0.60905076  0.90341893  0.50034137  1
  H+  H117  1  0.12701110  0.86253712  0.66713800  1
  H+  H118  1  0.27942602  0.39529291  0.83658579  1
  H+  H119  1  0.15838817  0.78962552  0.32638041  1
  H+  H120  1  0.35977318  0.38460689  0.33775723  1
  H+  H121  1  0.97323670  0.85033278  0.16999069  1
  H+  H122  1  0.11737921  0.47885136  0.32795203  1
  H+  H123  1  0.88138609  0.00950400  0.17621496  1
  H+  H124  1  0.38085850  0.08848004  0.50996008  1
  H+  H125  1  0.00626474  0.14038639  0.49219939  1
  H+  H126  1  0.21263058  0.61183315  0.86592741  1
  H+  H127  1  0.77111399  0.90396879  0.49036936  1
  H+  H128  1  0.11140893  0.14073751  0.84321812  1
  H+  H129  1  1.03605802  0.42535327  0.50558126  1
  H+  H130  1  0.37138921  0.85761644  0.18957952  1
  H+  H131  1  0.60519109  0.22463316  0.16055440  1
  H+  H132  1  0.60837215  0.71661620  0.82376739  1
  H+  H133  1  0.56188757  0.17233392  0.42678347  1
  H+  H134  1  0.39683188  0.12042576  0.83696941  1
  H+  H135  1  0.41591913  0.82474093  0.93122244  1
  H+  H136  1  0.11563073  0.97777723  0.68717372  1
  H+  H137  1  0.61620955  0.88934558  0.16058942  1
  H+  H138  1  0.64362482  0.80974408  0.51152610  1
  H+  H139  1  0.37823514  0.85605881  0.84075311  1
  H+  H140  1  0.50715055  0.13446477  0.48808517  1
  H+  H141  1  0.61566603  0.23193232  0.32496331  1
  H+  H142  1  0.71127293  0.77624715  0.88469458  1
  H+  H143  1  0.35443192  0.62388866  0.35632203  1
  H+  H144  1  0.32885348  0.10737756  1.00125222  1
  H+  H145  1  0.20445623  0.09209135  0.99118337  1
  H+  H146  1  0.38412109  0.85405476  0.51997371  1
  H+  H147  1  0.26167978  0.38284672  0.66140668  1
  H+  H148  1  0.62249038  1.01626786  0.65223130  1
  H+  H149  1  0.09065630  0.40531416  0.18246400  1
  H+  H150  1  0.38393606  0.61153082  0.64750853  1
  H+  H151  1  0.85702994  0.13175763  0.33873742  1
  H+  H152  1  0.09626500  0.12448880  0.33659019  1
  H+  H153  1  0.02268249  0.85479020  0.48262192  1
  H+  H154  1  0.87430170  0.60560718  0.99767158  1
  H+  H155  1  0.10237225  0.63428022  0.04610848  1
  H+  H156  1  0.39399942  0.61573484  0.83539538  1
  H+  H157  1  0.11000322  0.38797466  0.01313428  1
  H+  H158  1  0.88485847  0.02267490  0.66294262  1
  H+  H159  1  0.23487149  0.62851993  0.17343047  1
  H+  H160  1  0.37539409  0.45552481  0.15342162  1
  H+  H161  1  0.41447012  0.58487808  0.93766417  1
  H+  H162  1  0.16737897  0.82883122  0.56790617  1
  H+  H163  1  0.63142598  0.01801343  0.83780444  1
  H+  H164  1  0.85483794  0.12945170  0.67391939  1
  H+  H165  1  0.62794901  0.36157315  0.17400484  1
  H+  H166  1  0.16055703  0.32616989  0.60043422  1
  H+  H167  1  0.84727465  0.38606276  0.49334365  1
  H+  H168  1  0.27164663  0.64174663  0.01709239  1
  H+  H169  1  0.60219886  0.21684243  0.67958362  1
  H+  H170  1  1.02862108  0.38700216  0.33367350  1
  H+  H171  1  0.84298420  0.12742192  0.49936112  1
  H+  H172  1  0.62276843  0.02514897  0.50958849  1
  H+  H173  1  0.96965654  0.09864038  0.17125148  1
  H+  H174  1  0.95810616  0.84758344  0.99272930  1
  H+  H175  1  0.61401581  -0.01293141  0.34313292  1
  H+  H176  1  0.10726386  0.72873786  0.84469951  1
  H+  H177  1  0.12463857  0.09446178  0.16568180  1
  H+  H178  1  0.10886727  0.97493330  0.85319055  1
  H+  H179  1  0.38786724  0.52413495  0.84387434  1
  H+  H180  1  0.12802480  0.01340502  0.32222645  1
  H+  H181  1  0.12996616  0.26376219  0.50765240  1
  H+  H182  1  0.96801352  0.60568780  0.65342672  1
  H+  H183  1  0.86627192  0.98357059  0.82609139  1
  H+  H184  1  0.72602816  0.61769921  0.66139227  1
  H+  H185  1  0.39000047  0.77195987  0.99441694  1
  H+  H186  1  0.34484764  0.21738918  0.15540947  1
  H+  H187  1  0.11600622  0.49997237  0.16474409  1
  H+  H188  1  0.76163640  0.38553878  0.49538878  1
  H+  H189  1  0.38020847  0.10285143  0.16839932  1
  H+  H190  1  0.11859911  0.13901298  0.67880699  1
  H+  H191  1  0.44197884  0.56620946  0.21578185  1
  H+  H192  1  0.85378007  0.87508394  0.01072646  1
  H+  H193  1  0.29824830  0.16558733  0.81688407  1
  H+  H194  1  0.79603378  0.65128284  1.05576949  1
  H+  H195  1  0.36445801  0.97761969  0.83737348  1
  H+  H196  1  0.39369103  0.37192382  0.98900196  1
  H+  H197  1  0.96676861  0.91123771  0.52965029  1
  H+  H198  1  0.28196331  0.61547354  0.78385029  1
  H+  H199  1  0.25809082  0.12440271  0.16182609  1
  H+  H200  1  0.26660964  0.89099315  0.68349949  1
  H+  H201  1  0.38176816  0.00009340  0.51288204  1
  H+  H202  1  0.87753765  0.02731938  0.50603668  1
  H+  H203  1  0.35635930  0.88377568  0.32905138  1
  H+  H204  1  0.16411341  0.40648170  0.47979906  1
  H+  H205  1  0.26582236  0.87909469  0.15549832  1
  H+  H206  1  0.61588464  0.47746753  0.49316180  1
  H+  H207  1  0.47084508  0.60719332  0.65551631  1
  H+  H208  1  0.37602601  0.72256400  0.50174827  1
  H+  H209  1  0.62153608  0.13474735  0.32826180  1
  H+  H210  1  0.51952850  0.63437164  0.33433008  1
  H+  H211  1  0.91390856  0.83759685  0.60891301  1
  H+  H212  1  0.27973572  0.89759451  0.34048947  1
  H+  H213  1  0.24143058  0.12046011  0.67498964  1
  H+  H214  1  0.37842525  0.36780576  0.15769087  1
  H+  H215  1  0.35867817  0.38329196  0.65773448  1
  H+  H216  1  0.08779558  0.98223315  0.50789570  1
  H+  H217  1  0.88904517  0.27322329  0.33129899  1
  H+  H218  1  0.38131539  0.01404170  0.16593404  1
  H+  H219  1  0.48375821  0.86855963  0.51952600  1
  H+  H220  1  0.10262207  0.46737473  0.67211908  1
  H+  H221  1  0.85934746  0.22628032  0.82573175  1
  H+  H222  1  0.12965134  0.63074027  0.69735586  1
  H+  H223  1  0.88397181  0.86105075  0.32402601  1
  H+  H224  1  0.21527972  0.10289457  0.31366387  1
  H+  H225  1  0.13668644  0.86744662  0.87074365  1
  H+  H226  1  0.23785978  0.37149189  0.32783837  1
  H+  H227  1  0.02527709  0.14130270  0.82905116  1
  H+  H228  1  0.97899440  0.61567542  0.84608133  1
  H+  H229  1  0.52134024  0.39425595  0.33308509  1
  H+  H230  1  0.81439567  0.40783019  0.39956168  1
  H+  H231  1  0.25228828  0.14211502  0.53350737  1
  H+  H232  1  0.52038705  0.39488251  0.67416240  1
  H+  H233  1  0.37674149  0.57045261  0.28455440  1
  H+  H234  1  0.83814260  0.45737222  0.33506975  1
  H+  H235  1  0.01979415  0.87931879  0.33386367  1
  H+  H236  1  0.88524050  0.35945595  0.33610868  1
  H+  H237  1  0.12860728  0.52269495  0.85081293  1
  H+  H238  1  0.74303596  0.86067984  0.84744536  1
  H+  H239  1  0.61562413  0.23036625  1.01487874  1
  H+  H240  1  0.11302378  0.20792940  0.15790754  1
  H+  H241  1  0.72586810  0.61604813  0.32385633  1
  H+  H242  1  0.10076321  0.71974541  0.14056951  1
  H+  H243  1  0.64372878  0.62739312  0.16951716  1
  H+  H244  1  0.85530363  0.63072634  0.33445077  1
  H+  H245  1  0.85250430  0.38721708  0.65470907  1
  H+  H246  1  0.73667097  0.62152240  0.84579895  1
  H+  H247  1  0.86602092  0.63728354  0.82982755  1
  H+  H248  1  0.59508483  0.88109206  0.80790002  1
  H+  H249  1  0.23502167  0.62050460  0.51098732  1
  H+  H250  1  0.28058917  0.64602290  0.65026322  1
  H+  H251  1  0.86921611  0.73185207  0.49118844  1
  H+  H252  1  0.62897697  0.88924792  0.99491304  1
  H+  H253  1  0.37111377  0.77103340  0.28964989  1
  H+  H254  1  0.41057446  0.57093436  0.55916792  1
  H+  H255  1  0.02631340  0.62993073  0.49391433  1
  H+  H256  1  0.63059994  0.36528296  1.00848218  1
  H+  H257  1  0.63660022  0.52626378  0.31884894  1
  H+  H258  1  0.02026868  0.42749134  0.47398835  1
  H+  H259  1  0.59012106  0.92229515  0.10178612  1
  H+  H260  1  0.94801738  0.57435826  0.30484702  1
  H+  H261  1  0.85098923  0.62944803  0.15308398  1
  H+  H262  1  0.97432694  0.86356585  0.84644459  1
  H+  H263  1  0.27396431  0.86518789  0.49924786  1
  H+  H264  1  0.15090049  0.58977648  0.95808563  1
  H+  H265  1  0.39550163  1.01980478  0.32288267  1
  H+  H266  1  0.79180583  0.38804911  0.81709708  1
  H+  H267  1  0.96668855  0.10725000  0.32713613  1
  H+  H268  1  0.16493377  0.34797333  0.16145607  1
  H+  H269  1  0.72320077  0.11292896  0.50825651  1
  H+  H270  1  0.51976084  0.62885317  0.82679479  1
  H+  H271  1  0.62549235  0.27110577  0.50782083  1
  H+  H272  1  0.97426236  0.36179345  0.99734725  1
  H+  H273  1  0.38431163  0.27941499  0.65498406  1
  H+  H274  1  0.13649385  0.27200457  0.66331029  1
  H+  H275  1  0.63654620  0.11064320  0.17526788  1
  H+  H276  1  0.35850556  0.47928784  0.65926268  1
  H+  H277  1  0.60982000  0.63677699  0.33069065  1
  H+  H278  1  0.67165793  0.33240730  0.73016787  1
  H+  H279  1  0.07801266  0.11661565  0.49375460  1
  H+  H280  1  0.13162678  0.27465309  -0.00408312  1
  H+  H281  1  0.50777051  0.88029482  0.81831304  1
  H+  H282  1  0.93729518  0.34216251  0.51433181  1
  H+  H283  1  0.76388291  0.12683684  0.67199806  1
  H+  H284  1  0.63362061  0.86436873  0.33185270  1
  H+  H285  1  0.87828229  0.12203105  0.98744922  1
  H+  H286  1  0.35807853  0.47418346  0.00657967  1
  H+  H287  1  0.13818322  0.43580136  0.41909200  1
  H+  H288  1  0.07881036  0.02077399  0.57088255  1
  H+  H289  1  0.95875816  0.60651473  0.15671015  1
  H+  H290  1  0.86384756  0.76185431  0.99016213  1
  H+  H291  1  0.82106297  0.41038432  0.09992899  1
  H+  H292  1  0.89013133  0.56640967  0.25003921  1
  H+  H293  1  0.72108455  0.86702373  0.66216386  1
  H+  H294  1  0.64460584  0.32597285  0.94783273  1
  H+  H295  1  0.33389655  0.40659725  0.06161355  1
  H+  H296  1  0.07210324  0.90319904  0.09370984  1
  H+  H297  1  0.48581995  0.37560177  0.50384726  1
  H+  H298  1  0.08334943  0.42102393  0.77140994  1
  H+  H299  1  0.08216385  0.90489924  0.39188893  1
  H+  H300  1  0.88451682  0.31496334  0.57492314  1
  H+  H301  1  0.65976638  0.36522468  0.82452405  1
  H+  H302  1  0.91651030  0.58005586  0.90440243  1
  H+  H303  1  0.12862586  0.85216313  0.16393414  1
  H+  H304  1  0.82579190  0.16551755  0.76634228  1
  H+  H305  1  0.10537193  0.67737581  0.41071763  1
  H+  H306  1  0.44445848  0.28371219  0.19529173  1
  H+  H307  1  0.90500351  0.82988865  0.89962207  1
  H+  H308  1  0.87230332  0.96443305  0.03906675  1
  H+  H309  1  0.55487302  0.61386903  0.42321161  1
  H+  H310  1  0.67421658  0.84628057  0.93701138  1
  H+  H311  1  0.96397538  0.61197348  1.01378526  1
  H+  H312  1  0.67549071  0.59736513  0.23345008  1
  H+  H313  1  0.18061750  0.60065358  0.27002231  1
  H+  H314  1  0.16178313  0.82401508  0.22223098  1
  H+  H315  1  0.91648466  0.82206926  0.23243857  1
  H+  H316  1  0.14237698  0.37437917  0.31721198  1
  H+  H317  1  0.36571667  0.13160065  0.30898895  1
  H+  H318  1  0.06800812  0.15567480  0.39545422  1
  H+  H319  1  0.63777057  0.02177762  0.17522020  1
  H+  H320  1  0.65238860  0.33697470  0.56169022  1
  H+  H321  1  0.32488986  0.40379655  0.40205254  1
  H+  H322  1  0.51159454  0.88135889  0.64408621  1
  H+  H323  1  0.97403971  0.11197723  0.66348027  1
  H+  H324  1  0.07778050  0.41660240  0.07263932  1
  H+  H325  1  0.70649074  0.60431246  0.94751437  1
  H+  H326  1  0.76409304  0.38853897  0.66043516  1
  H+  H327  1  0.08808896  0.16748324  0.73762337  1
  H+  H328  1  0.27227762  0.87983168  -0.00401470  1
  H+  H329  1  0.81781727  0.89130068  0.11274625  1
  H+  H330  1  0.19454133  0.09466516  0.61363553  1
  H+  H331  1  0.42270087  0.34414101  0.26119658  1
  H+  H332  1  0.87610778  0.52151778  0.64589074  1
  H+  H333  1  0.65872252  0.08343501  0.57473340  1
  H+  H334  1  0.65294603  0.82455076  0.23554743  1
  H+  H335  1  0.90683470  0.07809534  0.26735580  1
  H+  H336  1  0.66206846  0.08521358  0.93432194  1
  H+  H337  1  0.57571040  0.66258816  0.72836920  1
  H+  H338  1  0.11523802  0.62643904  0.49662529  1
  H+  H339  1  0.85624742  0.12006160  0.15075537  1
  H+  H340  1  0.49012501  0.37363446  0.84474370  1
  H+  H341  1  0.91234871  0.35097142  0.23923876  1
  H+  H342  1  0.65757542  0.32381176  0.26273909  1
  H+  H343  1  0.42735491  0.34273926  0.90227783  1
  H+  H344  1  0.62488421  0.36061621  0.68317279  1
  H+  H345  1  0.66704106  0.08510187  0.26504809  1
  H+  H346  1  0.16310564  0.33888968  0.90405438  1
  H+  H347  1  0.59127913  0.66672540  0.09582909  1
  H+  H348  1  0.91839593  0.09598884  0.89100902  1
  H+  H349  1  0.32239426  0.91842857  0.74420595  1
  H+  H350  1  0.92178412  0.33489892  0.90227314  1
  H+  H351  1  0.96370690  0.35383989  0.66316069  1
  H+  H352  1  0.33877146  0.67543453  0.07137529  1
  H+  H353  1  0.98385322  0.36626698  0.84237042  1
  H+  H354  1  0.09087061  0.92442894  0.78929433  1
  H+  H355  1  0.51378768  0.12568990  0.67334162  1
  H+  H356  1  0.67160226  0.86187747  0.57193780  1
  H+  H357  1  0.72909040  0.61615761  0.50462153  1
  H+  H358  1  0.82374992  0.15944862  0.39806795  1
  H+  H359  1  0.40502814  0.08176331  0.93514074  1
  H+  H360  1  0.55342903  0.90736267  0.71249075  1
  H+  H361  1  0.32958864  0.90622468  0.09935346  1
  H+  H362  1  0.07686287  0.15543918  0.09594018  1
  H+  H363  1  0.33023201  0.66177827  0.42081273  1
  H+  H364  1  0.61696509  0.63364460  0.00892868  1
  H+  H365  1  0.87144516  0.03225723  0.97176302  1
  H+  H366  1  0.72283484  0.10590442  0.83988994  1
  H+  H367  1  0.82789364  0.91853369  0.73356455  1
  H+  H368  1  0.58041313  0.15392283  0.76529257  1
  H+  H369  1  0.41531008  0.33832286  0.59399213  1
  H+  H370  1  0.15086808  0.06531713  0.22747190  1
  H+  H371  1  0.40813999  0.07021660  0.60823179  1
  H+  H372  1  0.18218557  0.33724317  0.26051761  1
  H+  H373  1  0.10107279  0.13131229  -0.00211183  1
  H+  H374  1  0.85784921  0.47129577  0.00784554  1
  H+  H375  1  0.12970211  0.77593949  0.66372337  1
  H+  H376  1  0.59022380  0.42712449  0.07407539  1
  H+  H377  1  0.90650576  0.08393473  0.56782075  1
  H+  H378  1  0.83416435  0.66571637  0.39592555  1
  H+  H379  1  0.56949774  0.92419580  0.44061319  1
  H+  H380  1  0.83413699  0.66687121  0.73329672  1
  H+  H381  1  0.52217301  0.39169840  0.16755875  1
  H+  H382  1  0.36193187  0.17586884  0.42691386  1
  H+  H383  1  0.29648185  0.13603368  0.06059638  1
  O2-  O384  1  0.07658653  0.14961800  0.14138934  1
  O2-  O385  1  0.06651928  0.16149295  0.47845891  1
  O2-  O386  1  0.08822637  0.17024704  0.81876817  1
  O2-  O387  1  0.07942789  0.43792851  0.15215539  1
  O2-  O388  1  0.17599365  0.45741965  0.45491715  1
  O2-  O389  1  0.08467110  0.42330490  0.81693290  1
  O2-  O390  1  0.07000762  0.65712577  0.12789392  1
  O2-  O391  1  0.08879974  0.66119158  0.48232149  1
  O2-  O392  1  0.07724401  0.67167715  0.82527510  1
  O2-  O393  1  0.07311623  0.90188908  0.13894559  1
  O2-  O394  1  0.08278825  0.89335759  0.47113896  1
  O2-  O395  1  0.08482844  0.91746110  0.83426096  1
  O2-  O396  1  0.32073206  0.15513225  0.14946806  1
  O2-  O397  1  0.39274977  0.18828959  0.46539905  1
  O2-  O398  1  0.35928771  0.19016074  0.80879362  1
  O2-  O399  1  0.34369026  0.39405670  0.14177767  1
  O2-  O400  1  0.32532917  0.40018435  0.47467105  1
  O2-  O401  1  0.33967005  0.42837708  0.82236516  1
  O2-  O402  1  0.34113937  0.67421552  0.15244923  1
  O2-  O403  1  0.34217351  0.66484298  0.48315144  1
  O2-  O404  1  0.33980346  0.66517062  0.78405875  1
  O2-  O405  1  0.32821671  0.90939242  0.14462963  1
  O2-  O406  1  0.33630907  0.89235045  0.48643578  1
  O2-  O407  1  0.33111480  0.91504349  0.82640307  1
  O2-  O408  1  0.57917972  0.16438444  0.14407165  1
  O2-  O409  1  0.54237395  0.18772951  0.46393583  1
  O2-  O410  1  0.58699867  0.16376985  0.81046125  1
  O2-  O411  1  0.58412503  0.42220687  0.14962408  1
  O2-  O412  1  0.57953619  0.41807017  0.47720715  1
  O2-  O413  1  0.60557810  0.42348625  0.82571206  1
  O2-  O414  1  0.59081576  0.66497219  0.14257113  1
  O2-  O415  1  0.53175242  0.57412406  0.45816894  1
  O2-  O416  1  0.57959253  0.65700352  0.80884024  1
  O2-  O417  1  0.59356819  0.92662987  0.14628223  1
  O2-  O418  1  0.56969402  0.92561775  0.48632270  1
  O2-  O419  1  0.56651164  0.91389099  0.79915034  1
  O2-  O420  1  0.82682371  0.14853255  0.13179539  1
  O2-  O421  1  0.80817050  0.15344802  0.48324847  1
  O2-  O422  1  0.82783325  0.16549860  0.81206798  1
  O2-  O423  1  0.81639310  0.41687722  0.14472423  1
  O2-  O424  1  0.82065148  0.41837343  0.47634709  1
  O2-  O425  1  0.85770304  0.42369778  0.81702091  1
  O2-  O426  1  0.82064203  0.66332223  0.14260845  1
  O2-  O427  1  0.84043930  0.67342573  0.47423507  1
  O2-  O428  1  0.83565574  0.66662073  0.81356024  1
  O2-  O429  1  0.82335650  0.89746427  0.15742873  1
  O2-  O430  1  0.83080509  0.92565652  0.47583173  1
  O2-  O431  1  0.83459921  0.92180678  0.81301026  1
  O2-  O432  1  0.15602319  0.06554404  0.18181569  1
  O2-  O433  1  0.06101970  0.01284884  0.52839115  1
  O2-  O434  1  0.15501428  0.07355526  0.90337945  1
  O2-  O435  1  0.18828031  0.32047664  0.18740481  1
  O2-  O436  1  0.16595665  0.32300522  0.52461536  1
  O2-  O437  1  0.16574754  0.34163673  0.85847803  1
  O2-  O438  1  0.17448400  0.60125470  0.18932412  1
  O2-  O439  1  0.17321073  0.58047295  0.51858509  1
  O2-  O440  1  0.15055519  0.58002850  0.87142750  1
  O2-  O441  1  0.15783298  0.81974859  0.17708452  1
  O2-  O442  1  0.17229497  0.82530025  0.52281070  1
  O2-  O443  1  0.16724620  0.83612704  0.88426427  1
  O2-  O444  1  0.41339389  0.07489855  0.18178190  1
  O2-  O445  1  0.41098120  0.06041879  0.52782038  1
  O2-  O446  1  0.42029779  0.08493122  0.85351836  1
  O2-  O447  1  0.43246395  0.33091764  0.19473829  1
  O2-  O448  1  0.42346499  0.34061511  0.51897611  1
  O2-  O449  1  0.42835656  0.34220755  0.85552361  1
  O2-  O450  1  0.42618881  0.57261610  0.17447952  1
  O2-  O451  1  0.40241387  0.56766243  0.51411817  1
  O2-  O452  1  0.42135000  0.58758323  0.85689737  1
  O2-  O453  1  0.39785479  0.82817829  0.21263114  1
  O2-  O454  1  0.42138605  0.82723148  0.53479989  1
  O2-  O455  1  0.40946274  0.82408829  0.85085824  1
  O2-  O456  1  0.66705616  0.08251385  0.19255403  1
  O2-  O457  1  0.65962410  0.08539207  0.52612865  1
  O2-  O458  1  0.66290635  0.07617067  0.85646801  1
  O2-  O459  1  0.65535176  0.32728819  0.18738925  1
  O2-  O460  1  0.67501964  0.31244444  0.53265807  1
  O2-  O461  1  0.69209159  0.33560912  0.81245586  1
  O2-  O462  1  0.67797398  0.59936497  0.18658877  1
  O2-  O463  1  0.66945430  0.58204549  0.51975602  1
  O2-  O464  1  0.68029289  0.59226157  0.86808252  1
  O2-  O465  1  0.65581105  0.82261980  0.19021294  1
  O2-  O466  1  0.67071051  0.86941322  0.52583534  1
  O2-  O467  1  0.69145867  0.81518770  0.87101698  1
  O2-  O468  1  0.91005144  0.07132686  0.18738992  1
  O2-  O469  1  0.90240108  0.08708599  0.52258248  1
  O2-  O470  1  0.91963206  0.09080205  0.84581259  1
  O2-  O471  1  0.90860694  0.36109862  0.19533369  1
  O2-  O472  1  0.87784713  0.31114745  0.52898229  1
  O2-  O473  1  0.92190617  0.33676153  0.85626822  1
  O2-  O474  1  0.89919617  0.57971600  0.17310229  1
  O2-  O475  1  0.91962798  0.58686955  0.51370339  1
  O2-  O476  1  0.91628312  0.57820781  0.85922180  1
  O2-  O477  1  0.91295616  0.81824809  0.18665242  1
  O2-  O478  1  0.91617612  0.85223232  0.52599676  1
  O2-  O479  1  0.91111854  0.83339953  0.85437473  1
  O2-  O480  1  0.15316576  0.07235570  0.30429069  1
  O2-  O481  1  0.18105637  0.08815459  0.65711788  1
  O2-  O482  1  0.14037546  0.06606112  0.97056668  1
  O2-  O483  1  0.17834461  0.34547958  0.30590478  1
  O2-  O484  1  0.16461787  0.33176730  0.64635061  1
  O2-  O485  1  0.16028151  0.33597316  0.98302770  1
  O2-  O486  1  0.17756326  0.59207079  0.31523469  1
  O2-  O487  1  0.16389665  0.57420426  0.63951444  1
  O2-  O488  1  0.15777154  0.58856864  1.00264419  1
  O2-  O489  1  0.18060801  0.84563338  0.30568313  1
  O2-  O490  1  0.15671380  0.83409954  0.64734688  1
  O2-  O491  1  0.16531732  0.83931387  0.95210226  1
  O2-  O492  1  0.42714308  0.07868754  0.30392438  1
  O2-  O493  1  0.41004125  0.07941744  0.65295130  1
  O2-  O494  1  0.39537920  0.07905823  0.97968266  1
  O2-  O495  1  0.41632711  0.34544672  0.30898589  1
  O2-  O496  1  0.40954855  0.33986332  0.63982981  1
  O2-  O497  1  0.42885359  0.34757605  0.97329074  1
  O2-  O498  1  0.39751332  0.57432972  0.32612236  1
  O2-  O499  1  0.41077269  0.57505593  0.63874525  1
  O2-  O500  1  0.41418013  0.58122647  0.98305524  1
  O2-  O501  1  0.34898782  0.80538761  0.27063939  1
  O2-  O502  1  0.42203997  0.82813859  0.60325799  1
  O2-  O503  1  0.42152963  0.83139434  0.97643009  1
  O2-  O504  1  0.66550817  0.08878359  0.31169428  1
  O2-  O505  1  0.65730155  0.07871327  0.63983027  1
  O2-  O506  1  0.66234298  0.08624539  0.98012981  1
  O2-  O507  1  0.65404485  0.31751055  0.30873439  1
  O2-  O508  1  0.65611729  0.32750012  0.68645354  1
  O2-  O509  1  0.65437748  0.32782209  0.99160735  1
  O2-  O510  1  0.66740993  0.58788837  0.30451419  1
  O2-  O511  1  0.66664897  0.58578890  0.64424898  1
  O2-  O512  1  0.70570503  0.60343086  0.99344059  1
  O2-  O513  1  0.66183510  0.83380257  0.31493984  1
  O2-  O514  1  0.66243239  0.83686381  0.64329347  1
  O2-  O515  1  0.66973962  0.85853711  0.98148018  1
  O2-  O516  1  0.90432584  0.07786518  0.31277585  1
  O2-  O517  1  0.91432842  0.08328472  0.64749191  1
  O2-  O518  1  0.91104502  0.09389408  0.96932958  1
  O2-  O519  1  0.92061214  0.33541001  0.32008624  1
  O2-  O520  1  0.90297533  0.32389757  0.64893422  1
  O2-  O521  1  0.91562653  0.33083830  0.97854184  1
  O2-  O522  1  0.88968330  0.56112738  0.29574741  1
  O2-  O523  1  0.91060613  0.58677451  0.63751981  1
  O2-  O524  1  0.91140924  0.58095257  0.98849080  1
  O2-  O525  1  0.91447868  0.83065011  0.30898488  1
  O2-  O526  1  0.91654292  0.83838487  0.65407590  1
  O2-  O527  1  0.89677037  0.82373361  0.97911315  1
  O2-  O528  1  0.07597302  0.16393329  0.01764284  1
  O2-  O529  1  0.06428639  0.15289092  0.35048188  1
  O2-  O530  1  0.08611142  0.16733483  0.69224025  1
  O2-  O531  1  0.07801849  0.41722038  0.02746437  1
  O2-  O532  1  0.09287676  0.41726579  0.33913593  1
  O2-  O533  1  0.07325152  0.40931612  0.69090479  1
  O2-  O534  1  0.06818721  0.66137548  0.06012833  1
  O2-  O535  1  0.11102146  0.68491732  0.36448544  1
  O2-  O536  1  0.11746516  0.62181307  0.65364281  1
  O2-  O537  1  0.06407247  0.90141634  0.01073272  1
  O2-  O538  1  0.08154830  0.90939320  0.34674581  1
  O2-  O539  1  0.08302156  0.91826795  0.70310226  1
  O2-  O540  1  0.28722809  0.12638406  0.01652581  1
  O2-  O541  1  0.33317983  0.16251155  0.30240145  1
  O2-  O542  1  0.34437318  0.17820758  0.68701431  1
  O2-  O543  1  0.32733752  0.41164316  0.01719265  1
  O2-  O544  1  0.32553939  0.41069561  0.35566186  1
  O2-  O545  1  0.32670404  0.41536142  0.67173321  1
  O2-  O546  1  0.33443413  0.67163437  0.02617582  1
  O2-  O547  1  0.32547465  0.65700364  0.37133693  1
  O2-  O548  1  0.34295368  0.67672772  0.65950956  1
  O2-  O549  1  0.32796910  0.90686664  0.01737011  1
  O2-  O550  1  0.34010096  0.91852469  0.35498033  1
  O2-  O551  1  0.32551933  0.92497449  0.69939398  1
  O2-  O552  1  0.59282835  0.16912810  0.03000902  1
  O2-  O553  1  0.58522105  0.16497202  0.34029924  1
  O2-  O554  1  0.57565234  0.15359187  0.68688607  1
  O2-  O555  1  0.59782298  0.42802218  0.02854367  1
  O2-  O556  1  0.58315129  0.42478198  0.34619750  1
  O2-  O557  1  0.57856444  0.42268939  0.69245119  1
  O2-  O558  1  0.58402415  0.65974502  0.02449319  1
  O2-  O559  1  0.57950329  0.66540586  0.34868079  1
  O2-  O560  1  0.57430102  0.66318771  0.68286276  1
  O2-  O561  1  0.58311569  0.92027579  0.01303040  1
  O2-  O562  1  0.58221156  0.92801882  0.36160298  1
  O2-  O563  1  0.56717583  0.91245983  0.66847724  1
  O2-  O564  1  0.82571826  0.16237253  0.01538142  1
  O2-  O565  1  0.82676403  0.16342531  0.35305254  1
  O2-  O566  1  0.82289873  0.15808788  0.68923925  1
  O2-  O567  1  0.82891456  0.40992802  0.02089959  1
  O2-  O568  1  0.81257903  0.39968825  0.35391084  1
  O2-  O569  1  0.82634853  0.42416432  0.65192002  1
  O2-  O570  1  0.79860714  0.65006060  0.01046953  1
  O2-  O571  1  0.82956313  0.66438206  0.35034368  1
  O2-  O572  1  0.83281996  0.67082349  0.68803479  1
  O2-  O573  1  0.82559422  0.90689364  0.02935340  1
  O2-  O574  1  0.83200375  0.91396198  0.35234472  1
  O2-  O575  1  0.82641808  0.91752145  0.68812303  1
