# generated using pymatgen
data_H2O
_symmetry_space_group_name_H-M   'P 1'
_cell_length_a   17.99300653
_cell_length_b   17.99054558
_cell_length_c   22.00957917
_cell_angle_alpha   90.01904697
_cell_angle_beta   89.99233165
_cell_angle_gamma   119.99740215
_symmetry_Int_Tables_number   1
_chemical_formula_structural   H2O
_chemical_formula_sum   'H384 O192'
_cell_volume   6170.23614928
_cell_formula_units_Z   192
loop_
 _symmetry_equiv_pos_site_id
 _symmetry_equiv_pos_as_xyz
  1  'x, y, z'
loop_
 _atom_type_symbol
 _atom_type_oxidation_number
  H+  1.0
  O2-  -2.0
loop_
 _atom_site_type_symbol
 _atom_site_label
 _atom_site_symmetry_multiplicity
 _atom_site_fract_x
 _atom_site_fract_y
 _atom_site_fract_z
 _atom_site_occupancy
  H+  H0  1  0.10378617  0.64480252  0.66428493  1
  H+  H1  1  0.41074127  0.82962951  0.27044595  1
  H+  H2  1  0.07461779  0.63563444  0.07155050  1
  H+  H3  1  0.66879029  0.52217917  0.99031493  1
  H+  H4  1  0.47677282  0.11382017  0.17633105  1
  H+  H5  1  0.88998537  0.09959140  0.32909182  1
  H+  H6  1  0.62676534  0.72270545  0.80515216  1
  H+  H7  1  0.88310758  0.26821390  0.81548189  1
  H+  H8  1  0.23115451  0.37036585  0.84071802  1
  H+  H9  1  0.36160145  0.38492161  0.49747011  1
  H+  H10  1  0.88707473  0.52008336  0.50552539  1
  H+  H11  1  0.88230830  0.52307441  0.65730806  1
  H+  H12  1  0.15436491  0.62013185  0.57413158  1
  H+  H13  1  0.90693992  0.50098848  0.32262161  1
  H+  H14  1  0.73283009  0.10906845  0.17085782  1
  H+  H15  1  0.61373214  0.72468613  0.16753294  1
  H+  H16  1  0.56277955  0.39053567  -0.02603576  1
  H+  H17  1  0.31986254  0.61094223  0.66275443  1
  H+  H18  1  0.11047925  0.71982015  0.16193441  1
  H+  H19  1  0.72481803  0.61871277  0.17313452  1
  H+  H20  1  0.38702914  0.79056641  -0.00831077  1
  H+  H21  1  0.63219457  0.37077813  0.99831652  1
  H+  H22  1  0.96928420  0.10089456  0.17616396  1
  H+  H23  1  0.34199304  0.62403133  0.82595741  1
  H+  H24  1  0.28773824  0.65087305  0.00610548  1
  H+  H25  1  0.57885396  0.54640126  0.30887682  1
  H+  H26  1  0.38461841  0.52506070  0.84125395  1
  H+  H27  1  0.03818615  0.14092124  0.67560392  1
  H+  H28  1  0.36629947  -0.01259048  0.81942832  1
  H+  H29  1  0.62897725  0.51830250  0.48584726  1
  H+  H30  1  0.86470671  0.12466031  0.15731101  1
  H+  H31  1  0.21392948  0.61454020  0.83704727  1
  H+  H32  1  0.38046746  0.54285257  0.17313521  1
  H+  H33  1  -0.00178556  0.13412099  0.00485126  1
  H+  H34  1  0.02150894  0.62950107  0.16185875  1
  H+  H35  1  0.74389224  0.90281045  0.65363097  1
  H+  H36  1  0.26331415  0.14313528  0.49284935  1
  H+  H37  1  0.88469330  0.64861597  0.31019219  1
  H+  H38  1  0.41310180  0.85504136  0.89762111  1
  H+  H39  1  0.47915016  0.12353336  0.84177455  1
  H+  H40  1  0.87904105  0.65087092  0.67988006  1
  H+  H41  1  0.14589547  0.27811427  0.66010305  1
  H+  H42  1  0.11895540  0.48000939  1.00773397  1
  H+  H43  1  0.98203257  0.57986503  0.99697489  1
  H+  H44  1  0.61350413  0.12994070  0.34389653  1
  H+  H45  1  0.77054692  0.39329768  0.81882843  1
  H+  H46  1  0.34418068  0.22533658  0.01092319  1
  H+  H47  1  0.35474699  0.22807926  0.49744108  1
  H+  H48  1  0.13039949  0.85915940  0.17934123  1
  H+  H49  1  0.36067934  0.22206064  0.16180184  1
  H+  H50  1  0.63575679  0.72097893  0.65223529  1
  H+  H51  1  0.11386897  0.13623538  0.34733681  1
  H+  H52  1  0.13008162  0.11780455  0.45441250  1
  H+  H53  1  0.12244489  0.53944456  0.61852185  1
  H+  H54  1  0.38439571  0.53368176  0.99896025  1
  H+  H55  1  0.88029987  0.36543977  0.65762326  1
  H+  H56  1  0.38725753  0.78134600  0.17619456  1
  H+  H57  1  0.07382606  0.15236792  0.10555756  1
  H+  H58  1  0.12210092  0.39274452  0.34233247  1
  H+  H59  1  0.73153679  0.11196942  0.33183014  1
  H+  H60  1  0.94426190  0.73344801  0.13639588  1
  H+  H61  1  0.20830819  0.11619145  1.00051406  1
  H+  H62  1  0.72168618  0.86526812  0.32406618  1
  H+  H63  1  0.89673600  0.31655959  0.60253902  1
  H+  H64  1  0.66752719  0.74399602  0.62720941  1
  H+  H65  1  0.58614109  0.85316577  0.85801573  1
  H+  H66  1  0.60602322  0.73307604  0.02424930  1
  H+  H67  1  0.24555602  0.63276381  0.65913386  1
  H+  H68  1  0.87472245  0.44695566  -0.00765908  1
  H+  H69  1  0.46928880  0.36041818  0.50907389  1
  H+  H70  1  0.27917973  0.14426959  0.68416196  1
  H+  H71  1  0.36139878  0.39033112  0.82957838  1
  H+  H72  1  0.84668863  0.39742225  0.08513236  1
  H+  H73  1  0.59323858  0.73473111  0.33588422  1
  H+  H74  1  0.22088866  0.86185220  0.17402067  1
  H+  H75  1  0.98470461  0.36084529  0.99154628  1
  H+  H76  1  0.71522360  0.63667218  0.34696121  1
  H+  H77  1  0.84965709  0.88897407  0.16244061  1
  H+  H78  1  0.43029371  0.49003069  0.32088772  1
  H+  H79  1  0.51588485  0.57570741  0.67931081  1
  H+  H80  1  0.27154700  0.39766576  0.16365359  1
  H+  H81  1  0.76690716  0.38318988  0.66675243  1
  H+  H82  1  0.14326304  0.36057955  0.63638167  1
  H+  H83  1  0.14384502  0.12201554  0.66886283  1
  H+  H84  1  0.47622779  0.34408018  0.33310113  1
  H+  H85  1  0.14554294  0.52465154  0.33035229  1
  H+  H86  1  0.58018087  0.92174253  0.76839202  1
  H+  H87  1  0.38914508  0.52533171  0.50324027  1
  H+  H88  1  0.85918126  0.91364446  1.00811375  1
  H+  H89  1  0.62117235  0.11036454  0.50457753  1
  H+  H90  1  0.73208064  0.61930048  0.83904242  1
  H+  H91  1  0.75953808  0.14931144  0.53305388  1
  H+  H92  1  0.61539978  0.89441019  0.48960412  1
  H+  H93  1  0.47264884  0.88062343  0.83879279  1
  H+  H94  1  0.88098471  0.23364614  0.67417459  1
  H+  H95  1  0.86739411  0.64409915  0.83378700  1
  H+  H96  1  0.88272263  0.98411229  0.67163800  1
  H+  H97  1  0.37373715  0.76374517  0.67036784  1
  H+  H98  1  1.09619880  0.45545697  0.17003727  1
  H+  H99  1  0.63906936  0.58158125  0.65786188  1
  H+  H100  1  0.85743684  0.38789575  0.81488633  1
  H+  H101  1  0.09347841  0.12127884  0.00073647  1
  H+  H102  1  0.60794722  0.64613708  0.48810123  1
  H+  H103  1  0.88219923  0.78740436  0.19174803  1
  H+  H104  1  0.12748015  0.77802983  0.65793175  1
  H+  H105  1  0.46706819  0.45719206  0.23342081  1
  H+  H106  1  0.50111972  0.58832210  0.31201591  1
  H+  H107  1  0.10494336  0.12461768  0.16481970  1
  H+  H108  1  0.10089041  -0.02356391  1.02316172  1
  H+  H109  1  0.77828838  0.89461273  0.49285970  1
  H+  H110  1  0.91385290  0.26141734  0.98531450  1
  H+  H111  1  0.61168370  -0.01432028  0.82677666  1
  H+  H112  1  0.63239733  0.27900861  0.82970017  1
  H+  H113  1  0.76786740  0.87668556  0.87298256  1
  H+  H114  1  0.47243691  0.62385016  0.17821738  1
  H+  H115  1  0.22692803  0.27693127  0.96487599  1
  H+  H116  1  0.90757426  0.03558050  0.84397699  1
  H+  H117  1  0.27672290  0.39088299  0.49040348  1
  H+  H118  1  -0.01479696  0.36023234  0.33342963  1
  H+  H119  1  0.61706085  0.22534622  0.16612557  1
  H+  H120  1  0.34923119  0.62035741  0.48453267  1
  H+  H121  1  0.97439167  0.34238329  0.17704988  1
  H+  H122  1  0.11762061  0.72305332  0.34174155  1
  H+  H123  1  0.01828160  0.39736889  0.64330654  1
  H+  H124  1  0.10995083  0.63642585  0.82375978  1
  H+  H125  1  0.88633773  0.59975490  0.16635558  1
  H+  H126  1  0.92193387  0.33688373  0.76417421  1
  H+  H127  1  0.77812917  0.36533507  0.13706173  1
  H+  H128  1  0.94537863  0.08542602  0.60313160  1
  H+  H129  1  0.89103652  0.84718101  0.24855104  1
  H+  H130  1  0.51154696  0.87224551  0.68059072  1
  H+  H131  1  0.13524922  0.86120915  0.50244019  1
  H+  H132  1  1.03877867  0.62623936  0.33875815  1
  H+  H133  1  0.11467555  0.88968473  0.66075196  1
  H+  H134  1  0.88399608  0.50897946  0.15871626  1
  H+  H135  1  0.14703813  0.61526162  0.33214471  1
  H+  H136  1  0.82110061  0.15225972  0.63954178  1
  H+  H137  1  0.63803014  0.02290183  0.99883001  1
  H+  H138  1  0.36144964  0.72866547  0.34189103  1
  H+  H139  1  0.91646627  1.02305596  0.51086429  1
  H+  H140  1  0.11694957  0.23344657  0.82995048  1
  H+  H141  1  0.60557482  0.38393237  0.49835298  1
  H+  H142  1  0.63518449  0.87157124  0.32512484  1
  H+  H143  1  0.62120110  0.48474297  0.15023448  1
  H+  H144  1  0.92012167  0.68632747  0.32716156  1
  H+  H145  1  0.11884346  -0.01455194  0.66513794  1
  H+  H146  1  0.45290322  0.35718512  1.01463685  1
  H+  H147  1  0.60234955  0.89394955  0.01755636  1
  H+  H148  1  0.61262502  0.46441764  0.65784219  1
  H+  H149  1  0.90997955  0.08801220  0.90449980  1
  H+  H150  1  0.86593836  0.21275336  0.15119596  1
  H+  H151  1  0.12412719  0.81044723  0.99781141  1
  H+  H152  1  0.52125834  0.64846260  0.49542705  1
  H+  H153  1  0.23200496  0.36243002  0.33094012  1
  H+  H154  1  0.05747044  0.20650141  0.42556366  1
  H+  H155  1  0.63183081  0.35837205  0.65876875  1
  H+  H156  1  0.47108896  0.11258369  1.00009876  1
  H+  H157  1  0.71423372  0.87528841  1.00285080  1
  H+  H158  1  0.51634966  0.89115481  0.16829672  1
  H+  H159  1  0.22875001  0.10971535  0.33383191  1
  H+  H160  1  0.61445557  0.12561868  0.01573298  1
  H+  H161  1  1.02647992  0.14690728  0.83277525  1
  H+  H162  1  0.60363450  0.22543066  0.49457190  1
  H+  H163  1  0.63600676  0.37101048  0.17202517  1
  H+  H164  1  0.87353882  0.35582580  0.99287874  1
  H+  H165  1  0.72386415  0.39394777  0.20259305  1
  H+  H166  1  0.88325612  0.69237777  -0.00417518  1
  H+  H167  1  0.84555232  0.37057451  0.49791400  1
  H+  H168  1  0.88976947  0.61048329  0.50581902  1
  H+  H169  1  0.38232801  0.52007093  0.66539607  1
  H+  H170  1  0.75898519  0.88660778  0.15966136  1
  H+  H171  1  0.61629192  0.21371308  0.01768146  1
  H+  H172  1  0.91268960  0.90823140  0.82731783  1
  H+  H173  1  0.33696404  0.17625804  0.77653418  1
  H+  H174  1  0.01959668  0.38482964  0.83215619  1
  H+  H175  1  0.37602039  0.37476001  0.00625984  1
  H+  H176  1  0.36979592  0.41563160  0.16456328  1
  H+  H177  1  0.09616644  0.67334915  1.00468893  1
  H+  H178  1  0.87586448  0.22248661  0.34411497  1
  H+  H179  1  0.35446412  0.97635182  0.16041414  1
  H+  H180  1  0.47593718  0.10656694  0.32844814  1
  H+  H181  1  0.00872521  0.89677288  0.02273110  1
  H+  H182  1  0.61573765  0.14768624  0.82806365  1
  H+  H183  1  0.62730555  0.86159100  0.17149049  1
  H+  H184  1  0.52027326  0.64418422  1.01860327  1
  H+  H185  1  0.72543967  0.11910875  0.84107593  1
  H+  H186  1  0.37954055  0.02474583  0.66015065  1
  H+  H187  1  0.64749744  0.11584795  0.17803461  1
  H+  H188  1  0.68742537  0.09659827  0.65579688  1
  H+  H189  1  0.84448593  0.15891317  0.40061674  1
  H+  H190  1  0.86083260  0.13382186  0.82709063  1
  H+  H191  1  0.36590304  0.14598156  0.83561983  1
  H+  H192  1  0.23122266  0.86610133  0.32671605  1
  H+  H193  1  0.27461097  0.39177791  0.67422764  1
  H+  H194  1  0.17904260  0.34144888  0.23400806  1
  H+  H195  1  0.89063938  0.78105595  0.50975806  1
  H+  H196  1  0.23097985  0.91524444  0.90779766  1
  H+  H197  1  0.13615849  0.77155802  0.50577108  1
  H+  H198  1  0.88940524  0.87020256  0.50441726  1
  H+  H199  1  0.77750882  0.63968101  0.50394692  1
  H+  H200  1  0.71745577  0.36026243  0.50642032  1
  H+  H201  1  0.36652002  0.14322932  0.68026675  1
  H+  H202  1  0.43722785  0.62510268  0.67336697  1
  H+  H203  1  0.90143633  0.87879205  0.65669101  1
  H+  H204  1  0.34969078  0.88988730  0.00861170  1
  H+  H205  1  0.58822365  0.96740554  0.67430722  1
  H+  H206  1  0.61239248  0.36938340  0.34607276  1
  H+  H207  1  0.22522801  0.11096825  0.18047450  1
  H+  H208  1  0.05269167  0.49734612  0.03751558  1
  H+  H209  1  0.98972890  0.86511279  0.85540763  1
  H+  H210  1  0.26754973  0.63325767  0.33689176  1
  H+  H211  1  0.22964687  0.12214702  0.84814828  1
  H+  H212  1  0.12473865  0.89740173  0.84470785  1
  H+  H213  1  0.02291502  0.12962498  0.34011238  1
  H+  H214  1  0.27142747  0.89003420  0.66898169  1
  H+  H215  1  0.49391238  0.40902062  0.18419168  1
  H+  H216  1  0.74774468  0.83347227  0.85788172  1
  H+  H217  1  0.36991904  0.65858038  0.16317298  1
  H+  H218  1  0.64246363  0.78825694  0.50786432  1
  H+  H219  1  0.11940519  0.59127039  0.17767732  1
  H+  H220  1  0.13170846  0.88745000  0.33411419  1
  H+  H221  1  0.68179611  0.59929857  0.44350120  1
  H+  H222  1  0.63394818  0.25796706  0.33397846  1
  H+  H223  1  0.73374357  0.10247772  0.99297347  1
  H+  H224  1  0.47138936  0.88154807  0.99517233  1
  H+  H225  1  0.78087954  0.64827886  1.00395722  1
  H+  H226  1  0.61949385  0.63805600  0.83367840  1
  H+  H227  1  0.14165597  0.35998945  0.17431494  1
  H+  H228  1  0.87308641  0.80065393  0.00135972  1
  H+  H229  1  0.07001774  -0.08222749  0.11682700  1
  H+  H230  1  0.33190988  0.41941203  0.76885200  1
  H+  H231  1  0.60977679  -0.02322374  0.33905876  1
  H+  H232  1  0.63080648  0.26926932  0.66056065  1
  H+  H233  1  0.14054038  0.27725116  0.32985237  1
  H+  H234  1  0.47144048  0.61472584  0.84056010  1
  H+  H235  1  0.59197974  0.13259197  0.67281627  1
  H+  H236  1  0.27450712  0.39541559  0.01507786  1
  H+  H237  1  0.36154866  0.21388045  0.34042818  1
  H+  H238  1  0.91165639  0.11987913  0.65967214  1
  H+  H239  1  0.82544351  0.79631237  0.34633931  1
  H+  H240  1  0.13990847  0.12144435  0.84466214  1
  H+  H241  1  0.55852356  0.75502975  0.87072116  1
  H+  H242  1  0.65376415  0.90106452  0.65409305  1
  H+  H243  1  0.33933684  0.41098182  0.39989439  1
  H+  H244  1  0.36750063  0.89862795  0.82270047  1
  H+  H245  1  0.03181743  0.63767469  0.49729752  1
  H+  H246  1  0.12114261  0.33240293  0.49646557  1
  H+  H247  1  0.41890465  0.08971799  0.90081490  1
  H+  H248  1  0.12881906  -0.01478508  0.33655339  1
  H+  H249  1  0.77561531  0.37109580  0.34332688  1
  H+  H250  1  0.87550972  0.01649436  0.17703621  1
  H+  H251  1  0.38403033  0.86939139  0.18002270  1
  H+  H252  1  0.63291413  0.07159650  0.59513321  1
  H+  H253  1  0.10457962  0.21831935  0.99811618  1
  H+  H254  1  0.60731324  0.45594458  0.33954468  1
  H+  H255  1  0.02137339  0.88816766  0.48468924  1
  H+  H256  1  0.52064291  0.39819444  0.82291223  1
  H+  H257  1  0.01566883  0.89131826  0.65685111  1
  H+  H258  1  0.27237728  0.88846659  0.49344598  1
  H+  H259  1  0.35950825  0.36422421  0.34575243  1
  H+  H260  1  0.36367387  0.39189234  0.67564587  1
  H+  H261  1  0.37662901  0.11134967  0.50788725  1
  H+  H262  1  0.07143346  0.40710596  0.10703678  1
  H+  H263  1  0.10531268  0.97943209  0.48014677  1
  H+  H264  1  0.86161914  0.14356535  0.05778632  1
  H+  H265  1  0.88884036  0.57139937  0.99491737  1
  H+  H266  1  0.88880049  0.52485245  0.83447904  1
  H+  H267  1  0.14072698  0.36827863  0.85399069  1
  H+  H268  1  0.38599908  0.10537228  0.33064399  1
  H+  H269  1  0.34721333  0.97562061  0.01071499  1
  H+  H270  1  1.01838447  0.89517798  0.18008856  1
  H+  H271  1  0.37516509  0.76482565  0.49073648  1
  H+  H272  1  0.12082401  0.53139858  0.84802758  1
  H+  H273  1  1.01234444  0.63793531  0.67115723  1
  H+  H274  1  0.37805785  0.66024952  0.00842121  1
  H+  H275  1  0.62702275  0.02294920  0.50349505  1
  H+  H276  1  0.60688325  0.39485015  0.81556429  1
  H+  H277  1  0.24816466  0.58074589  0.46855164  1
  H+  H278  1  0.88783932  0.74324771  0.67942701  1
  H+  H279  1  0.74845109  0.34386430  0.98796582  1
  H+  H280  1  0.38042595  0.02402045  0.50680731  1
  H+  H281  1  0.47103130  0.85784910  0.32979434  1
  H+  H282  1  0.52078990  0.88414656  0.48585672  1
  H+  H283  1  0.38512248  0.11890915  -0.00410840  1
  H+  H284  1  0.50862393  0.14062819  0.67655032  1
  H+  H285  1  1.01307581  0.63127421  0.82196164  1
  H+  H286  1  0.64053438  0.53070508  0.83546597  1
  H+  H287  1  0.47351528  0.36469031  0.65800276  1
  H+  H288  1  0.91532515  0.58330402  0.59858317  1
  H+  H289  1  0.16794713  0.08331738  0.27422687  1
  H+  H290  1  0.34552186  0.69301769  0.10378689  1
  H+  H291  1  0.09499502  0.66649266  0.44131662  1
  H+  H292  1  0.18348977  0.57764392  0.92863547  1
  H+  H293  1  0.63624416  0.83241011  0.95380696  1
  H+  H294  1  0.09414328  0.17341077  0.73686629  1
  H+  H295  1  0.23958079  0.53658555  0.94604133  1
  H+  H296  1  0.41351185  0.58512153  0.56156674  1
  H+  H297  1  0.33092836  0.92183147  0.72833653  1
  H+  H298  1  0.82763045  0.15199380  0.76451628  1
  H+  H299  1  0.81174618  0.66591004  0.35091770  1
  H+  H300  1  0.83881503  0.91888397  0.43439571  1
  H+  H301  1  0.15188431  0.56539368  0.23710649  1
  H+  H302  1  0.40879876  0.08696582  0.60213020  1
  H+  H303  1  0.13977219  0.78908365  0.93231037  1
  H+  H304  1  0.61009045  -0.02341559  0.16755043  1
  H+  H305  1  0.32173343  0.91539646  0.10162453  1
  H+  H306  1  0.11145632  0.44251916  0.39992762  1
  H+  H307  1  0.33090212  0.91937759  0.43381906  1
  H+  H308  1  0.91404286  0.85504723  0.94145098  1
  H+  H309  1  0.38639857  0.27981104  0.84683636  1
  H+  H310  1  0.16100055  0.83395254  0.59619288  1
  H+  H311  1  0.58631855  0.16138779  0.10941449  1
  H+  H312  1  0.93473191  0.55524289  0.26089896  1
  H+  H313  1  0.86964764  0.96626437  0.33338237  1
  H+  H314  1  0.38253145  0.85629326  0.49417279  1
  H+  H315  1  0.68135448  0.86412719  0.55995352  1
  H+  H316  1  0.57824985  0.15870473  0.40215288  1
  H+  H317  1  0.97801686  0.12541750  0.50643904  1
  H+  H318  1  0.91722807  0.07317942  0.26734775  1
  H+  H319  1  0.58096389  0.91774413  0.39846704  1
  H+  H320  1  0.41439562  0.34276342  0.90436084  1
  H+  H321  1  0.66204619  0.83788938  0.23108842  1
  H+  H322  1  0.82779310  0.41843422  0.72547280  1
  H+  H323  1  0.38435523  0.27753548  0.66434312  1
  H+  H324  1  0.68507020  0.58289301  0.93281789  1
  H+  H325  1  0.40981267  0.33214058  0.56913279  1
  H+  H326  1  0.56318879  0.68031953  0.39677090  1
  H+  H327  1  0.66021755  0.32995277  0.56686089  1
  H+  H328  1  0.65387779  0.56382552  0.26399524  1
  H+  H329  1  0.88722957  0.34391071  0.17556765  1
  H+  H330  1  0.16832206  0.83501977  0.26701629  1
  H+  H331  1  0.57314310  0.40303497  0.43607339  1
  H+  H332  1  0.58626723  0.41602359  0.09570886  1
  H+  H333  1  0.36535397  0.13595165  0.16262052  1
  H+  H334  1  0.56815652  0.61055613  0.74078473  1
  H+  H335  1  0.63410103  0.61693909  0.17133636  1
  H+  H336  1  0.18219485  0.10209330  0.60957169  1
  H+  H337  1  0.10285421  0.44250421  0.68280098  1
  H+  H338  1  0.58077345  0.66541653  0.10806618  1
  H+  H339  1  0.66172332  0.57364148  0.59014559  1
  H+  H340  1  0.67621948  0.08670240  0.27091055  1
  H+  H341  1  0.33241786  0.43065959  0.07651583  1
  H+  H342  1  0.41608327  0.58941892  0.93754510  1
  H+  H343  1  0.38221824  0.85576963  0.66624775  1
  H+  H344  1  0.30335577  0.64212577  0.76558007  1
  H+  H345  1  0.51293620  0.13703082  0.49465199  1
  H+  H346  1  0.84790341  0.68232299  0.77481424  1
  H+  H347  1  0.08336575  0.09124309  0.51579913  1
  H+  H348  1  0.33071604  0.16037039  0.40253297  1
  H+  H349  1  0.31966126  0.16255087  0.06769861  1
  H+  H350  1  0.41509545  0.08339418  0.23422101  1
  H+  H351  1  0.10152581  0.42808686  0.79169638  1
  H+  H352  1  0.15533561  0.08613444  0.93769963  1
  H+  H353  1  0.13606874  0.02177925  0.18448015  1
  H+  H354  1  0.57858129  0.41901325  0.72242634  1
  H+  H355  1  0.09523255  0.43216794  0.53265738  1
  H+  H356  1  0.97596775  0.98668923  0.78786776  1
  H+  H357  1  0.68127677  0.27598116  0.94105277  1
  H+  H358  1  0.82695786  0.93434871  0.07134557  1
  H+  H359  1  0.07555196  0.66320142  0.75718346  1
  H+  H360  1  0.36016907  0.88101508  0.34069767  1
  H+  H361  1  0.92735909  0.57675360  0.89643459  1
  H+  H362  1  0.92907995  0.84831918  0.59382575  1
  H+  H363  1  0.09094914  0.91662106  0.39616728  1
  H+  H364  1  0.65960311  0.31858217  0.27540241  1
  H+  H365  1  0.86184155  0.69466746  0.09661683  1
  H+  H366  1  0.36353802  -0.02780487  0.33787837  1
  H+  H367  1  0.57957533  0.17128402  0.76779689  1
  H+  H368  1  0.91067241  0.27024583  0.50773121  1
  H+  H369  1  0.82955763  0.67749527  0.44611079  1
  H+  H370  1  0.86834359  0.02963342  1.00830998  1
  H+  H371  1  0.11516903  -0.02041008  0.84103467  1
  H+  H372  1  0.86409072  0.36883125  0.34588075  1
  H+  H373  1  0.24794454  0.88482944  0.84591504  1
  H+  H374  1  0.66085057  0.34845241  0.88354231  1
  H+  H375  1  0.42168756  0.33524752  0.27406892  1
  H+  H376  1  0.57276621  0.92812547  0.07362252  1
  H+  H377  1  0.82969656  0.40512121  0.43591115  1
  H+  H378  1  0.86156476  0.92616405  0.73004341  1
  H+  H379  1  0.17941053  0.31621631  0.92851624  1
  H+  H380  1  0.89468735  0.78005857  0.85124571  1
  H+  H381  1  0.92384313  0.32247704  0.27437157  1
  H+  H382  1  0.32440540  0.65638205  0.40375934  1
  H+  H383  1  0.66791513  0.08979013  0.90139820  1
  O2-  O384  1  0.06368691  0.14121271  0.14897757  1
  O2-  O385  1  0.03562305  0.22322840  0.46167961  1
  O2-  O386  1  0.08586428  0.17238777  0.81613718  1
  O2-  O387  1  0.07150698  0.39586750  0.15098035  1
  O2-  O388  1  0.14581567  0.43599901  0.51293091  1
  O2-  O389  1  0.08404433  0.42085592  0.83422957  1
  O2-  O390  1  0.08140552  0.65993630  0.14613498  1
  O2-  O391  1  0.09346285  0.67116960  0.48632842  1
  O2-  O392  1  0.07499019  0.66236750  0.80437039  1
  O2-  O393  1  0.07638054  0.91723961  0.16246168  1
  O2-  O394  1  0.08177546  0.91839003  0.46836406  1
  O2-  O395  1  0.08587026  0.91795787  0.83014099  1
  O2-  O396  1  0.33120761  0.16306365  0.14694666  1
  O2-  O397  1  0.32380060  0.16742366  0.48138593  1
  O2-  O398  1  0.33471245  0.17649614  0.82209121  1
  O2-  O399  1  0.33219051  0.43383649  0.14442806  1
  O2-  O400  1  0.33717230  0.41936767  0.47881858  1
  O2-  O401  1  0.33025007  0.41991848  0.81461012  1
  O2-  O402  1  0.34395721  0.69373667  0.14863691  1
  O2-  O403  1  0.30794263  0.63599210  0.46647874  1
  O2-  O404  1  0.30011448  0.63982804  0.81041711  1
  O2-  O405  1  0.32248806  0.91531420  0.14770758  1
  O2-  O406  1  0.33300351  0.92173230  0.47913142  1
  O2-  O407  1  0.33467645  0.92716458  0.80465042  1
  O2-  O408  1  0.58699085  0.16420175  0.15501041  1
  O2-  O409  1  0.57336331  0.16499863  0.47898274  1
  O2-  O410  1  0.58506116  0.17796510  0.81333460  1
  O2-  O411  1  0.58787549  0.42159603  0.14027333  1
  O2-  O412  1  0.57394741  0.41205028  0.48111731  1
  O2-  O413  1  0.57875974  0.42841009  0.80420212  1
  O2-  O414  1  0.58576877  0.66345724  0.15442656  1
  O2-  O415  1  0.58181607  0.68226960  0.48058185  1
  O2-  O416  1  0.58509247  0.66335816  0.81536513  1
  O2-  O417  1  0.57599484  0.91768310  0.15037177  1
  O2-  O418  1  0.58282350  0.92242446  0.47435939  1
  O2-  O419  1  0.57851634  0.92473328  0.81401434  1
  O2-  O420  1  0.83811394  0.15357692  0.13354670  1
  O2-  O421  1  0.81894415  0.17558469  0.55135277  1
  O2-  O422  1  0.82970530  0.16170937  0.80883076  1
  O2-  O423  1  0.83985389  0.40170975  0.13021078  1
  O2-  O424  1  0.82568862  0.40824056  0.48160348  1
  O2-  O425  1  0.83177655  0.42431241  0.80517793  1
  O2-  O426  1  0.88182456  0.69876641  0.13985732  1
  O2-  O427  1  0.83803142  0.67297980  0.48985573  1
  O2-  O428  1  0.83885051  0.67623695  0.82060110  1
  O2-  O429  1  0.82059198  0.91844814  0.14440035  1
  O2-  O430  1  0.84040989  0.92135398  0.47939912  1
  O2-  O431  1  0.91674512  0.95787312  0.80233799  1
  O2-  O432  1  0.16686598  0.08313555  0.19856635  1
  O2-  O433  1  0.13155535  0.09201506  0.49325076  1
  O2-  O434  1  0.16891117  0.09215941  0.86348883  1
  O2-  O435  1  0.18279128  0.34233453  0.18904343  1
  O2-  O436  1  0.11695101  0.27469768  0.49540096  1
  O2-  O437  1  0.17215034  0.33638308  0.85993426  1
  O2-  O438  1  0.13249442  0.54839618  0.19471551  1
  O2-  O439  1  0.15927754  0.49519635  0.46203851  1
  O2-  O440  1  0.15365076  0.59417984  0.85596351  1
  O2-  O441  1  0.16123085  0.82849738  0.19183974  1
  O2-  O442  1  0.16557402  0.83353632  0.52067694  1
  O2-  O443  1  0.20062831  0.87156475  0.87677546  1
  O2-  O444  1  0.41536561  0.08695284  0.18871291  1
  O2-  O445  1  0.40983588  0.08451287  0.52291787  1
  O2-  O446  1  0.41815428  0.09288825  0.85552589  1
  O2-  O447  1  0.44585368  0.40319197  0.20960133  1
  O2-  O448  1  0.40825109  0.33044322  0.52336267  1
  O2-  O449  1  0.41592802  0.34202289  0.85948386  1
  O2-  O450  1  0.41181812  0.60205400  0.18933159  1
  O2-  O451  1  0.41509354  0.58639994  0.51666490  1
  O2-  O452  1  0.41213950  0.58550820  0.85654267  1
  O2-  O453  1  0.41643300  0.84228214  0.19617922  1
  O2-  O454  1  0.41497922  0.82555931  0.49902614  1
  O2-  O455  1  0.41206816  0.85471176  0.85241126  1
  O2-  O456  1  0.67647315  0.08411875  0.19223518  1
  O2-  O457  1  0.65128801  0.08143224  0.52282942  1
  O2-  O458  1  0.66557421  0.09408991  0.85624841  1
  O2-  O459  1  0.66930321  0.34471735  0.19007543  1
  O2-  O460  1  0.65700245  0.33062232  0.52124966  1
  O2-  O461  1  0.66332347  0.34319228  0.83946660  1
  O2-  O462  1  0.66434772  0.58235701  0.18335857  1
  O2-  O463  1  0.66337360  0.58340708  0.48576240  1
  O2-  O464  1  0.67149236  0.58882450  0.85486608  1
  O2-  O465  1  0.66130793  0.83451609  0.18549727  1
  O2-  O466  1  0.67709128  0.85143106  0.51495376  1
  O2-  O467  1  0.58937988  0.81260665  0.88755541  1
  O2-  O468  1  0.90923454  0.07630021  0.19352641  1
  O2-  O469  1  0.96535738  0.07385172  0.53082138  1
  O2-  O470  1  0.91945043  0.09262878  0.86001899  1
  O2-  O471  1  0.91294712  0.31126164  0.19273832  1
  O2-  O472  1  0.86309167  0.26745718  0.53150243  1
  O2-  O473  1  0.91566091  0.33249456  0.80839394  1
  O2-  O474  1  0.91232252  0.56547495  0.17976619  1
  O2-  O475  1  0.91927569  0.58001794  0.52103878  1
  O2-  O476  1  0.92443076  0.58428632  0.85163361  1
  O2-  O477  1  0.90480280  0.84734884  0.20482815  1
  O2-  O478  1  0.92387093  0.84352418  0.51986545  1
  O2-  O479  1  0.92682570  0.84013651  0.86730986  1
  O2-  O480  1  0.16679862  0.07883795  0.32008882  1
  O2-  O481  1  0.17364891  0.08979074  0.65298012  1
  O2-  O482  1  0.14829437  0.08721288  0.98347225  1
  O2-  O483  1  0.17172467  0.33763256  0.31599802  1
  O2-  O484  1  0.18096536  0.33672102  0.64305437  1
  O2-  O485  1  0.18686858  0.29803147  0.97110079  1
  O2-  O486  1  0.17760970  0.58584391  0.31524812  1
  O2-  O487  1  0.15196609  0.60355113  0.61682069  1
  O2-  O488  1  0.20367921  0.55731860  0.96381064  1
  O2-  O489  1  0.16926311  0.83889984  0.31300911  1
  O2-  O490  1  0.15921820  0.83786430  0.64199869  1
  O2-  O491  1  0.10626053  0.76250189  0.96965977  1
  O2-  O492  1  0.41582837  0.07647971  0.31228198  1
  O2-  O493  1  0.40839816  0.08693950  0.64761747  1
  O2-  O494  1  0.41434165  0.08859599  0.98006245  1
  O2-  O495  1  0.41603474  0.31480702  0.31679636  1
  O2-  O496  1  0.41106792  0.33635940  0.64621510  1
  O2-  O497  1  0.40083730  0.33780341  0.99062084  1
  O2-  O498  1  0.48208233  0.52871032  0.29651204  1
  O2-  O499  1  0.41393308  0.57824062  0.64405471  1
  O2-  O500  1  0.41490254  0.59328169  0.98258139  1
  O2-  O501  1  0.40949658  0.82582348  0.31661024  1
  O2-  O502  1  0.41255401  0.82355318  0.65830178  1
  O2-  O503  1  0.41238949  0.85141859  0.97770613  1
  O2-  O504  1  0.67174255  0.08533516  0.31629639  1
  O2-  O505  1  0.62853488  0.07081933  0.64132392  1
  O2-  O506  1  0.67388796  0.08344300  0.98169468  1
  O2-  O507  1  0.66579254  0.32002750  0.31991917  1
  O2-  O508  1  0.66411864  0.32925846  0.64423063  1
  O2-  O509  1  0.68493125  0.31390980  0.97411723  1
  O2-  O510  1  0.63908667  0.55491975  0.30807103  1
  O2-  O511  1  0.67208987  0.56283738  0.63170707  1
  O2-  O512  1  0.69664833  0.58228296  0.97711725  1
  O2-  O513  1  0.66298835  0.83996260  0.30725235  1
  O2-  O514  1  0.70201969  0.90804396  0.62796681  1
  O2-  O515  1  0.65135021  0.83986175  0.99824491  1
  O2-  O516  1  0.91943418  0.06913096  0.31324906  1
  O2-  O517  1  0.94083115  0.08713624  0.64881525  1
  O2-  O518  1  0.90517654  0.09589059  0.99052265  1
  O2-  O519  1  0.92397693  0.32368970  0.31977748  1
  O2-  O520  1  0.91393241  0.33636750  0.64535327  1
  O2-  O521  1  0.93155536  0.31920953  0.96952188  1
  O2-  O522  1  0.95298217  0.55286743  0.30265758  1
  O2-  O523  1  0.91546676  0.58429207  0.64417236  1
  O2-  O524  1  0.92404935  0.55272485  0.97346023  1
  O2-  O525  1  0.86814202  0.85383819  0.33007012  1
  O2-  O526  1  0.93522271  0.85145677  0.63976411  1
  O2-  O527  1  0.90708384  0.86078441  0.98637622  1
  O2-  O528  1  0.06405972  0.15778506  0.01492947  1
  O2-  O529  1  0.08059885  0.16416146  0.35983290  1
  O2-  O530  1  0.09895479  0.17282446  0.69170683  1
  O2-  O531  1  0.06448146  0.45008046  0.03119662  1
  O2-  O532  1  0.09157411  0.42335394  0.35633808  1
  O2-  O533  1  0.08301979  0.43327479  0.64086955  1
  O2-  O534  1  0.06947541  0.61786289  0.02777089  1
  O2-  O535  1  0.09560166  0.66513533  0.35901980  1
  O2-  O536  1  0.07376385  0.67022881  0.68707285  1
  O2-  O537  1  0.06658076  0.91885170  0.04097126  1
  O2-  O538  1  0.10006177  0.92108265  0.35007625  1
  O2-  O539  1  0.08345136  0.92193946  0.67409671  1
  O2-  O540  1  0.31446422  0.16366955  0.02255296  1
  O2-  O541  1  0.32963752  0.15392556  0.35738513  1
  O2-  O542  1  0.33982488  0.17603831  0.69796971  1
  O2-  O543  1  0.33431991  0.42938128  0.02909807  1
  O2-  O544  1  0.33819906  0.40456296  0.35486054  1
  O2-  O545  1  0.33484821  0.42335310  0.69182815  1
  O2-  O546  1  0.34639158  0.69021839  0.02092424  1
  O2-  O547  1  0.32958615  0.66586815  0.35532125  1
  O2-  O548  1  0.29696843  0.64377478  0.68311856  1
  O2-  O549  1  0.31660042  0.91609611  0.02590040  1
  O2-  O550  1  0.32953424  0.91216623  0.35394458  1
  O2-  O551  1  0.33201596  0.92104267  0.68260635  1
  O2-  O552  1  0.58262126  0.15382629  0.03212957  1
  O2-  O553  1  0.58001204  0.15827283  0.35651265  1
  O2-  O554  1  0.56974974  0.16857560  0.69124624  1
  O2-  O555  1  0.60111442  0.40189651  0.00847491  1
  O2-  O556  1  0.57916521  0.39785681  0.35904000  1
  O2-  O557  1  0.57700013  0.40667848  0.67824004  1
  O2-  O558  1  0.57809332  0.67203144  0.03712139  1
  O2-  O559  1  0.55088169  0.67818584  0.35286544  1
  O2-  O560  1  0.55981197  0.57439282  0.70477995  1
  O2-  O561  1  0.57575660  0.93010954  0.02800930  1
  O2-  O562  1  0.57847650  0.91570091  0.35260801  1
  O2-  O563  1  0.57381221  0.91141522  0.69264027  1
  O2-  O564  1  0.86333719  0.14502320  0.01133733  1
  O2-  O565  1  0.84221976  0.15980901  0.35640351  1
  O2-  O566  1  0.85062771  0.16994393  0.67920619  1
  O2-  O567  1  0.84258259  0.38699348  0.00876447  1
  O2-  O568  1  0.83478152  0.40051360  0.36036971  1
  O2-  O569  1  0.82889802  0.41480833  0.68028133  1
  O2-  O570  1  0.84007281  0.69419980  0.02155575  1
  O2-  O571  1  0.76925308  0.67750962  0.37019768  1
  O2-  O572  1  0.86562728  0.68992079  0.70293376  1
  O2-  O573  1  0.82875717  0.94328795  0.02570233  1
  O2-  O574  1  0.83088155  0.90640059  0.35101986  1
  O2-  O575  1  0.85145330  0.92265502  0.68546407  1
