# generated using pymatgen
data_H2O
_symmetry_space_group_name_H-M   'P 1'
_cell_length_a   17.99669266
_cell_length_b   17.99400218
_cell_length_c   22.01118347
_cell_angle_alpha   89.99051372
_cell_angle_beta   89.99322131
_cell_angle_gamma   119.97963536
_symmetry_Int_Tables_number   1
_chemical_formula_structural   H2O
_chemical_formula_sum   'H384 O192'
_cell_volume   6174.24076253
_cell_formula_units_Z   192
loop_
 _symmetry_equiv_pos_site_id
 _symmetry_equiv_pos_as_xyz
  1  'x, y, z'
loop_
 _atom_type_symbol
 _atom_type_oxidation_number
  H+  1.0
  O2-  -2.0
loop_
 _atom_site_type_symbol
 _atom_site_label
 _atom_site_symmetry_multiplicity
 _atom_site_fract_x
 _atom_site_fract_y
 _atom_site_fract_z
 _atom_site_occupancy
  H+  H0  1  0.65145459  0.37052741  0.17262632  1
  H+  H1  1  0.89784479  0.54689306  0.33296108  1
  H+  H2  1  0.13237642  0.31226491  0.34491828  1
  H+  H3  1  0.34929093  0.72605107  0.66438188  1
  H+  H4  1  0.10157277  0.36696863  0.18323450  1
  H+  H5  1  0.82070268  0.98367617  0.80524804  1
  H+  H6  1  0.49266407  0.88721729  0.98389774  1
  H+  H7  1  0.28872629  0.40757947  0.67603118  1
  H+  H8  1  0.12232950  0.39030184  0.80711443  1
  H+  H9  1  0.61495916  0.98287824  0.33935743  1
  H+  H10  1  0.60385415  0.88252503  0.48735088  1
  H+  H11  1  0.75986971  0.39584179  0.33946637  1
  H+  H12  1  0.20843603  0.29784182  0.64705653  1
  H+  H13  1  0.50387991  0.88270237  0.82604831  1
  H+  H14  1  0.37703788  0.49616943  0.66736496  1
  H+  H15  1  0.87550842  0.39428863  0.16428655  1
  H+  H16  1  0.80225283  0.63852949  0.53337554  1
  H+  H17  1  0.26553369  0.63652542  0.49821684  1
  H+  H18  1  -0.02222436  0.60834756  0.84609747  1
  H+  H19  1  0.88708402  0.59677531  0.00051540  1
  H+  H20  1  0.61613803  0.14058192  0.16492658  1
  H+  H21  1  0.38095483  0.63234567  0.65575610  1
  H+  H22  1  0.88850052  0.82276544  0.99844817  1
  H+  H23  1  0.81371849  0.83062168  0.85775150  1
  H+  H24  1  0.10419248  0.09996814  0.66998267  1
  H+  H25  1  0.37095662  0.75234119  0.35264377  1
  H+  H26  1  0.39012995  0.78625126  0.18250351  1
  H+  H27  1  0.97804990  0.11432156  0.49439942  1
  H+  H28  1  0.02506585  0.65178954  0.15773238  1
  H+  H29  1  0.92403809  0.59506330  0.23749410  1
  H+  H30  1  0.97423193  0.86225013  0.32096779  1
  H+  H31  1  0.75428258  0.13725341  0.34998534  1
  H+  H32  1  0.62229033  0.23374442  0.16279238  1
  H+  H33  1  0.36807793  0.60396618  0.83595354  1
  H+  H34  1  0.86866771  0.97671790  0.65775625  1
  H+  H35  1  0.78406593  0.39187784  0.16618631  1
  H+  H36  1  0.35687015  0.13221447  0.49209901  1
  H+  H37  1  0.36356016  0.13776047  0.15850395  1
  H+  H38  1  0.16131275  0.81792643  0.23838324  1
  H+  H39  1  0.11180967  0.63512720  0.83099465  1
  H+  H40  1  0.22893620  0.35265813  0.80249227  1
  H+  H41  1  0.23831832  0.87940771  0.67614497  1
  H+  H42  1  0.86952376  0.15424466  1.02272512  1
  H+  H43  1  0.37436882  0.63688704  0.02235452  1
  H+  H44  1  0.72588717  0.86305900  0.32514282  1
  H+  H45  1  0.88092799  0.59246467  0.84579466  1
  H+  H46  1  0.97581640  0.35989457  0.50331430  1
  H+  H47  1  0.91310808  0.77185101  0.66665684  1
  H+  H48  1  0.77531798  0.14267891  0.01682227  1
  H+  H49  1  0.13539345  0.77597442  0.17245849  1
  H+  H50  1  0.50258182  0.64086901  -0.00703940  1
  H+  H51  1  0.27486497  0.14111486  0.16657527  1
  H+  H52  1  0.88786971  1.02373315  0.49451004  1
  H+  H53  1  0.62224198  0.21659504  0.67498765  1
  H+  H54  1  0.28840168  0.41085821  -0.01050216  1
  H+  H55  1  0.38513458  1.02781992  0.16640878  1
  H+  H56  1  0.74961331  0.63454761  0.66602069  1
  H+  H57  1  0.37348078  0.61318453  0.50121467  1
  H+  H58  1  0.11433428  0.01608318  0.67809288  1
  H+  H59  1  0.33843035  0.46497881  0.49380647  1
  H+  H60  1  0.64182288  0.77844461  0.99798064  1
  H+  H61  1  0.48480156  0.15573324  0.99766536  1
  H+  H62  1  0.61921874  0.48039984  0.15485727  1
  H+  H63  1  0.15383972  0.56242515  0.22993440  1
  H+  H64  1  0.61146583  0.75368601  0.85314544  1
  H+  H65  1  0.87523634  0.13840451  0.48940044  1
  H+  H66  1  0.60615818  0.72843066  0.33179416  1
  H+  H67  1  0.85583740  0.22295845  0.66551214  1
  H+  H68  1  0.64124482  0.62263745  0.16471424  1
  H+  H69  1  0.33303157  0.46470862  0.14895208  1
  H+  H70  1  0.33925359  -0.02384482  0.34449697  1
  H+  H71  1  0.87788698  0.93526667  -0.00401225  1
  H+  H72  1  -0.05901102  0.09740919  0.83755456  1
  H+  H73  1  0.35932282  0.46966088  0.82872832  1
  H+  H74  1  0.60383454  0.85078330  0.84912916  1
  H+  H75  1  0.71487672  0.61150914  0.32464432  1
  H+  H76  1  0.39382284  0.83490552  0.88785681  1
  H+  H77  1  0.23304138  0.11030560  0.32372304  1
  H+  H78  1  0.63027404  0.10045148  0.65675416  1
  H+  H79  1  0.97531072  0.86088859  0.50803852  1
  H+  H80  1  0.60166115  0.13014542  0.48860837  1
  H+  H81  1  0.61174325  0.86744714  0.67496081  1
  H+  H82  1  0.40247703  0.37302523  0.65776739  1
  H+  H83  1  0.37735943  0.22580963  0.81057820  1
  H+  H84  1  0.89321161  0.53082375  0.18015076  1
  H+  H85  1  0.52633893  0.89065814  0.16495809  1
  H+  H86  1  0.61469756  1.01768816  0.50045659  1
  H+  H87  1  0.53513933  0.51805080  0.71854952  1
  H+  H88  1  0.63012710  0.02256417  0.17765223  1
  H+  H89  1  0.12954861  0.51256265  0.65101664  1
  H+  H90  1  0.09883065  0.21020546  0.17914982  1
  H+  H91  1  0.14219598  0.86669702  0.99327852  1
  H+  H92  1  0.87328206  0.70194482  1.01826723  1
  H+  H93  1  0.50773080  0.14513082  0.34253784  1
  H+  H94  1  0.53772429  0.08790886  0.03077129  1
  H+  H95  1  0.61974827  0.11421033  0.33050844  1
  H+  H96  1  0.51284119  0.64167465  0.48643013  1
  H+  H97  1  0.60524719  0.63575905  0.84211143  1
  H+  H98  1  0.27981796  0.62433777  0.02347518  1
  H+  H99  1  0.34564004  0.95036402  0.02185231  1
  H+  H100  1  0.47467961  0.11739615  0.16634893  1
  H+  H101  1  0.22148161  0.85045286  -0.00479038  1
  H+  H102  1  0.62613392  0.61479564  0.46337723  1
  H+  H103  1  0.89790224  0.52331054  0.50141984  1
  H+  H104  1  0.63685899  0.34303003  0.65831334  1
  H+  H105  1  0.11774623  0.37850015  0.66632642  1
  H+  H106  1  0.53864197  0.38464807  0.16092627  1
  H+  H107  1  0.87712126  0.48202462  0.01181175  1
  H+  H108  1  0.46614627  0.86174611  0.50223440  1
  H+  H109  1  0.39578967  0.08248214  0.97537191  1
  H+  H110  1  0.36312919  0.46916123  0.35493358  1
  H+  H111  1  0.11352184  0.72300415  0.82914116  1
  H+  H112  1  0.10297031  0.21910075  0.80887271  1
  H+  H113  1  0.36409533  0.38132982  0.35020877  1
  H+  H114  1  0.15263755  0.79057685  0.66853938  1
  H+  H115  1  0.65867612  0.78359994  0.16451951  1
  H+  H116  1  0.13353772  0.61051147  0.50141318  1
  H+  H117  1  0.51927635  0.36636262  0.82753544  1
  H+  H118  1  0.44325682  0.59078409  0.12717881  1
  H+  H119  1  0.39659008  0.26369486  0.17897201  1
  H+  H120  1  0.85117803  0.40970070  0.32779808  1
  H+  H121  1  0.63114771  0.36436472  0.32372931  1
  H+  H122  1  0.88222173  1.01130563  0.17174710  1
  H+  H123  1  0.64817190  0.07745322  0.55865519  1
  H+  H124  1  0.87658358  0.23610823  0.49530793  1
  H+  H125  1  0.52983378  0.13140186  0.68236227  1
  H+  H126  1  0.55995327  0.67921170  0.15468047  1
  H+  H127  1  0.64098543  0.36330469  0.50153308  1
  H+  H128  1  0.14061541  1.02114650  0.17777221  1
  H+  H129  1  0.78070066  0.38145044  0.83876081  1
  H+  H130  1  0.09132979  0.90483453  0.77103074  1
  H+  H131  1  0.09720981  0.22958074  0.67609503  1
  H+  H132  1  0.89546493  0.85387697  0.66256315  1
  H+  H133  1  0.62582800  0.26072341  -0.00871995  1
  H+  H134  1  0.60441632  0.73139270  0.48618094  1
  H+  H135  1  0.61336425  0.88881821  0.00773172  1
  H+  H136  1  0.20552621  0.34459246  0.19002541  1
  H+  H137  1  0.53568560  0.14041232  0.82574725  1
  H+  H138  1  0.61562615  0.89313565  0.33399260  1
  H+  H139  1  0.11498985  0.90020386  0.33991669  1
  H+  H140  1  0.97025079  0.35205439  0.64973694  1
  H+  H141  1  0.38964791  0.35899957  0.83792986  1
  H+  H142  1  0.41669949  0.32869824  0.89844017  1
  H+  H143  1  0.85614311  0.10186360  0.83451695  1
  H+  H144  1  0.10814932  0.22826495  0.49431075  1
  H+  H145  1  0.86372746  0.47349612  0.65985133  1
  H+  H146  1  0.44889131  0.19431888  0.54852874  1
  H+  H147  1  0.89657653  0.63309017  0.32998059  1
  H+  H148  1  0.11279498  -0.01271806  0.33663691  1
  H+  H149  1  0.39505506  0.25985032  0.50716543  1
  H+  H150  1  0.60761761  0.44860713  0.68523180  1
  H+  H151  1  0.63043345  0.27466804  0.32746253  1
  H+  H152  1  0.13320468  0.15974585  0.33370839  1
  H+  H153  1  0.24527311  0.87505428  0.48931954  1
  H+  H154  1  0.63732553  0.35191796  0.84142009  1
  H+  H155  1  0.84402924  0.68791425  0.82924082  1
  H+  H156  1  0.52301108  0.37954637  0.00762214  1
  H+  H157  1  0.87317513  0.46671318  0.84189596  1
  H+  H158  1  0.36454631  0.66038268  0.35580790  1
  H+  H159  1  0.57183931  0.87979831  0.73781683  1
  H+  H160  1  0.86466587  0.88575490  0.49446271  1
  H+  H161  1  0.27136873  0.88580897  0.17148002  1
  H+  H162  1  0.33090204  0.68039364  0.44160131  1
  H+  H163  1  0.19480840  0.13111225  0.83944879  1
  H+  H164  1  0.85833922  0.72891293  0.33905125  1
  H+  H165  1  0.72715796  0.86566976  0.49323471  1
  H+  H166  1  0.75253992  0.60315785  0.82634436  1
  H+  H167  1  0.14467491  0.60742208  0.32406901  1
  H+  H168  1  0.32617970  0.91463462  0.43112972  1
  H+  H169  1  0.73935779  0.61596933  0.99461073  1
  H+  H170  1  0.76834451  0.67007997  0.64297988  1
  H+  H171  1  0.15215049  0.53479127  0.84343964  1
  H+  H172  1  0.72680586  0.87346854  0.98999990  1
  H+  H173  1  0.74642393  0.87731509  0.64468156  1
  H+  H174  1  0.40018186  0.02869869  0.67333620  1
  H+  H175  1  0.33396658  0.66814741  0.11674318  1
  H+  H176  1  0.11196889  0.72538936  1.00167766  1
  H+  H177  1  0.97668868  0.13120131  1.01364428  1
  H+  H178  1  0.40216616  0.38504165  -0.00883086  1
  H+  H179  1  0.31012773  0.39757907  0.44099466  1
  H+  H180  1  0.11240967  0.46322356  0.16953228  1
  H+  H181  1  0.04477099  0.36121105  0.33516116  1
  H+  H182  1  0.96369221  0.11498226  0.64946167  1
  H+  H183  1  0.89976244  0.61268209  0.50472865  1
  H+  H184  1  0.92188990  0.57601416  0.60801993  1
  H+  H185  1  0.06957742  0.91406074  0.43189683  1
  H+  H186  1  1.03571238  0.88866983  1.01524379  1
  H+  H187  1  0.85890864  0.21260877  0.17425789  1
  H+  H188  1  0.35432533  0.65006978  0.18300704  1
  H+  H189  1  0.86696867  0.97166766  0.34060515  1
  H+  H190  1  0.10698427  0.97659280  0.48867381  1
  H+  H191  1  0.90775772  0.31254169  0.12785894  1
  H+  H192  1  0.98395860  0.11095967  0.32481366  1
  H+  H193  1  0.88405408  0.36335981  0.64989212  1
  H+  H194  1  0.41410898  0.55299795  0.98625468  1
  H+  H195  1  0.11674578  0.88626880  0.17028538  1
  H+  H196  1  0.37672986  0.77357413  0.50924097  1
  H+  H197  1  0.70975777  0.09364373  0.83626596  1
  H+  H198  1  0.91987914  0.83085317  0.85795877  1
  H+  H199  1  0.85968133  0.63407406  0.16782725  1
  H+  H200  1  0.61173302  0.35897937  1.00063686  1
  H+  H201  1  0.11916753  0.98236164  0.00931686  1
  H+  H202  1  0.35104283  0.87995370  0.49334975  1
  H+  H203  1  0.60733978  0.47528017  0.33439307  1
  H+  H204  1  0.02909079  0.63181735  0.00515454  1
  H+  H205  1  0.64340984  0.26536397  0.84159806  1
  H+  H206  1  0.48536087  0.14167579  0.51521632  1
  H+  H207  1  0.92208326  0.83247060  0.57082317  1
  H+  H208  1  0.11652138  0.64091923  0.67014491  1
  H+  H209  1  0.13249818  0.10632402  0.17910226  1
  H+  H210  1  0.71628505  0.61924470  0.46460721  1
  H+  H211  1  0.91967800  0.34158846  0.31481592  1
  H+  H212  1  0.89886406  0.63624320  0.67372997  1
  H+  H213  1  0.46758284  0.61773527  0.33481544  1
  H+  H214  1  0.30167508  0.13133265  0.80260010  1
  H+  H215  1  0.64951043  0.55700298  0.89593443  1
  H+  H216  1  0.13944794  0.51607498  0.32798125  1
  H+  H217  1  0.29304152  0.85959406  0.83848892  1
  H+  H218  1  0.13658905  0.77816751  0.49265596  1
  H+  H219  1  0.21829164  0.10265504  0.48922882  1
  H+  H220  1  0.10632685  0.38188191  0.49735590  1
  H+  H221  1  0.23595613  0.13133265  -0.00071806  1
  H+  H222  1  1.01226933  0.84308723  0.85485654  1
  H+  H223  1  0.55986647  0.75286714  0.71653725  1
  H+  H224  1  0.84973694  0.86718303  0.84030084  1
  H+  H225  1  0.17298531  0.08889712  0.26612575  1
  H+  H226  1  0.65948182  0.78855905  0.64501807  1
  H+  H227  1  0.93844930  0.31222573  0.86137183  1
  H+  H228  1  0.41155639  0.59091442  0.89497097  1
  H+  H229  1  0.49026605  0.34034576  0.51038682  1
  H+  H230  1  0.61684276  0.49889421  0.83580197  1
  H+  H231  1  0.36310583  0.87633737  0.00695742  1
  H+  H232  1  0.77888359  0.88783448  0.15339228  1
  H+  H233  1  0.17419846  0.32470709  0.74234119  1
  H+  H234  1  0.38626398  0.29077730  1.00240728  1
  H+  H235  1  0.07709874  0.11893388  0.81271160  1
  H+  H236  1  0.78263805  0.37554845  0.66260889  1
  H+  H237  1  0.76870301  0.63311502  0.16325468  1
  H+  H238  1  0.14760423  0.53278639  0.98867736  1
  H+  H239  1  0.52091359  0.38177655  0.33843414  1
  H+  H240  1  0.86937813  0.38167390  1.01524666  1
  H+  H241  1  0.82824146  0.20909119  0.82352815  1
  H+  H242  1  0.08451891  0.67871455  0.09803465  1
  H+  H243  1  0.61353490  0.22576753  0.48732063  1
  H+  H244  1  0.41062248  0.12621365  0.82282511  1
  H+  H245  1  1.02986165  0.63985422  0.48544638  1
  H+  H246  1  0.10919035  0.39051414  1.01187537  1
  H+  H247  1  0.63300508  0.65835598  0.00825073  1
  H+  H248  1  0.26858362  0.63925584  0.81997376  1
  H+  H249  1  0.36374288  0.90130404  0.34121767  1
  H+  H250  1  0.35306751  0.72784378  0.81118270  1
  H+  H251  1  0.04478170  0.40891177  0.81801982  1
  H+  H252  1  0.39313364  0.87608098  0.18052396  1
  H+  H253  1  0.21595091  0.60391468  0.65193107  1
  H+  H254  1  0.21038549  0.59838038  0.17097334  1
  H+  H255  1  0.37350892  0.88854669  0.67969968  1
  H+  H256  1  0.46669682  0.94068871  0.94247706  1
  H+  H257  1  0.97674463  0.85917056  0.17104650  1
  H+  H258  1  0.31842896  0.37175486  0.13366603  1
  H+  H259  1  0.41223360  0.35787590  0.19158289  1
  H+  H260  1  0.18521552  0.35288547  1.07420620  1
  H+  H261  1  0.46520881  0.66061292  0.61584204  1
  H+  H262  1  0.13553152  0.27169042  1.03296728  1
  H+  H263  1  0.39472824  0.25832561  0.33503321  1
  H+  H264  1  0.64942221  0.11999373  0.99120180  1
  H+  H265  1  0.00886587  0.11948444  0.17509799  1
  H+  H266  1  1.02284919  0.39250969  0.99922538  1
  H+  H267  1  0.61134292  0.47527615  0.47482974  1
  H+  H268  1  0.85519875  0.20351943  0.33921925  1
  H+  H269  1  0.85980827  0.87976422  0.33672174  1
  H+  H270  1  0.62663368  0.61154501  0.32308859  1
  H+  H271  1  0.46958551  0.84228766  0.65829094  1
  H+  H272  1  0.64891771  0.86895670  0.16960885  1
  H+  H273  1  0.20703221  0.81230410  0.33805855  1
  H+  H274  1  0.13088065  0.96660147  0.82928725  1
  H+  H275  1  0.51055631  0.65664331  0.69659341  1
  H+  H276  1  0.72591759  0.66510272  0.94203471  1
  H+  H277  1  0.02965769  0.87984390  0.68365800  1
  H+  H278  1  0.86444431  0.38182309  0.49088068  1
  H+  H279  1  0.62712889  0.10226898  0.84170657  1
  H+  H280  1  0.13592593  0.86992652  0.49073520  1
  H+  H281  1  0.16275992  0.86204300  0.83528863  1
  H+  H282  1  0.60920224  0.60480024  0.69476888  1
  H+  H283  1  0.88451233  0.05336105  0.99876747  1
  H+  H284  1  0.86973318  0.34890154  0.85352695  1
  H+  H285  1  0.87587367  0.27229083  1.01050154  1
  H+  H286  1  0.71742030  1.10277399  0.64900391  1
  H+  H287  1  0.09161844  0.11350422  0.03498864  1
  H+  H288  1  0.83113429  0.16957002  0.43175828  1
  H+  H289  1  0.74097210  0.88906499  0.80462430  1
  H+  H290  1  0.12490014  0.89070249  0.68495536  1
  H+  H291  1  0.08833492  0.66980889  0.72972687  1
  H+  H292  1  0.48153698  0.88218710  0.33138205  1
  H+  H293  1  0.51976421  0.36351897  0.67742662  1
  H+  H294  1  0.45427891  0.56635828  0.19295317  1
  H+  H295  1  0.92953318  0.30848277  0.25216265  1
  H+  H296  1  0.56932591  0.67290284  0.78985718  1
  H+  H297  1  0.04743612  0.66826365  0.32975137  1
  H+  H298  1  0.83397835  0.41610433  0.43364387  1
  H+  H299  1  0.17977267  0.83012990  0.89774617  1
  H+  H300  1  0.82456849  0.15932707  0.11356145  1
  H+  H301  1  0.35363873  0.42595889  0.76458173  1
  H+  H302  1  0.18810221  0.37215738  0.92448453  1
  H+  H303  1  0.62094291  0.98124697  0.00779547  1
  H+  H304  1  0.16004102  0.13584287  0.96582760  1
  H+  H305  1  0.44248682  0.12832719  0.88942247  1
  H+  H306  1  0.42077596  0.85208708  0.27328048  1
  H+  H307  1  0.82152351  0.92111782  0.71596266  1
  H+  H308  1  0.89224553  0.32047405  0.94580912  1
  H+  H309  1  0.40031284  0.57360494  0.55550887  1
  H+  H310  1  0.82952960  0.64451262  0.07640024  1
  H+  H311  1  0.65387267  0.32081574  0.92992037  1
  H+  H312  1  0.41487434  0.83526833  0.59773096  1
  H+  H313  1  0.33330386  0.14631557  0.42509395  1
  H+  H314  1  0.57911730  0.39013577  0.76785942  1
  H+  H315  1  0.38553292  0.57807861  0.29129664  1
  H+  H316  1  0.19859869  0.08331358  0.89760744  1
  H+  H317  1  0.33450258  0.43964832  0.05040845  1
  H+  H318  1  0.86669749  0.88369434  0.15157244  1
  H+  H319  1  0.91336082  0.82817271  0.26227483  1
  H+  H320  1  0.21284694  0.35809882  0.51228199  1
  H+  H321  1  0.83711886  0.92654294  0.06313183  1
  H+  H322  1  0.65869646  0.58399084  0.22638205  1
  H+  H323  1  0.81188583  0.15922669  0.75880179  1
  H+  H324  1  0.91416548  0.32734892  0.56407544  1
  H+  H325  1  0.83788503  0.91160215  0.43104699  1
  H+  H326  1  0.67296964  0.83809966  0.26311554  1
  H+  H327  1  0.71976218  0.10955971  0.18199221  1
  H+  H328  1  0.60762782  0.68838295  0.07364073  1
  H+  H329  1  0.04555148  0.16192736  0.72902730  1
  H+  H330  1  0.09434703  0.67559275  0.42781311  1
  H+  H331  1  0.67230209  0.84263195  0.55349989  1
  H+  H332  1  0.82772543  0.66961707  0.39827507  1
  H+  H333  1  0.85385092  0.13294937  0.66609760  1
  H+  H334  1  0.72923719  0.36175854  0.50352296  1
  H+  H335  1  0.88612725  0.76993932  0.16915498  1
  H+  H336  1  0.59788565  0.96661052  0.83226645  1
  H+  H337  1  0.07191609  0.15399840  0.09227939  1
  H+  H338  1  0.13250373  0.10860938  0.49212900  1
  H+  H339  1  0.57483669  0.67155596  0.39224108  1
  H+  H340  1  0.42487266  0.09798777  0.62031539  1
  H+  H341  1  0.20231603  0.40835434  0.90216142  1
  H+  H342  1  0.18268963  0.59582465  0.90295947  1
  H+  H343  1  0.64990273  0.83217214  0.91162715  1
  H+  H344  1  0.08933659  0.18202477  0.42937175  1
  H+  H345  1  0.58218503  0.16442975  0.07764323  1
  H+  H346  1  0.65984989  0.55561869  0.56136303  1
  H+  H347  1  0.57239970  0.91074094  0.42890568  1
  H+  H348  1  0.33652238  0.16192006  0.67989471  1
  H+  H349  1  0.58294525  0.91971585  0.10408009  1
  H+  H350  1  0.57025959  0.16806832  0.39993685  1
  H+  H351  1  0.91815521  0.07111507  0.27044361  1
  H+  H352  1  0.15289968  0.62335170  0.99469173  1
  H+  H353  1  0.08651021  0.41428896  0.72007352  1
  H+  H354  1  0.99789867  0.36606436  0.16696399  1
  H+  H355  1  0.67561139  0.54261623  0.58887355  1
  H+  H356  1  0.10835711  0.47181522  0.48914600  1
  H+  H357  1  0.09422803  0.91927162  0.10892017  1
  H+  H358  1  0.84660577  0.42494169  0.07872477  1
  H+  H359  1  0.42244985  0.31554533  0.27641101  1
  H+  H360  1  0.59897391  0.16601917  0.76741644  1
  H+  H361  1  0.86497360  0.66726537  0.73144424  1
  H+  H362  1  0.90820858  0.08234511  0.58833958  1
  H+  H363  1  0.65559191  0.08750986  0.27269723  1
  H+  H364  1  0.58865986  0.40526463  0.06743960  1
  H+  H365  1  0.87681804  0.09800634  0.17855058  1
  H+  H366  1  0.67272465  0.33681357  0.23410486  1
  H+  H367  1  0.15636015  0.57517372  0.56160518  1
  H+  H368  1  0.58165622  0.40409945  0.42713547  1
  H+  H369  1  0.09030314  0.39732680  0.39915439  1
  H+  H370  1  0.66504393  0.31799118  0.59626254  1
  H+  H371  1  0.86637522  0.73117094  0.50732913  1
  H+  H372  1  0.91762394  0.57078818  0.93789056  1
  H+  H373  1  0.15444620  0.32822365  0.57290358  1
  H+  H374  1  0.94164903  0.80752582  0.94623646  1
  H+  H375  1  0.36549318  0.17081323  0.01411798  1
  H+  H376  1  0.35700051  0.91449187  0.74486348  1
  H+  H377  1  0.32437407  0.90050322  0.11035114  1
  H+  H378  1  0.42245472  0.31748604  0.61054796  1
  H+  H379  1  0.67115931  0.08246061  0.93209451  1
  H+  H380  1  0.32059350  0.66483102  0.72382021  1
  H+  H381  1  0.32729811  0.18264438  0.07743767  1
  H+  H382  1  0.24647673  0.12404797  0.64897915  1
  H+  H383  1  0.15403389  0.29980690  0.25211538  1
  O2-  O384  1  0.07138553  0.15062172  0.16185241  1
  O2-  O385  1  0.08032607  0.17094221  0.47351954  1
  O2-  O386  1  0.05436836  0.15780465  0.81060871  1
  O2-  O387  1  0.07790091  0.39775134  0.15986382  1
  O2-  O388  1  0.07759583  0.41017505  0.47591816  1
  O2-  O389  1  0.10335602  0.43383955  0.80335530  1
  O2-  O390  1  0.08418058  0.68807636  0.14247279  1
  O2-  O391  1  0.09249148  0.67465486  0.47261853  1
  O2-  O392  1  0.07734997  0.66154208  0.81759129  1
  O2-  O393  1  0.08718758  0.91705408  0.15376299  1
  O2-  O394  1  0.07463183  0.91193463  0.47657299  1
  O2-  O395  1  0.10078142  0.90540620  0.81799717  1
  O2-  O396  1  0.33445989  0.17356537  0.14940678  1
  O2-  O397  1  0.32367755  0.15338458  0.46828922  1
  O2-  O398  1  0.36025960  0.17126373  0.78899506  1
  O2-  O399  1  0.29067153  0.40638209  0.13297000  1
  O2-  O400  1  0.30475255  0.40269955  0.48588930  1
  O2-  O401  1  0.34193425  0.41271760  0.80882232  1
  O2-  O402  1  0.33040350  0.68066847  0.16144072  1
  O2-  O403  1  0.32811587  0.67058532  0.48755591  1
  O2-  O404  1  0.32626901  0.66707125  0.79884870  1
  O2-  O405  1  0.33110749  0.91567624  0.15396860  1
  O2-  O406  1  0.32008410  0.90964836  0.47696395  1
  O2-  O407  1  0.35686664  0.89160069  0.82877001  1
  O2-  O408  1  0.58994481  0.17365583  0.14658371  1
  O2-  O409  1  0.57580361  0.16600197  0.47226539  1
  O2-  O410  1  0.59842350  0.16700379  0.81406219  1
  O2-  O411  1  0.59582379  0.41907596  0.14110083  1
  O2-  O412  1  0.58652907  0.41175921  0.47210353  1
  O2-  O413  1  0.58047897  0.39692655  0.81378617  1
  O2-  O414  1  0.61413174  0.69012412  0.13748986  1
  O2-  O415  1  0.57188296  0.67199307  0.46904147  1
  O2-  O416  1  0.57888326  0.67218526  0.83468218  1
  O2-  O417  1  0.58685810  0.92040389  0.14909573  1
  O2-  O418  1  0.56715391  0.90662760  0.47415689  1
  O2-  O419  1  0.56587030  0.90397416  0.81947100  1
  O2-  O420  1  0.82453673  0.15300771  0.15916366  1
  O2-  O421  1  0.84584849  0.17331693  0.47857400  1
  O2-  O422  1  0.80392177  0.15191344  0.80425101  1
  O2-  O423  1  0.84471013  0.42520560  0.15063221  1
  O2-  O424  1  0.83606607  0.41523272  0.47856122  1
  O2-  O425  1  0.84259693  0.40482801  0.83019228  1
  O2-  O426  1  0.82977050  0.66267382  0.14841983  1
  O2-  O427  1  0.83286835  0.66721192  0.49620066  1
  O2-  O428  1  0.81458458  0.62813828  0.81589501  1
  O2-  O429  1  0.83909501  0.91630946  0.13551681  1
  O2-  O430  1  0.83644764  0.91646231  0.47648395  1
  O2-  O431  1  0.77894796  0.93576279  0.77781323  1
  O2-  O432  1  0.17064988  0.08292782  0.19087763  1
  O2-  O433  1  0.15658572  0.07119369  0.50107469  1
  O2-  O434  1  0.19732754  0.08062391  0.85245273  1
  O2-  O435  1  0.14799536  0.30878885  0.20759422  1
  O2-  O436  1  0.15049752  0.32672721  0.52814282  1
  O2-  O437  1  0.16781352  0.32365209  0.78822047  1
  O2-  O438  1  0.15224143  0.55600425  0.18462480  1
  O2-  O439  1  0.15973268  0.57616533  0.51575152  1
  O2-  O440  1  0.17806592  0.59506145  0.85705034  1
  O2-  O441  1  0.16765763  0.83393108  0.19505952  1
  O2-  O442  1  0.16954799  0.84090459  0.50317285  1
  O2-  O443  1  0.18905474  0.82904884  0.85317075  1
  O2-  O444  1  0.41230284  0.09067811  0.17298978  1
  O2-  O445  1  0.43520175  0.13492243  0.53934250  1
  O2-  O446  1  0.43883051  0.10219040  0.84977217  1
  O2-  O447  1  0.43879729  0.32269391  0.19695304  1
  O2-  O448  1  0.44186300  0.29700470  0.53519465  1
  O2-  O449  1  0.41595085  0.32483638  0.85357960  1
  O2-  O450  1  0.41195903  0.56605099  0.16500787  1
  O2-  O451  1  0.40464707  0.58064058  0.51119855  1
  O2-  O452  1  0.38271737  0.56409465  0.85639222  1
  O2-  O453  1  0.42583032  0.84781171  0.19504433  1
  O2-  O454  1  0.40718604  0.83620767  0.52064191  1
  O2-  O455  1  0.38864989  0.83207206  0.84274872  1
  O2-  O456  1  0.65785118  0.08304096  0.19335864  1
  O2-  O457  1  0.64300845  0.07840351  0.51326068  1
  O2-  O458  1  0.65244262  0.06630064  0.85785259  1
  O2-  O459  1  0.67922222  0.33835568  0.18854876  1
  O2-  O460  1  0.66787259  0.32955758  0.51616777  1
  O2-  O461  1  0.66854865  0.32456458  0.86052531  1
  O2-  O462  1  0.66243224  0.58314755  0.18109061  1
  O2-  O463  1  0.65607151  0.58268190  0.45289268  1
  O2-  O464  1  0.64478604  0.55985024  0.85144325  1
  O2-  O465  1  0.68435913  0.84402187  0.18359997  1
  O2-  O466  1  0.66654337  0.83722774  0.50828088  1
  O2-  O467  1  0.63772606  0.82248461  0.86510005  1
  O2-  O468  1  0.90954051  0.06937252  0.19145975  1
  O2-  O469  1  0.91649209  0.08503807  0.50847414  1
  O2-  O470  1  0.87998250  0.06535348  0.84863240  1
  O2-  O471  1  0.92280838  0.33257611  0.16976278  1
  O2-  O472  1  0.91435223  0.32648465  0.51696062  1
  O2-  O473  1  0.88163070  0.30096007  0.87277181  1
  O2-  O474  1  0.91861762  0.59197896  0.19229059  1
  O2-  O475  1  0.93466077  0.58525826  0.51165545  1
  O2-  O476  1  0.91871648  0.57269026  0.86430092  1
  O2-  O477  1  0.91501210  0.83110964  0.18314188  1
  O2-  O478  1  0.91536616  0.83067405  0.52506123  1
  O2-  O479  1  0.95334198  0.80583073  0.87390259  1
  O2-  O480  1  0.17316221  0.09230032  0.31187921  1
  O2-  O481  1  0.13708476  0.07238533  0.65765289  1
  O2-  O482  1  0.17965939  0.09560284  0.97614382  1
  O2-  O483  1  0.15525503  0.27707095  0.32502783  1
  O2-  O484  1  0.18274177  0.33009843  0.66366804  1
  O2-  O485  1  0.16652023  0.33519584  1.03241359  1
  O2-  O486  1  0.16199849  0.56946836  0.30457066  1
  O2-  O487  1  0.15593875  0.57301202  0.63643539  1
  O2-  O488  1  0.18496334  0.59540097  0.97890102  1
  O2-  O489  1  0.14781006  0.78353008  0.32123698  1
  O2-  O490  1  0.17944249  0.85330015  0.65988532  1
  O2-  O491  1  0.16480893  0.83084491  0.97577199  1
  O2-  O492  1  0.38453605  0.09700123  0.32565830  1
  O2-  O493  1  0.43474733  0.09047921  0.66349906  1
  O2-  O494  1  0.43141563  0.14481372  0.97623033  1
  O2-  O495  1  0.41755140  0.31827728  0.32112825  1
  O2-  O496  1  0.42994156  0.33792644  0.65327312  1
  O2-  O497  1  0.42634563  0.34686868  0.98253233  1
  O2-  O498  1  0.40278445  0.58514292  0.33367590  1
  O2-  O499  1  0.42373107  0.61344142  0.64110023  1
  O2-  O500  1  0.44280871  0.61486709  0.97648646  1
  O2-  O501  1  0.41993421  0.85590744  0.31860821  1
  O2-  O502  1  0.41191122  0.82756321  0.64308036  1
  O2-  O503  1  0.44235665  0.88350401  0.96035122  1
  O2-  O504  1  0.65469923  0.08756293  0.31801977  1
  O2-  O505  1  0.65716464  0.07109535  0.63499770  1
  O2-  O506  1  0.67646937  0.08674508  0.97818590  1
  O2-  O507  1  0.66396751  0.33467093  0.31094915  1
  O2-  O508  1  0.66798884  0.31489873  0.64130367  1
  O2-  O509  1  0.64757795  0.31952715  0.97680889  1
  O2-  O510  1  0.65641598  0.58142165  0.30678592  1
  O2-  O511  1  0.59010245  0.54389837  0.69763877  1
  O2-  O512  1  0.69331723  0.61554626  0.96836855  1
  O2-  O513  1  0.66625495  0.83557496  0.30830556  1
  O2-  O514  1  0.68349148  0.84760078  0.63063801  1
  O2-  O515  1  0.66496328  0.83881636  0.97871966  1
  O2-  O516  1  0.92332672  0.07148647  0.31533569  1
  O2-  O517  1  0.90364131  0.07900931  0.63344834  1
  O2-  O518  1  0.92068601  0.11601243  0.99490093  1
  O2-  O519  1  0.93591719  0.30271673  0.29624971  1
  O2-  O520  1  0.91085850  0.32463358  0.63410434  1
  O2-  O521  1  0.90259411  0.33123153  0.99103162  1
  O2-  O522  1  0.93097090  0.60597462  0.31676509  1
  O2-  O523  1  0.88348935  0.55930062  0.64307725  1
  O2-  O524  1  0.91958954  0.56913129  0.98410961  1
  O2-  O525  1  0.91324879  0.82767388  0.30778948  1
  O2-  O526  1  0.93077625  0.83025573  0.64649589  1
  O2-  O527  1  0.93388095  0.80895441  0.99216958  1
  O2-  O528  1  0.07560706  0.15628755  0.04557868  1
  O2-  O529  1  0.09946077  0.18845925  0.34609493  1
  O2-  O530  1  0.05520811  0.16720242  0.68460708  1
  O2-  O531  1  0.08576213  0.42750061  -0.00059920  1
  O2-  O532  1  0.10109971  0.39053965  0.35535272  1
  O2-  O533  1  0.08357009  0.40669118  0.67551943  1
  O2-  O534  1  0.08943602  0.66691304  0.01919131  1
  O2-  O535  1  0.10868611  0.69376857  0.34330478  1
  O2-  O536  1  0.10539665  0.68512018  0.68707692  1
  O2-  O537  1  0.09709856  0.92476920  0.02709381  1
  O2-  O538  1  0.07943177  0.92545777  0.34975296  1
  O2-  O539  1  0.08691641  0.91274707  0.70374232  1
  O2-  O540  1  0.32608405  0.18936482  0.03143973  1
  O2-  O541  1  0.34581277  0.13923725  0.34336480  1
  O2-  O542  1  0.30879509  0.15117955  0.64027204  1
  O2-  O543  1  0.34672651  0.44019276  0.00677943  1
  O2-  O544  1  0.33088227  0.40756419  0.36497098  1
  O2-  O545  1  0.35200216  0.43917022  0.68602794  1
  O2-  O546  1  0.32956727  0.63548856  0.04939258  1
  O2-  O547  1  0.33960697  0.69448895  0.37148002  1
  O2-  O548  1  0.32100443  0.66423159  0.67796951  1
  O2-  O549  1  0.32208675  0.88928150  0.02909716  1
  O2-  O550  1  0.32081436  0.91674593  0.35750294  1
  O2-  O551  1  0.34985175  0.92085375  0.70110507  1
  O2-  O552  1  0.57101326  0.15057085  0.03146749  1
  O2-  O553  1  0.56889848  0.17033216  0.35354319  1
  O2-  O554  1  0.59290746  0.15926812  0.69553305  1
  O2-  O555  1  0.58390586  0.39844037  0.02141047  1
  O2-  O556  1  0.58369565  0.41475603  0.34840642  1
  O2-  O557  1  0.58123215  0.38692323  0.69372601  1
  O2-  O558  1  0.60345298  0.68820590  0.02418617  1
  O2-  O559  1  0.57345325  0.66769731  0.34663745  1
  O2-  O560  1  0.56414779  0.69920828  0.71708832  1
  O2-  O561  1  0.58378574  0.92062911  0.02152006  1
  O2-  O562  1  0.58452970  0.92102782  0.35163747  1
  O2-  O563  1  0.55880765  0.84551811  0.70009462  1
  O2-  O564  1  0.83056597  0.17674735  0.03899784  1
  O2-  O565  1  0.81305282  0.16165305  0.36774575  1
  O2-  O566  1  0.82531105  0.16364105  0.68327026  1
  O2-  O567  1  0.84541776  0.42139617  0.03213140  1
  O2-  O568  1  0.82206471  0.43159362  0.35300435  1
  O2-  O569  1  0.84470806  0.40870490  0.67156187  1
  O2-  O570  1  0.83323147  0.64158511  0.03035827  1
  O2-  O571  1  0.82767016  0.66767813  0.35374045  1
  O2-  O572  1  0.90580433  0.69143713  0.69788395  1
  O2-  O573  1  0.83064634  0.93477159  0.01784990  1
  O2-  O574  1  0.83103748  0.90998834  0.35421626  1
  O2-  O575  1  0.83875995  0.91611087  0.67320768  1
