# generated using pymatgen
data_H2O
_symmetry_space_group_name_H-M   'P 1'
_cell_length_a   17.99567662
_cell_length_b   17.99750061
_cell_length_c   21.99475865
_cell_angle_alpha   89.97475666
_cell_angle_beta   90.02049802
_cell_angle_gamma   120.00275815
_symmetry_Int_Tables_number   1
_chemical_formula_structural   H2O
_chemical_formula_sum   'H384 O192'
_cell_volume   6169.04717458
_cell_formula_units_Z   192
loop_
 _symmetry_equiv_pos_site_id
 _symmetry_equiv_pos_as_xyz
  1  'x, y, z'
loop_
 _atom_type_symbol
 _atom_type_oxidation_number
  H+  1.0
  O2-  -2.0
loop_
 _atom_site_type_symbol
 _atom_site_label
 _atom_site_symmetry_multiplicity
 _atom_site_fract_x
 _atom_site_fract_y
 _atom_site_fract_z
 _atom_site_occupancy
  H+  H0  1  0.27093993  0.62541244  0.34203802  1
  H+  H1  1  0.87935789  -0.01319329  0.47720005  1
  H+  H2  1  0.14280166  0.26784429  0.50350271  1
  H+  H3  1  0.38459477  0.76867306  0.66151272  1
  H+  H4  1  0.11201095  0.64439573  0.31672801  1
  H+  H5  1  0.14248528  0.86850333  0.83458230  1
  H+  H6  1  0.62263500  0.63117461  0.33909100  1
  H+  H7  1  0.36445686  0.20902252  0.50102157  1
  H+  H8  1  0.40163499  0.11749252  0.88728232  1
  H+  H9  1  0.51412096  0.63403815  0.82947170  1
  H+  H10  1  0.39289684  0.33040116  0.67496319  1
  H+  H11  1  0.62469648  0.85082096  0.50379644  1
  H+  H12  1  0.37722012  0.91335310  0.15053640  1
  H+  H13  1  0.22974645  0.10621783  0.66747416  1
  H+  H14  1  0.35300045  -0.03493622  0.68028420  1
  H+  H15  1  0.28246943  0.38332084  0.51125877  1
  H+  H16  1  0.75765893  0.37228406  0.31315194  1
  H+  H17  1  0.88712609  0.77794138  0.99571161  1
  H+  H18  1  0.35652516  0.97926529  0.33990045  1
  H+  H19  1  0.62455843  0.30709163  0.50991320  1
  H+  H20  1  0.10328404  0.12046270  0.83091499  1
  H+  H21  1  0.12123078  0.74028322  0.31131554  1
  H+  H22  1  0.97039965  0.11038830  0.83558936  1
  H+  H23  1  0.86938277  0.13790068  0.33514440  1
  H+  H24  1  0.62486144  0.77086243  0.18218221  1
  H+  H25  1  0.27979118  0.62527635  0.67441224  1
  H+  H26  1  0.19469423  0.34956582  0.66535246  1
  H+  H27  1  0.40035859  0.52351282  0.32646877  1
  H+  H28  1  0.12396062  0.58102200  0.17681649  1
  H+  H29  1  0.13269571  0.77394209  0.53059128  1
  H+  H30  1  0.42563181  0.56994232  0.23840183  1
  H+  H31  1  0.63574064  0.77907212  -0.00890175  1
  H+  H32  1  0.35441603  0.73062555  0.14045608  1
  H+  H33  1  0.71652102  0.35978560  1.01483088  1
  H+  H34  1  0.37376735  0.85152955  0.66037458  1
  H+  H35  1  0.88238784  0.52948786  0.51038858  1
  H+  H36  1  1.02858835  0.39220957  0.34516711  1
  H+  H37  1  0.61690616  0.64571719  0.48946595  1
  H+  H38  1  0.61970726  0.19077987  0.54646387  1
  H+  H39  1  0.61059928  0.64072594  0.16696361  1
  H+  H40  1  0.36354140  0.63447838  0.49487550  1
  H+  H41  1  0.11476246  -0.01131283  0.15357913  1
  H+  H42  1  0.84848565  0.47454449  0.15734450  1
  H+  H43  1  0.90514967  0.11578549  0.49758594  1
  H+  H44  1  0.09615534  0.67137645  0.76782005  1
  H+  H45  1  0.87382664  0.65273739  0.49265801  1
  H+  H46  1  0.77251569  0.12718321  0.14770811  1
  H+  H47  1  0.39643743  0.52420569  0.50988753  1
  H+  H48  1  0.87127223  0.21571781  0.49116119  1
  H+  H49  1  0.39396584  1.03501530  0.16561033  1
  H+  H50  1  0.14079154  0.79282397  -0.01284316  1
  H+  H51  1  0.88690907  0.77300558  0.66732082  1
  H+  H52  1  -0.00519869  0.35577465  0.82853516  1
  H+  H53  1  0.60079953  0.12712826  0.67908520  1
  H+  H54  1  0.41054025  0.08375306  0.26138503  1
  H+  H55  1  0.76077156  0.63978156  0.16855302  1
  H+  H56  1  0.28294027  0.39905593  0.33213116  1
  H+  H57  1  0.37932766  0.25942114  0.32698102  1
  H+  H58  1  0.34250197  0.93158281  0.05310321  1
  H+  H59  1  0.89374614  0.60844938  0.83873565  1
  H+  H60  1  0.13139169  0.52676166  0.33492176  1
  H+  H61  1  0.45040785  0.54018444  0.63998497  1
  H+  H62  1  0.14369217  0.51442110  0.51359199  1
  H+  H63  1  -0.01599254  0.35716336  0.49898940  1
  H+  H64  1  0.32294594  0.65439249  0.14522698  1
  H+  H65  1  0.88266181  0.76295162  0.83931716  1
  H+  H66  1  0.12996547  0.25588727  0.83883583  1
  H+  H67  1  0.37413187  0.74693593  -0.00739337  1
  H+  H68  1  0.08368264  0.15370394  0.76719214  1
  H+  H69  1  0.64806841  0.11785832  0.31232034  1
  H+  H70  1  0.12252378  0.85836630  0.52540975  1
  H+  H71  1  0.33099044  0.16966397  0.06834210  1
  H+  H72  1  1.02544714  0.63768908  0.67356630  1
  H+  H73  1  0.87210703  0.22894806  0.34083805  1
  H+  H74  1  0.90975159  0.84279857  0.57493630  1
  H+  H75  1  0.97733343  0.62804110  0.31322150  1
  H+  H76  1  1.08448335  0.65574508  0.58632232  1
  H+  H77  1  0.27952142  0.13496940  0.16088074  1
  H+  H78  1  0.89563164  0.77505551  0.17410995  1
  H+  H79  1  0.23200690  0.60628150  0.51270389  1
  H+  H80  1  0.47561896  0.36716731  -0.00856391  1
  H+  H81  1  0.54253695  0.65297613  0.67284054  1
  H+  H82  1  0.76877124  0.64162962  0.00997175  1
  H+  H83  1  0.45857070  0.35571786  0.33056250  1
  H+  H84  1  0.95343233  0.60681802  0.17741153  1
  H+  H85  1  0.15739049  0.52696030  0.98545788  1
  H+  H86  1  0.70989224  0.35611612  0.15684877  1
  H+  H87  1  0.21131969  0.25598505  0.12535595  1
  H+  H88  1  0.16195748  0.12867002  0.17006320  1
  H+  H89  1  0.77327058  0.62542864  0.82731938  1
  H+  H90  1  0.97613996  0.11570092  0.17405523  1
  H+  H91  1  0.60856957  0.73108994  0.49141841  1
  H+  H92  1  0.66030411  0.82288328  0.56262322  1
  H+  H93  1  0.47589034  0.08958315  0.54109497  1
  H+  H94  1  0.13287247  0.86044538  0.67366057  1
  H+  H95  1  0.88705028  0.11245908  -0.01549454  1
  H+  H96  1  0.38214829  0.11837174  0.98992429  1
  H+  H97  1  0.91028533  0.07714597  0.26234633  1
  H+  H98  1  0.88868016  0.62638372  0.32737986  1
  H+  H99  1  0.69174041  0.55934678  0.32833162  1
  H+  H100  1  0.87273631  0.89088070  0.67546353  1
  H+  H101  1  0.75500750  0.86182398  0.32737555  1
  H+  H102  1  0.90735592  0.37899725  0.34045114  1
  H+  H103  1  0.36019216  0.38106158  0.32691961  1
  H+  H104  1  0.59551725  0.24496153  0.67755780  1
  H+  H105  1  0.07609896  0.31507739  0.18843260  1
  H+  H106  1  0.37776324  0.57610192  0.17928678  1
  H+  H107  1  0.86705489  0.40740907  0.66645452  1
  H+  H108  1  0.12448505  -0.02201190  0.33561430  1
  H+  H109  1  0.99967390  0.87906468  0.32403434  1
  H+  H110  1  0.59538084  0.20704269  0.02028464  1
  H+  H111  1  0.88407414  0.75736635  0.33615426  1
  H+  H112  1  0.85756085  0.88783875  0.82529900  1
  H+  H113  1  0.51792265  0.36908704  0.81432939  1
  H+  H114  1  0.89325255  0.36219340  0.83279728  1
  H+  H115  1  0.61181971  0.64399447  0.01226352  1
  H+  H116  1  0.58667344  0.18013823  0.77549105  1
  H+  H117  1  0.23270565  0.10413172  0.51042892  1
  H+  H118  1  0.12098242  0.39957354  0.34465140  1
  H+  H119  1  0.86405715  0.63786410  0.67419734  1
  H+  H120  1  0.38315716  0.35207812  0.17131307  1
  H+  H121  1  0.84021785  0.92624541  0.73040872  1
  H+  H122  1  0.11729178  0.37920311  0.49570984  1
  H+  H123  1  0.59027726  0.16961985  0.37170690  1
  H+  H124  1  0.51546614  0.38914303  0.16031226  1
  H+  H125  1  0.36438672  0.89451032  0.33896743  1
  H+  H126  1  0.15053476  0.62734821  0.84047634  1
  H+  H127  1  0.65504316  0.75957728  0.32928113  1
  H+  H128  1  0.11470800  -0.02488203  0.67674784  1
  H+  H129  1  0.86347762  0.49274341  0.99451073  1
  H+  H130  1  0.58620812  0.99155185  0.68472311  1
  H+  H131  1  0.11916039  0.25723715  0.18313915  1
  H+  H132  1  0.97651009  0.61208838  0.51977714  1
  H+  H133  1  0.86037787  0.97864411  0.82645519  1
  H+  H134  1  0.89982546  0.01849357  0.65179824  1
  H+  H135  1  0.10207313  0.01303536  0.95007742  1
  H+  H136  1  0.12520564  0.73492236  0.82545142  1
  H+  H137  1  0.38586608  1.00943448  0.51891961  1
  H+  H138  1  0.49016837  0.34996256  0.66443554  1
  H+  H139  1  0.01681168  0.88659060  0.50951862  1
  H+  H140  1  1.01550399  0.12958665  0.32503898  1
  H+  H141  1  0.89954765  0.50190410  0.35820898  1
  H+  H142  1  0.27129126  0.14427576  0.00922826  1
  H+  H143  1  0.86157075  0.21256902  0.13942599  1
  H+  H144  1  0.88688408  0.86643567  -0.01049404  1
  H+  H145  1  0.82635319  0.16502326  0.68411130  1
  H+  H146  1  0.60477428  0.11287978  0.58994795  1
  H+  H147  1  0.27149057  0.87886640  0.82393550  1
  H+  H148  1  0.36257619  0.13107037  0.34083283  1
  H+  H149  1  0.72676644  0.69289764  0.87321738  1
  H+  H150  1  0.14550765  0.29400001  0.33936763  1
  H+  H151  1  0.12151978  0.88827202  0.33342068  1
  H+  H152  1  0.14718182  0.11066407  0.50867953  1
  H+  H153  1  0.48927579  0.89143455  0.16917548  1
  H+  H154  1  0.60788746  0.88938040  0.00118795  1
  H+  H155  1  0.76495946  0.14893419  0.85093861  1
  H+  H156  1  0.36401174  0.87181193  0.82215947  1
  H+  H157  1  0.38835065  0.77347220  0.83491061  1
  H+  H158  1  0.38057736  1.02971782  -0.02030451  1
  H+  H159  1  0.64318753  0.11384978  0.16907515  1
  H+  H160  1  0.84467706  0.63171918  0.16598206  1
  H+  H161  1  0.23881049  0.87179175  0.32346355  1
  H+  H162  1  0.87894866  0.26213948  0.84001083  1
  H+  H163  1  0.37844081  0.51436610  0.84652577  1
  H+  H164  1  0.15257933  0.80633770  0.16681491  1
  H+  H165  1  0.11481150  0.62273081  0.53152993  1
  H+  H166  1  0.36336154  0.45547484  0.16299758  1
  H+  H167  1  0.36737277  0.22725176  0.15961266  1
  H+  H168  1  0.11948495  0.25116366  0.66209166  1
  H+  H169  1  0.24091094  0.62153424  0.83678948  1
  H+  H170  1  0.41998066  0.84145004  0.92433207  1
  H+  H171  1  0.32726045  0.49060551  0.67857550  1
  H+  H172  1  0.59339502  0.21810625  0.31033393  1
  H+  H173  1  0.23213912  0.36154331  -0.01076156  1
  H+  H174  1  0.51929653  0.63305312  0.16467411  1
  H+  H175  1  0.02593514  0.89466619  0.00018918  1
  H+  H176  1  1.03598779  0.13458116  0.48556456  1
  H+  H177  1  0.11341126  0.46299230  0.68006889  1
  H+  H178  1  0.65988512  0.55302528  0.49885060  1
  H+  H179  1  0.78909057  0.67720236  0.33917366  1
  H+  H180  1  0.73681606  0.11792061  0.32266570  1
  H+  H181  1  0.36789230  0.39110681  1.00160964  1
  H+  H182  1  0.15541302  0.31717743  0.56656817  1
  H+  H183  1  0.36773450  0.89656342  -0.00614611  1
  H+  H184  1  0.88478990  0.10425500  0.16422446  1
  H+  H185  1  0.72017817  0.86771535  0.83490605  1
  H+  H186  1  0.52041398  0.87863183  0.48873805  1
  H+  H187  1  0.11536460  0.72845309  0.67350243  1
  H+  H188  1  0.61030066  0.37787367  0.80823491  1
  H+  H189  1  0.10392553  -0.02920380  0.83551916  1
  H+  H190  1  0.37134977  0.88767547  0.49326535  1
  H+  H191  1  0.09771579  0.35605139  0.82750901  1
  H+  H192  1  -0.01807065  0.39142965  0.65069950  1
  H+  H193  1  0.61031006  -0.03420165  0.47528562  1
  H+  H194  1  0.87992501  0.89505268  0.33349392  1
  H+  H195  1  0.62856188  0.52741487  0.17749066  1
  H+  H196  1  0.47657369  0.88068505  0.32631098  1
  H+  H197  1  0.74224442  0.35410316  0.34439814  1
  H+  H198  1  0.02010032  0.87832858  0.82789331  1
  H+  H199  1  0.26216102  0.37472240  0.83261201  1
  H+  H200  1  0.48779702  0.61623488  0.32692308  1
  H+  H201  1  0.61405366  0.89095332  0.16306008  1
  H+  H202  1  0.12030879  0.12908033  0.67287575  1
  H+  H203  1  0.62445989  -0.01593670  0.15713351  1
  H+  H204  1  0.65021094  0.27791308  0.82948153  1
  H+  H205  1  0.89190414  0.35129285  0.49565074  1
  H+  H206  1  0.38542697  0.76764230  0.50629868  1
  H+  H207  1  0.52376740  0.13158600  0.16024426  1
  H+  H208  1  0.63418416  0.51608607  0.65809435  1
  H+  H209  1  1.02345153  0.13914815  1.01355631  1
  H+  H210  1  0.64749510  0.14303659  -0.04078462  1
  H+  H211  1  0.36650223  0.08832332  0.67499146  1
  H+  H212  1  0.51173165  0.89418801  0.67937136  1
  H+  H213  1  0.24285212  0.62193950  -0.01563881  1
  H+  H214  1  0.74140083  0.86955090  0.65274888  1
  H+  H215  1  0.85089263  0.13805980  0.83520955  1
  H+  H216  1  0.61695377  0.41684633  0.49669727  1
  H+  H217  1  0.65774641  0.77983045  0.66090117  1
  H+  H218  1  0.61226541  0.97695948  0.33736995  1
  H+  H219  1  0.02284205  0.65461878  0.00490044  1
  H+  H220  1  0.19541164  0.55343720  0.17302602  1
  H+  H221  1  0.63816116  0.09469067  0.49838964  1
  H+  H222  1  0.72551489  0.09909926  0.47817212  1
  H+  H223  1  0.23276595  0.87927403  0.98570985  1
  H+  H224  1  0.36381924  0.63044395  0.82998460  1
  H+  H225  1  0.76475821  0.37278098  0.51816915  1
  H+  H226  1  0.36711785  0.12153328  0.50308534  1
  H+  H227  1  0.39575626  0.12424991  0.16912475  1
  H+  H228  1  0.09142396  0.36469163  0.67353791  1
  H+  H229  1  0.88489498  0.52906257  0.66390488  1
  H+  H230  1  0.86542469  0.89368980  0.48612351  1
  H+  H231  1  0.04537302  0.40306004  -0.00316429  1
  H+  H232  1  0.88612694  0.78586525  0.51472289  1
  H+  H233  1  0.50430657  0.15248253  0.68544148  1
  H+  H234  1  0.37387526  0.63589280  0.66999951  1
  H+  H235  1  0.35919831  0.62401400  0.34417009  1
  H+  H236  1  0.65910269  0.31928124  0.58274320  1
  H+  H237  1  0.85496176  0.35273070  0.17233817  1
  H+  H238  1  0.88477440  1.01913351  0.32327402  1
  H+  H239  1  0.63781521  0.63433274  0.84485432  1
  H+  H240  1  0.12101673  0.19107892  0.09283169  1
  H+  H241  1  0.09341231  0.19231351  0.28664223  1
  H+  H242  1  0.61491798  0.38049374  0.66048621  1
  H+  H243  1  0.88298828  0.62218736  -0.00550206  1
  H+  H244  1  0.60629608  0.39383893  1.01494285  1
  H+  H245  1  0.37824954  0.34874061  0.83698951  1
  H+  H246  1  0.36808973  0.20716515  0.68868277  1
  H+  H247  1  0.85355951  0.41430160  0.55251908  1
  H+  H248  1  0.77221147  0.63316082  0.67474459  1
  H+  H249  1  0.14160059  0.11253522  0.32165205  1
  H+  H250  1  0.78832663  0.39158848  0.82218967  1
  H+  H251  1  0.89019886  0.02537445  0.98931827  1
  H+  H252  1  0.19120230  0.71650217  0.18843180  1
  H+  H253  1  0.47134731  0.33422177  0.51616083  1
  H+  H254  1  0.07632307  0.43680750  0.15993309  1
  H+  H255  1  0.23306731  0.11628325  0.32837348  1
  H+  H256  1  0.88010962  0.47858899  0.82902997  1
  H+  H257  1  0.47183322  0.10711644  0.31792161  1
  H+  H258  1  0.11056000  0.96719879  0.50600330  1
  H+  H259  1  0.11083793  0.68478381  0.23134241  1
  H+  H260  1  0.38658513  0.27764939  0.99227373  1
  H+  H261  1  0.98720283  0.35467334  0.14562458  1
  H+  H262  1  0.81880294  0.40613832  -0.04224336  1
  H+  H263  1  0.39183234  0.62355316  0.99443490  1
  H+  H264  1  1.02807945  0.12319185  0.66868956  1
  H+  H265  1  0.63021855  0.77930154  0.83674364  1
  H+  H266  1  0.93605833  0.84931786  0.26420182  1
  H+  H267  1  0.39568858  0.80768707  0.16583337  1
  H+  H268  1  0.11170450  0.22702872  0.00590683  1
  H+  H269  1  0.77149995  0.88744921  -0.00199506  1
  H+  H270  1  0.62917728  0.15835982  0.83563796  1
  H+  H271  1  0.60014177  0.89195883  0.82672784  1
  H+  H272  1  0.61292165  0.35111681  0.30386460  1
  H+  H273  1  0.66386732  0.83664167  -0.07014540  1
  H+  H274  1  0.11940641  0.90522843  -0.00320264  1
  H+  H275  1  0.51019408  0.12351418  0.00072090  1
  H+  H276  1  0.71691217  0.85022858  0.17555012  1
  H+  H277  1  0.86644854  0.14389231  0.66154150  1
  H+  H278  1  0.60318252  0.38974949  0.15155181  1
  H+  H279  1  0.62115888  0.63599586  0.67924970  1
  H+  H280  1  0.47936224  0.87085770  0.98610582  1
  H+  H281  1  0.57691317  0.49022539  0.35042095  1
  H+  H282  1  0.14459796  0.60177030  0.66589076  1
  H+  H283  1  0.85092603  0.85609016  0.15419331  1
  H+  H284  1  0.32816732  0.40769617  0.66508405  1
  H+  H285  1  0.25920893  0.87513347  0.67875012  1
  H+  H286  1  0.63257241  0.53037626  0.99659242  1
  H+  H287  1  0.74652760  0.63917507  0.50707183  1
  H+  H288  1  0.34068651  0.92390392  0.43811778  1
  H+  H289  1  0.98226672  0.86773950  0.16467075  1
  H+  H290  1  0.65090805  0.57642158  0.24172755  1
  H+  H291  1  0.15577553  0.56663597  0.26962358  1
  H+  H292  1  0.47845543  0.61989425  0.99776185  1
  H+  H293  1  0.89813245  0.57659779  0.23797887  1
  H+  H294  1  0.15950583  0.31892236  0.89799301  1
  H+  H295  1  0.33894931  0.65967436  0.76723714  1
  H+  H296  1  0.55942992  0.39782419  0.43728061  1
  H+  H297  1  0.82611381  0.90552729  0.05835911  1
  H+  H298  1  0.14908202  0.33125254  0.27472881  1
  H+  H299  1  0.56761409  0.92423085  0.76859786  1
  H+  H300  1  0.49134362  0.45437657  0.39399630  1
  H+  H301  1  0.67999760  0.82875647  0.26812656  1
  H+  H302  1  0.09391118  0.67964767  0.05540472  1
  H+  H303  1  0.09086766  0.41717151  0.43797341  1
  H+  H304  1  0.32621351  0.65680076  0.43630289  1
  H+  H305  1  0.32608165  0.90033927  0.75593991  1
  H+  H306  1  0.14592134  0.36552891  0.98950151  1
  H+  H307  1  0.68161551  0.08825680  0.22727970  1
  H+  H308  1  0.32000474  0.41489315  0.77445735  1
  H+  H309  1  0.41291209  0.57923160  0.90387855  1
  H+  H310  1  0.17540190  0.84450382  0.89482451  1
  H+  H311  1  0.16094196  0.83420937  0.60991091  1
  H+  H312  1  0.76967459  0.79239078  0.11762030  1
  H+  H313  1  0.17420558  0.56913605  0.60823478  1
  H+  H314  1  0.52998888  0.17995909  0.44361714  1
  H+  H315  1  0.40064339  0.06157627  0.61495333  1
  H+  H316  1  0.82078402  0.26707164  0.20919999  1
  H+  H317  1  0.18206324  0.59015549  0.90570683  1
  H+  H318  1  0.84470270  0.92034822  0.39548200  1
  H+  H319  1  0.17567636  0.08670233  0.23175405  1
  H+  H320  1  0.42114195  0.86315002  0.26620701  1
  H+  H321  1  0.57303637  0.42835305  0.06834254  1
  H+  H322  1  0.58164856  0.67492251  0.07088964  1
  H+  H323  1  0.57664630  0.91544157  0.06051342  1
  H+  H324  1  0.67774011  0.35762162  0.87798245  1
  H+  H325  1  0.10131319  0.16430794  0.42942228  1
  H+  H326  1  0.32889959  0.14802714  0.74852113  1
  H+  H327  1  0.33593500  0.15649545  0.40424792  1
  H+  H328  1  0.47976161  0.86876139  0.83260054  1
  H+  H329  1  0.14699899  0.89188484  0.15950274  1
  H+  H330  1  0.91334990  0.58882524  0.60389115  1
  H+  H331  1  0.09158874  0.41457112  0.05976897  1
  H+  H332  1  0.36638832  0.47967968  0.00638436  1
  H+  H333  1  0.82168608  0.15304361  0.04659836  1
  H+  H334  1  0.83187867  0.42329070  0.09473276  1
  H+  H335  1  0.34779902  0.70212279  0.05659424  1
  H+  H336  1  0.92999346  0.35837721  0.58859622  1
  H+  H337  1  0.62428445  0.26302588  0.15320860  1
  H+  H338  1  0.59687098  0.67318478  0.39697871  1
  H+  H339  1  0.41464288  0.32277987  0.23163448  1
  H+  H340  1  0.91638392  0.39021614  -0.01306815  1
  H+  H341  1  0.82655827  0.66873822  0.06998652  1
  H+  H342  1  0.18690677  0.85818245  0.25977423  1
  H+  H343  1  0.91031053  0.82531090  0.89750178  1
  H+  H344  1  0.93699612  0.35050683  0.92885983  1
  H+  H345  1  0.91621886  0.34364204  0.27543401  1
  H+  H346  1  0.64780436  0.30730769  0.96581737  1
  H+  H347  1  0.68810651  0.12697129  0.67481436  1
  H+  H348  1  0.66646381  0.59768872  0.94012572  1
  H+  H349  1  0.57411907  0.14308507  0.09774149  1
  H+  H350  1  0.57783999  0.66610549  0.77080412  1
  H+  H351  1  0.61609259  0.31394918  0.23898703  1
  H+  H352  1  0.97817698  0.86149013  0.66729692  1
  H+  H353  1  0.17563514  0.08087677  0.60411719  1
  H+  H354  1  0.28702751  0.91328157  0.14745845  1
  H+  H355  1  0.90063918  0.11028855  0.64697334  1
  H+  H356  1  0.43144581  0.58946339  0.58813652  1
  H+  H357  1  0.58024675  0.41063797  0.72196516  1
  H+  H358  1  0.84002003  0.42624308  0.73124354  1
  H+  H359  1  0.67091850  0.58594177  0.60388801  1
  H+  H360  1  0.55639836  0.15846294  0.44787267  1
  H+  H361  1  0.86766620  0.44156453  0.41631407  1
  H+  H362  1  0.36855256  0.37839322  0.51496166  1
  H+  H363  1  0.82987936  0.65240576  0.76654126  1
  H+  H364  1  0.98709977  0.61701941  0.84210880  1
  H+  H365  1  0.91664210  0.08263857  0.89690970  1
  H+  H366  1  0.41525844  0.32819135  0.89594289  1
  H+  H367  1  0.84845281  0.69123148  0.43510330  1
  H+  H368  1  0.33742490  0.40781200  0.09916323  1
  H+  H369  1  0.08266960  0.91850756  0.73827740  1
  H+  H370  1  0.57701215  0.91003779  0.39206801  1
  H+  H371  1  0.79455119  0.17805981  0.74989440  1
  H+  H372  1  0.36496832  0.21316454  0.83950171  1
  H+  H373  1  0.06944697  0.39053412  0.76557018  1
  H+  H374  1  0.84573922  0.16020367  0.43065767  1
  H+  H375  1  0.29180016  0.56696473  0.10452094  1
  H+  H376  1  0.78368677  0.15545938  -0.01883901  1
  H+  H377  1  0.91987164  0.59607335  0.93511374  1
  H+  H378  1  0.41648768  0.82813103  0.56510239  1
  H+  H379  1  0.41587121  0.30590422  0.57759387  1
  H+  H380  1  0.48406300  0.61642445  0.49962425  1
  H+  H381  1  0.71232360  0.36422669  0.65935933  1
  H+  H382  1  0.08695833  0.93511928  0.09045596  1
  H+  H383  1  0.93689498  0.08176700  0.55440759  1
  O2-  O384  1  0.15363782  0.20868716  0.13423451  1
  O2-  O385  1  0.09940918  0.16547962  0.47374913  1
  O2-  O386  1  0.08025572  0.15652853  0.81233504  1
  O2-  O387  1  0.04905766  0.37902604  0.13996091  1
  O2-  O388  1  0.08810343  0.41208976  0.48346591  1
  O2-  O389  1  0.06546459  0.38537936  0.81172634  1
  O2-  O390  1  0.12865829  0.68925461  0.18680975  1
  O2-  O391  1  0.08092248  0.65152822  0.54179629  1
  O2-  O392  1  0.09792261  0.67277058  0.81308222  1
  O2-  O393  1  0.08429408  0.92926353  0.13593695  1
  O2-  O394  1  0.07660043  0.90524424  0.49689907  1
  O2-  O395  1  0.08127084  0.91203114  0.81508259  1
  O2-  O396  1  0.33833430  0.16705229  0.14219607  1
  O2-  O397  1  0.33714265  0.14977603  0.48345282  1
  O2-  O398  1  0.33918348  0.14998352  0.83021117  1
  O2-  O399  1  0.33226136  0.39751995  0.14387538  1
  O2-  O400  1  0.34577419  0.41767769  0.50808509  1
  O2-  O401  1  0.32372615  0.40901569  0.81871258  1
  O2-  O402  1  0.29413603  0.58618109  0.14635826  1
  O2-  O403  1  0.32872358  0.66086063  0.48263899  1
  O2-  O404  1  0.33503279  0.66153441  0.81263517  1
  O2-  O405  1  0.34685007  0.94192646  0.13122198  1
  O2-  O406  1  0.34657123  0.92457857  0.48291088  1
  O2-  O407  1  0.33082824  0.90201812  0.80511555  1
  O2-  O408  1  0.58320057  0.15704572  0.14214837  1
  O2-  O409  1  0.58793758  0.12701625  0.54971682  1
  O2-  O410  1  0.60066880  0.19017333  0.81956184  1
  O2-  O411  1  0.57541146  0.42472038  0.14331726  1
  O2-  O412  1  0.56726801  0.37167780  0.47579656  1
  O2-  O413  1  0.57514778  0.40344193  0.79551103  1
  O2-  O414  1  0.58036858  0.67076339  0.15065163  1
  O2-  O415  1  0.58189519  0.66848145  0.47171186  1
  O2-  O416  1  0.57532182  0.66785969  0.81629401  1
  O2-  O417  1  0.58820848  0.92283894  0.14404936  1
  O2-  O418  1  0.57849030  0.90159735  0.47035316  1
  O2-  O419  1  0.56450564  0.91724821  0.81512564  1
  O2-  O420  1  0.83144166  0.15154232  0.12891231  1
  O2-  O421  1  0.84510022  0.15554857  0.47601132  1
  O2-  O422  1  0.82312939  0.17287375  0.82634107  1
  O2-  O423  1  0.82138463  0.41584812  0.13864483  1
  O2-  O424  1  0.82953162  0.41407492  0.51253606  1
  O2-  O425  1  0.85134245  0.41969887  0.81122458  1
  O2-  O426  1  0.82069483  0.66758944  0.15117148  1
  O2-  O427  1  0.84453946  0.68524191  0.48012375  1
  O2-  O428  1  0.83275530  0.64948121  0.81221399  1
  O2-  O429  1  0.79934760  0.85143280  0.13239426  1
  O2-  O430  1  0.84623397  0.92721663  0.46123968  1
  O2-  O431  1  0.82830693  0.91836771  0.80980258  1
  O2-  O432  1  0.17726525  0.08593915  0.18600482  1
  O2-  O433  1  0.17385812  0.07974630  0.52809269  1
  O2-  O434  1  0.13402269  0.06010595  0.86831371  1
  O2-  O435  1  0.09374313  0.28008951  0.21306145  1
  O2-  O436  1  0.16696336  0.32613683  0.52204008  1
  O2-  O437  1  0.15682783  0.31795787  0.85221022  1
  O2-  O438  1  0.13673531  0.53582819  0.18932399  1
  O2-  O439  1  0.17353147  0.57273073  0.53262561  1
  O2-  O440  1  0.18035908  0.59525281  0.85516701  1
  O2-  O441  1  0.18367236  0.86822858  0.17553059  1
  O2-  O442  1  0.15714427  0.83351060  0.54425106  1
  O2-  O443  1  0.17497161  0.83948880  0.84900444  1
  O2-  O444  1  0.42486725  0.09324909  0.18565424  1
  O2-  O445  1  0.41273095  0.06745427  0.54142655  1
  O2-  O446  1  0.41093172  0.13570038  0.84379477  1
  O2-  O447  1  0.41756163  0.32484943  0.18589996  1
  O2-  O448  1  0.41197754  0.30903827  0.53242154  1
  O2-  O449  1  0.40978790  0.31967429  0.85089257  1
  O2-  O450  1  0.42201667  0.56210083  0.19248279  1
  O2-  O451  1  0.42517090  0.58739505  0.51936906  1
  O2-  O452  1  0.40992252  0.57638934  0.85831661  1
  O2-  O453  1  0.42795089  0.86903436  0.18223569  1
  O2-  O454  1  0.41829325  0.82873342  0.51982551  1
  O2-  O455  1  0.41292464  0.83410310  0.84766580  1
  O2-  O456  1  0.67910235  0.08811079  0.18122330  1
  O2-  O457  1  0.66382451  0.07213508  0.46857025  1
  O2-  O458  1  0.68153764  0.12221079  0.88005321  1
  O2-  O459  1  0.64767392  0.32456058  0.16603915  1
  O2-  O460  1  0.66752885  0.30389244  0.53525362  1
  O2-  O461  1  0.68562912  0.34699988  0.83592692  1
  O2-  O462  1  0.65860128  0.58601394  0.19581310  1
  O2-  O463  1  0.68500271  0.60610115  0.52201218  1
  O2-  O464  1  0.68679957  0.63205757  0.86594854  1
  O2-  O465  1  0.66142409  0.83164408  0.19689320  1
  O2-  O466  1  0.64876772  0.81436198  0.51795683  1
  O2-  O467  1  0.66091536  0.83920929  0.85227676  1
  O2-  O468  1  0.91630703  0.07976920  0.18605147  1
  O2-  O469  1  0.93999065  0.08786650  0.50911695  1
  O2-  O470  1  0.91035504  0.08212584  0.85132068  1
  O2-  O471  1  0.87341660  0.31424833  0.19216443  1
  O2-  O472  1  0.92195107  0.32250581  0.51191092  1
  O2-  O473  1  0.92055386  0.32859797  0.84905859  1
  O2-  O474  1  0.89431797  0.57315507  0.19164470  1
  O2-  O475  1  0.91342137  0.59137993  0.52104359  1
  O2-  O476  1  0.92755633  0.58413511  0.85818593  1
  O2-  O477  1  0.92485464  0.83700423  0.18529648  1
  O2-  O478  1  0.90978777  0.84555918  0.52959002  1
  O2-  O479  1  0.90784234  0.82373116  0.85203134  1
  O2-  O480  1  0.17520718  0.08543619  0.30825686  1
  O2-  O481  1  0.17072530  0.07854777  0.64976800  1
  O2-  O482  1  0.08620120  0.04651629  0.92215421  1
  O2-  O483  1  0.17047060  0.34914014  0.31771899  1
  O2-  O484  1  0.13910598  0.31130278  0.64575065  1
  O2-  O485  1  0.17187748  0.33135558  0.97379194  1
  O2-  O486  1  0.16003507  0.58331453  0.31297247  1
  O2-  O487  1  0.17422745  0.56987216  0.65428695  1
  O2-  O488  1  0.18489004  0.58531481  0.96613202  1
  O2-  O489  1  0.17909316  0.84256973  0.30340560  1
  O2-  O490  1  0.16294844  0.83005990  0.65796715  1
  O2-  O491  1  0.17230076  0.85240185  0.97020706  1
  O2-  O492  1  0.41023459  0.08226959  0.30708079  1
  O2-  O493  1  0.40070672  0.06159659  0.66107317  1
  O2-  O494  1  0.41160333  0.09199087  0.96813333  1
  O2-  O495  1  0.40580903  0.31718227  0.30694373  1
  O2-  O496  1  0.42421279  0.30582800  0.65568619  1
  O2-  O497  1  0.41606179  0.33647822  0.97442014  1
  O2-  O498  1  0.42809413  0.58484759  0.31134309  1
  O2-  O499  1  0.43279667  0.58315914  0.63538822  1
  O2-  O500  1  0.41792746  0.58843323  0.98196940  1
  O2-  O501  1  0.41590297  0.85729988  0.31074667  1
  O2-  O502  1  0.40895970  0.82717658  0.64450241  1
  O2-  O503  1  0.41766283  0.84106046  0.96993958  1
  O2-  O504  1  0.68027716  0.08814372  0.30128785  1
  O2-  O505  1  0.62730696  0.09492536  0.65999223  1
  O2-  O506  1  0.70267256  0.17080759  0.93688674  1
  O2-  O507  1  0.58922839  0.29843843  0.28034063  1
  O2-  O508  1  0.65368185  0.33468387  0.64273426  1
  O2-  O509  1  0.65356649  0.32563572  1.00811852  1
  O2-  O510  1  0.64097327  0.56111862  0.31562587  1
  O2-  O511  1  0.66678100  0.57992033  0.64874013  1
  O2-  O512  1  0.66489924  0.59275777  0.98545682  1
  O2-  O513  1  0.69017929  0.82373420  0.31314842  1
  O2-  O514  1  0.68192328  0.83360737  0.63763322  1
  O2-  O515  1  0.66792034  0.83892064  0.97543379  1
  O2-  O516  1  0.91380620  0.08010191  0.30809156  1
  O2-  O517  1  0.93313063  0.07824888  0.63314527  1
  O2-  O518  1  0.92265688  0.08511131  0.97390672  1
  O2-  O519  1  0.92319835  0.33907996  0.31943888  1
  O2-  O520  1  0.93777617  0.39387490  0.62510320  1
  O2-  O521  1  0.95231118  0.36759781  0.97186366  1
  O2-  O522  1  0.91290113  0.59134471  0.31112522  1
  O2-  O523  1  0.91876063  0.59087106  0.64896617  1
  O2-  O524  1  0.91510809  0.59288640  0.98067923  1
  O2-  O525  1  0.93591881  0.85045503  0.30946235  1
  O2-  O526  1  0.91730011  0.83358934  0.65258391  1
  O2-  O527  1  0.91817078  0.83575586  0.97666141  1
  O2-  O528  1  0.08288555  0.17315478  0.02994701  1
  O2-  O529  1  0.08065240  0.16622697  0.32719301  1
  O2-  O530  1  0.08666600  0.15656850  0.68782628  1
  O2-  O531  1  0.10453211  0.42672129  0.01596027  1
  O2-  O532  1  0.08799200  0.42613750  0.36187657  1
  O2-  O533  1  0.07235219  0.40284438  0.69308496  1
  O2-  O534  1  0.08528144  0.69019237  0.01333600  1
  O2-  O535  1  0.08274747  0.67660853  0.30318608  1
  O2-  O536  1  0.08836192  0.66442089  0.68219001  1
  O2-  O537  1  0.08735089  0.93400885  0.01129004  1
  O2-  O538  1  0.08933212  0.91681990  0.34726424  1
  O2-  O539  1  0.08170673  0.91496699  0.69268907  1
  O2-  O540  1  0.33110005  0.17268745  0.02222692  1
  O2-  O541  1  0.33283471  0.16054497  0.35899370  1
  O2-  O542  1  0.32668510  0.14791380  0.70318077  1
  O2-  O543  1  0.33620050  0.41849379  0.01960235  1
  O2-  O544  1  0.34385915  0.42227921  0.34333228  1
  O2-  O545  1  0.30104040  0.43034689  0.69186988  1
  O2-  O546  1  0.34516067  0.68740154  0.01328189  1
  O2-  O547  1  0.32505955  0.64590109  0.36458799  1
  O2-  O548  1  0.34058964  0.65898858  0.68962325  1
  O2-  O549  1  0.33721483  0.92733749  0.00776704  1
  O2-  O550  1  0.32757272  0.91946717  0.35561129  1
  O2-  O551  1  0.32154338  0.90177744  0.69328806  1
  O2-  O552  1  0.56837647  0.14411458  0.01935663  1
  O2-  O553  1  0.58414496  0.16187960  0.32768615  1
  O2-  O554  1  0.56329335  0.18848633  0.70117855  1
  O2-  O555  1  0.57688187  0.42703966  0.02245154  1
  O2-  O556  1  0.53148593  0.43740210  0.37840626  1
  O2-  O557  1  0.58012684  0.41273240  0.67584806  1
  O2-  O558  1  0.58116043  0.67480901  0.02535482  1
  O2-  O559  1  0.60177001  0.67326918  0.35114117  1
  O2-  O560  1  0.59606996  0.67084211  0.69553286  1
  O2-  O561  1  0.57222501  0.91361364  0.01563817  1
  O2-  O562  1  0.57460685  0.91589474  0.34705508  1
  O2-  O563  1  0.56719867  0.93230509  0.69944503  1
  O2-  O564  1  0.83397612  0.16036994  0.00266513  1
  O2-  O565  1  0.84003275  0.16760693  0.35320042  1
  O2-  O566  1  0.78823803  0.18496150  0.70563954  1
  O2-  O567  1  0.83207029  0.42723961  -0.00043149  1
  O2-  O568  1  0.90408322  0.45629671  0.38035406  1
  O2-  O569  1  0.83283515  0.43035139  0.68673202  1
  O2-  O570  1  0.82979706  0.67039164  0.02468679  1
  O2-  O571  1  0.84753777  0.69609063  0.35302623  1
  O2-  O572  1  0.83199856  0.66567895  0.69121522  1
  O2-  O573  1  0.83204919  0.91490193  0.01385160  1
  O2-  O574  1  0.84155933  0.91754418  0.34743032  1
  O2-  O575  1  0.84597811  0.92679878  0.68520990  1
