# generated using pymatgen
data_H2O
_symmetry_space_group_name_H-M   'P 1'
_cell_length_a   17.96442855
_cell_length_b   17.98049883
_cell_length_c   21.98245111
_cell_angle_alpha   89.96934614
_cell_angle_beta   90.01664234
_cell_angle_gamma   119.99069452
_symmetry_Int_Tables_number   1
_chemical_formula_structural   H2O
_chemical_formula_sum   'H384 O192'
_cell_volume   6149.82197085
_cell_formula_units_Z   192
loop_
 _symmetry_equiv_pos_site_id
 _symmetry_equiv_pos_as_xyz
  1  'x, y, z'
loop_
 _atom_type_symbol
 _atom_type_oxidation_number
  H+  1.0
  O2-  -2.0
loop_
 _atom_site_type_symbol
 _atom_site_label
 _atom_site_symmetry_multiplicity
 _atom_site_fract_x
 _atom_site_fract_y
 _atom_site_fract_z
 _atom_site_occupancy
  H+  H0  1  0.41424031  0.16523285  0.12609198  1
  H+  H1  1  0.11820366  0.15043314  0.15358123  1
  H+  H2  1  0.13585827  0.52491136  0.17579291  1
  H+  H3  1  0.38552773  0.29715108  0.17765425  1
  H+  H4  1  0.85139623  0.48211073  0.34400316  1
  H+  H5  1  0.13504480  1.02556248  0.50475091  1
  H+  H6  1  0.53374241  0.62492039  0.82985369  1
  H+  H7  1  1.02621154  0.89349680  0.67617549  1
  H+  H8  1  0.62052392  0.51917034  0.10522251  1
  H+  H9  1  0.07447405  0.19319986  0.34626618  1
  H+  H10  1  0.65856320  0.59098717  0.28305005  1
  H+  H11  1  0.89262029  0.77731958  0.84105044  1
  H+  H12  1  0.89211988  0.09591079  0.90809888  1
  H+  H13  1  0.86221125  0.97427013  0.67378254  1
  H+  H14  1  0.97457101  0.86373032  0.50658266  1
  H+  H15  1  0.36044942  0.71558912  0.65939300  1
  H+  H16  1  0.38246196  0.27590968  0.51004585  1
  H+  H17  1  0.46885679  0.36807486  0.50953835  1
  H+  H18  1  0.82642401  0.41231229  0.09813622  1
  H+  H19  1  0.62746957  0.84872981  0.83623081  1
  H+  H20  1  1.01742617  0.41443069  0.33119715  1
  H+  H21  1  0.60192748  0.64056800  0.35109988  1
  H+  H22  1  0.88682479  0.59051793  0.99715064  1
  H+  H23  1  0.36172838  0.38256862  0.81786241  1
  H+  H24  1  0.35047893  0.15686752  0.34862638  1
  H+  H25  1  0.62587901  0.38906896  0.16527850  1
  H+  H26  1  0.22626974  0.11256784  0.83980461  1
  H+  H27  1  0.64530202  0.98914038  0.35259448  1
  H+  H28  1  0.87512409  0.40190358  0.82828695  1
  H+  H29  1  0.02250910  0.39793639  0.15632742  1
  H+  H30  1  0.36281965  0.96783391  0.34027964  1
  H+  H31  1  0.80989559  0.82547239  0.14363657  1
  H+  H32  1  0.85731061  0.38399355  0.15805840  1
  H+  H33  1  0.61031380  0.36212461  0.99942374  1
  H+  H34  1  0.94167215  0.70374534  0.70452187  1
  H+  H35  1  0.60970866  0.21253280  0.67789835  1
  H+  H36  1  0.86581259  0.13266088  0.48777923  1
  H+  H37  1  0.11750946  0.23861515  0.15553131  1
  H+  H38  1  0.52046971  0.14608279  0.33355462  1
  H+  H39  1  0.11973914  0.10132405  0.33549267  1
  H+  H40  1  0.71463050  0.36679207  0.51195583  1
  H+  H41  1  0.33989391  0.90694678  0.09459923  1
  H+  H42  1  0.35352257  0.86203990  1.00132901  1
  H+  H43  1  0.14382003  0.88150884  0.65515906  1
  H+  H44  1  0.36207924  0.22670618  0.82711999  1
  H+  H45  1  0.87384543  0.37429348  0.32501860  1
  H+  H46  1  0.54034713  0.12528833  0.98714348  1
  H+  H47  1  0.60901896  0.22131375  0.83200045  1
  H+  H48  1  0.92568519  0.29961972  0.84317554  1
  H+  H49  1  0.87909790  0.28867703  0.32390114  1
  H+  H50  1  0.63119214  0.75701806  0.99195713  1
  H+  H51  1  0.72355888  0.34332767  0.66133824  1
  H+  H52  1  0.03733982  0.87197315  0.83536665  1
  H+  H53  1  0.25795074  0.14675682  0.34154245  1
  H+  H54  1  0.15324203  0.08461835  0.24138054  1
  H+  H55  1  0.21511436  0.35398443  0.50806370  1
  H+  H56  1  0.83858856  0.60032625  0.16651989  1
  H+  H57  1  0.50608909  0.86976621  0.15240769  1
  H+  H58  1  0.72910828  0.37449540  0.17563948  1
  H+  H59  1  0.74081110  0.09548114  0.99255448  1
  H+  H60  1  0.32592453  0.39228661  0.13869312  1
  H+  H61  1  0.28311995  0.41463563  0.33555128  1
  H+  H62  1  0.33424650  0.42233364  0.72302927  1
  H+  H63  1  0.39764419  0.12574449  0.48733601  1
  H+  H64  1  0.64273736  0.77393032  0.65968185  1
  H+  H65  1  0.86483130  0.03634008  0.84985141  1
  H+  H66  1  0.10770759  0.67196049  0.82767113  1
  H+  H67  1  0.98793121  0.89822024  0.99674503  1
  H+  H68  1  0.62366689  0.86170475  0.17232051  1
  H+  H69  1  0.85133335  0.38257305  0.49410985  1
  H+  H70  1  0.49002227  0.13486181  0.47885426  1
  H+  H71  1  0.12131908  0.43235782  0.81847996  1
  H+  H72  1  0.37593399  0.01884512  0.83213116  1
  H+  H73  1  0.09421459  0.03241950  0.18634109  1
  H+  H74  1  0.83146430  0.10379309  0.33702553  1
  H+  H75  1  0.87536850  0.50918540  0.17575353  1
  H+  H76  1  0.73324554  0.61523594  0.65463379  1
  H+  H77  1  0.11439585  0.26331821  0.83796406  1
  H+  H78  1  0.59984821  0.73269332  0.16705448  1
  H+  H79  1  0.38421828  0.75995022  0.17552066  1
  H+  H80  1  0.38619051  -0.00861027  0.48527069  1
  H+  H81  1  0.13612025  0.11461408  0.50788030  1
  H+  H82  1  0.48926656  0.62752509  0.33381031  1
  H+  H83  1  0.94925993  0.58842941  0.64787722  1
  H+  H84  1  0.37907832  0.89772324  0.49693994  1
  H+  H85  1  0.39138598  0.53022334  0.33226550  1
  H+  H86  1  0.96107327  0.60010501  0.17448112  1
  H+  H87  1  0.37242127  0.85553939  0.83681424  1
  H+  H88  1  0.11945633  0.89990098  0.48922629  1
  H+  H89  1  0.39679762  0.86759088  0.32905787  1
  H+  H90  1  0.10654182  0.13601302  0.66958933  1
  H+  H91  1  0.86393410  0.89705669  0.82925516  1
  H+  H92  1  0.51548798  0.39543688  0.67932034  1
  H+  H93  1  0.13059378  0.04051652  0.99254669  1
  H+  H94  1  0.60450369  0.39265558  0.50088678  1
  H+  H95  1  0.46262478  0.57287864  0.02006725  1
  H+  H96  1  0.15522407  0.30257678  -0.01592449  1
  H+  H97  1  0.09102138  0.68127632  0.05196494  1
  H+  H98  1  0.08980986  0.91717260  0.73367270  1
  H+  H99  1  0.51213187  0.87122964  0.82630492  1
  H+  H100  1  0.76181127  0.64139347  0.49818851  1
  H+  H101  1  0.19205910  1.02322732  0.14666292  1
  H+  H102  1  0.87879828  0.10656582  0.64362996  1
  H+  H103  1  0.86523323  0.92409044  -0.00097808  1
  H+  H104  1  0.13860647  0.60155545  0.72703094  1
  H+  H105  1  0.46592515  0.83901545  0.98328256  1
  H+  H106  1  0.64228998  1.02048931  0.68704674  1
  H+  H107  1  0.08134704  0.68104870  0.51255651  1
  H+  H108  1  0.87567641  0.62556282  0.66578180  1
  H+  H109  1  0.57889182  0.15849077  0.74012635  1
  H+  H110  1  0.24753248  0.49478827  0.86698556  1
  H+  H111  1  -0.02989944  0.11020320  0.65619086  1
  H+  H112  1  0.87238394  0.60184804  0.50816228  1
  H+  H113  1  0.86121982  0.63778618  0.83185027  1
  H+  H114  1  0.62932201  0.27918626  0.50826371  1
  H+  H115  1  0.37037873  0.64167324  0.48798360  1
  H+  H116  1  0.34556822  0.37558406  0.49637161  1
  H+  H117  1  0.11047028  0.36690058  0.50359399  1
  H+  H118  1  0.38303286  0.84807785  0.17121293  1
  H+  H119  1  0.15782137  0.49712200  0.64335174  1
  H+  H120  1  0.88614191  0.35975302  0.65004927  1
  H+  H121  1  0.26983650  0.63232440  0.16182438  1
  H+  H122  1  0.60549625  0.48466240  0.67850513  1
  H+  H123  1  0.12755421  0.59111959  0.49822897  1
  H+  H124  1  0.88358958  0.26938124  0.63996403  1
  H+  H125  1  0.12679060  0.40508655  1.00720370  1
  H+  H126  1  0.64635126  0.01008194  0.98921602  1
  H+  H127  1  0.71957647  0.62126306  0.34138566  1
  H+  H128  1  0.68615580  0.04507783  0.20414338  1
  H+  H129  1  0.13038566  0.35681902  0.66058283  1
  H+  H130  1  0.89173047  0.25708968  1.00753848  1
  H+  H131  1  0.84943805  -0.03964854  0.33641304  1
  H+  H132  1  0.40639880  0.51699260  0.83346955  1
  H+  H133  1  0.37912922  0.74810684  -0.01311622  1
  H+  H134  1  0.50312021  0.00103587  0.21708070  1
  H+  H135  1  0.63089493  0.13133938  -0.00717635  1
  H+  H136  1  0.27182939  0.39069526  0.66534692  1
  H+  H137  1  0.83887968  0.72162770  0.17899218  1
  H+  H138  1  0.71915900  0.37479416  0.33060323  1
  H+  H139  1  0.38907611  0.96294968  0.15493346  1
  H+  H140  1  0.25463243  0.20872437  0.17049782  1
  H+  H141  1  0.11084258  0.79533003  0.83111236  1
  H+  H142  1  0.02594558  0.56924846  0.10459395  1
  H+  H143  1  0.37784149  0.63237082  0.65930135  1
  H+  H144  1  0.85393295  0.46435729  0.66662707  1
  H+  H145  1  0.62106321  0.39097679  0.82539685  1
  H+  H146  1  0.84267765  0.66962779  0.76794956  1
  H+  H147  1  0.10057097  0.15827490  0.99293680  1
  H+  H148  1  0.11595649  0.74158152  -0.00729812  1
  H+  H149  1  0.83517903  0.40020692  0.72508292  1
  H+  H150  1  0.48650539  0.61485851  0.65522783  1
  H+  H151  1  0.23022714  0.86279560  0.33558487  1
  H+  H152  1  0.91897449  0.16408141  0.18468140  1
  H+  H153  1  0.34107992  0.91484018  0.40299419  1
  H+  H154  1  0.98204262  0.60756391  0.98714604  1
  H+  H155  1  0.87902327  0.19964285  0.83522384  1
  H+  H156  1  0.60673841  0.39324551  0.34313814  1
  H+  H157  1  0.39501130  0.52630298  0.64993673  1
  H+  H158  1  0.47705643  0.37592740  0.33344944  1
  H+  H159  1  0.86082899  0.36976154  0.01540547  1
  H+  H160  1  0.24616098  0.86524840  0.17597552  1
  H+  H161  1  0.64253500  0.10909859  0.69033199  1
  H+  H162  1  0.85278468  0.68870103  0.01615647  1
  H+  H163  1  0.73156471  0.10960393  0.50177094  1
  H+  H164  1  1.01329784  0.92854374  0.14613005  1
  H+  H165  1  0.64341996  0.26266585  0.98362377  1
  H+  H166  1  0.10035431  0.61629275  0.15122070  1
  H+  H167  1  0.38953496  0.77561341  0.50694072  1
  H+  H168  1  0.13934502  0.60039336  0.69284651  1
  H+  H169  1  0.49724600  0.36107036  0.18024598  1
  H+  H170  1  0.95180536  0.08853211  0.33705824  1
  H+  H171  1  0.64230001  0.14604244  0.48467009  1
  H+  H172  1  0.72886515  0.35491023  0.99087138  1
  H+  H173  1  0.63664324  0.86411045  0.33249725  1
  H+  H174  1  0.34471239  0.71936844  0.81750591  1
  H+  H175  1  0.60187460  0.86372579  0.99314929  1
  H+  H176  1  0.66097183  0.15747171  0.19007333  1
  H+  H177  1  0.25701606  0.89436927  0.81754863  1
  H+  H178  1  0.76213552  0.87117154  0.34020167  1
  H+  H179  1  0.08455928  0.65927427  0.68397556  1
  H+  H180  1  0.16770693  0.08631467  0.60119274  1
  H+  H181  1  0.62085935  0.64280102  0.67153916  1
  H+  H182  1  0.85497628  0.72580148  0.49924175  1
  H+  H183  1  0.25429388  0.89484014  0.50304612  1
  H+  H184  1  0.88380798  0.00742947  0.14477872  1
  H+  H185  1  0.01292416  0.37106281  0.49613172  1
  H+  H186  1  0.08192217  0.42843505  0.72268752  1
  H+  H187  1  0.20974873  0.63327559  0.82838301  1
  H+  H188  1  0.61904437  0.71876547  0.82508884  1
  H+  H189  1  0.76912846  0.88394257  0.82801597  1
  H+  H190  1  0.18375535  0.93203097  0.14675866  1
  H+  H191  1  0.62004648  0.49682912  0.00816053  1
  H+  H192  1  0.10246593  0.75290909  0.67035443  1
  H+  H193  1  0.22545408  0.87094433  0.98166039  1
  H+  H194  1  0.38099809  0.85006801  0.66169359  1
  H+  H195  1  0.79728111  0.14625497  0.59182119  1
  H+  H196  1  -0.00239885  0.10671450  0.82417594  1
  H+  H197  1  0.38156812  0.36282188  0.65960804  1
  H+  H198  1  0.72568101  0.34930983  0.83314923  1
  H+  H199  1  0.13048611  0.01848444  0.32924220  1
  H+  H200  1  0.36432346  0.22752087  0.67528184  1
  H+  H201  1  0.47369561  0.10070384  0.67203683  1
  H+  H202  1  0.26956741  0.60141592  0.64464494  1
  H+  H203  1  0.37886530  0.10991308  0.83760334  1
  H+  H204  1  0.40023130  0.09231532  -0.01189901  1
  H+  H205  1  0.84635247  1.00014138  0.16427707  1
  H+  H206  1  0.66791636  0.58986062  0.59883117  1
  H+  H207  1  0.16757232  0.80961669  0.49426077  1
  H+  H208  1  0.36697611  0.97155135  0.67613771  1
  H+  H209  1  0.03081470  0.90446993  0.16418629  1
  H+  H210  1  0.70221519  0.84249052  0.16626898  1
  H+  H211  1  0.99644387  0.14614983  0.18215915  1
  H+  H212  1  0.84877457  0.47038929  0.49836080  1
  H+  H213  1  0.99021549  0.60449063  0.49699048  1
  H+  H214  1  0.47596343  0.61992428  0.18415413  1
  H+  H215  1  0.86006405  0.88185433  0.49409600  1
  H+  H216  1  0.76371777  0.12784629  0.65930688  1
  H+  H217  1  0.32199298  0.91036848  0.76250287  1
  H+  H218  1  0.39345352  0.52677172  0.18165390  1
  H+  H219  1  0.08238158  0.09898696  0.82100790  1
  H+  H220  1  0.82522410  0.90667554  0.43362003  1
  H+  H221  1  0.88538110  1.01810611  0.50288416  1
  H+  H222  1  0.14302328  0.62426155  0.98525180  1
  H+  H223  1  0.60252245  -0.03980278  0.82837489  1
  H+  H224  1  0.14726256  0.01747762  0.84586601  1
  H+  H225  1  0.69158739  0.23310091  0.44893762  1
  H+  H226  1  0.01762005  0.88029421  0.33489610  1
  H+  H227  1  0.79923122  0.14748705  0.16444749  1
  H+  H228  1  0.10904621  0.42010463  0.33534211  1
  H+  H229  1  0.28771061  0.40991517  0.82104193  1
  H+  H230  1  0.64103716  0.87404878  0.51289820  1
  H+  H231  1  0.06563813  0.15021807  0.41182851  1
  H+  H232  1  0.13896774  1.03057608  0.66225108  1
  H+  H233  1  0.38562731  0.10222592  0.67133406  1
  H+  H234  1  -0.02504745  0.35252865  0.00721871  1
  H+  H235  1  0.47961617  0.36539221  0.83741238  1
  H+  H236  1  0.24469220  0.16148627  0.01145772  1
  H+  H237  1  0.35739052  0.62907075  0.16607758  1
  H+  H238  1  0.10634193  0.35671725  0.18401469  1
  H+  H239  1  0.02308896  0.38752342  0.66225030  1
  H+  H240  1  0.60157057  0.73022285  0.34500519  1
  H+  H241  1  0.13018515  0.64347127  0.34326987  1
  H+  H242  1  0.84935560  0.16229970  0.09839916  1
  H+  H243  1  0.63143578  0.22803272  0.18167092  1
  H+  H244  1  0.05253955  0.26397297  0.21574943  1
  H+  H245  1  0.89148622  0.82409984  1.00149594  1
  H+  H246  1  0.64043398  0.61129800  0.82745588  1
  H+  H247  1  0.37636596  0.29794534  0.99481918  1
  H+  H248  1  0.70792998  0.58594593  0.01336350  1
  H+  H249  1  -0.10436142  0.81195388  0.26964698  1
  H+  H250  1  0.14828245  0.79220883  0.17396019  1
  H+  H251  1  0.73698957  0.87313896  0.51021470  1
  H+  H252  1  0.36864014  0.40562204  0.33698730  1
  H+  H253  1  0.62194262  0.52746209  0.50907981  1
  H+  H254  1  0.86786268  0.46177837  1.00516264  1
  H+  H255  1  0.22883493  0.63038383  0.32926054  1
  H+  H256  1  0.91680183  0.33186448  0.55886670  1
  H+  H257  1  0.37828786  0.14146157  0.14844912  1
  H+  H258  1  0.63968502  0.51296592  0.82906936  1
  H+  H259  1  0.07609969  0.26943375  0.83588163  1
  H+  H260  1  0.60753791  0.64856107  0.16730822  1
  H+  H261  1  0.11292868  0.48527454  0.00445805  1
  H+  H262  1  0.15266146  0.32926461  0.34555799  1
  H+  H263  1  0.60714667  0.87846889  0.67589091  1
  H+  H264  1  -0.04904228  0.14409072  0.00664182  1
  H+  H265  1  0.86958567  0.60923429  0.33212805  1
  H+  H266  1  0.37732109  0.08342066  0.28366207  1
  H+  H267  1  0.71660574  0.85187278  -0.00948374  1
  H+  H268  1  0.62860048  0.28599481  0.32414984  1
  H+  H269  1  -0.03089568  0.62768835  0.84198670  1
  H+  H270  1  0.34978976  0.60275387  0.01515789  1
  H+  H271  1  0.16323571  0.59230319  0.23207483  1
  H+  H272  1  0.44536140  0.59740760  0.55368702  1
  H+  H273  1  0.13060965  0.26748880  0.66273031  1
  H+  H274  1  0.58458608  0.96110887  0.13297202  1
  H+  H275  1  0.22466580  0.61076850  0.98546286  1
  H+  H276  1  0.36988938  0.73846561  0.33936614  1
  H+  H277  1  0.64043906  1.02560499  0.50928835  1
  H+  H278  1  0.01667006  0.13010998  0.49820542  1
  H+  H279  1  0.88800496  0.27176813  0.49827196  1
  H+  H280  1  0.89921817  0.77837869  0.66185113  1
  H+  H281  1  0.36681680  -0.04354653  0.99872147  1
  H+  H282  1  0.73696628  0.61396792  0.82731714  1
  H+  H283  1  0.85103114  0.72449393  0.34605845  1
  H+  H284  1  0.89300967  0.28217690  0.16636061  1
  H+  H285  1  0.54655759  0.90832447  0.34522758  1
  H+  H286  1  0.52794076  0.88136872  0.50007008  1
  H+  H287  1  0.62658653  0.09289045  0.84107757  1
  H+  H288  1  0.16256757  0.85677658  0.92460925  1
  H+  H289  1  0.32404199  0.17955253  0.43815279  1
  H+  H290  1  0.91843806  0.83749281  0.56774137  1
  H+  H291  1  0.41897072  0.83066208  0.56819351  1
  H+  H292  1  0.10913400  0.88350516  0.33805117  1
  H+  H293  1  0.31461504  0.65628835  0.76080769  1
  H+  H294  1  0.11047860  0.46198526  0.48968240  1
  H+  H295  1  0.87837737  0.85511090  0.32762560  1
  H+  H296  1  0.53282844  0.09330341  0.18816290  1
  H+  H297  1  0.17448377  0.85236162  0.59517084  1
  H+  H298  1  0.37792598  0.47089760  0.09365641  1
  H+  H299  1  0.61151598  0.61050895  0.51432686  1
  H+  H300  1  0.90107778  0.57807682  0.27479980  1
  H+  H301  1  0.22340436  0.60256632  0.49094961  1
  H+  H302  1  0.89422180  0.56704319  0.57340385  1
  H+  H303  1  0.58352158  0.42205212  0.76777761  1
  H+  H304  1  0.73230856  0.86488040  0.66370310  1
  H+  H305  1  0.65979467  0.81857315  0.89423160  1
  H+  H306  1  0.67016668  0.35344979  0.23782310  1
  H+  H307  1  0.57115070  0.89828213  0.73673873  1
  H+  H308  1  0.56814196  0.89065992  0.05140588  1
  H+  H309  1  0.19709066  0.40440495  0.89898091  1
  H+  H310  1  0.07033407  0.69944037  0.77008345  1
  H+  H311  1  0.88830322  0.86278967  0.66461859  1
  H+  H312  1  0.83313361  0.91924179  0.73590348  1
  H+  H313  1  0.12160874  0.73727632  0.35037145  1
  H+  H314  1  0.82025173  0.66630814  0.40715416  1
  H+  H315  1  0.06253700  0.14628183  0.72911366  1
  H+  H316  1  0.41395686  0.33307360  0.60283707  1
  H+  H317  1  0.33625101  0.67166091  0.43161714  1
  H+  H318  1  0.32781126  0.16680751  0.04214858  1
  H+  H319  1  0.27252983  0.13866865  0.49895867  1
  H+  H320  1  0.57176792  0.66200978  0.07072733  1
  H+  H321  1  0.15581167  0.35057835  0.27439641  1
  H+  H322  1  0.65525298  0.82869548  0.27019621  1
  H+  H323  1  0.59795420  0.61819012  0.01903526  1
  H+  H324  1  0.39911517  0.81680794  0.89296079  1
  H+  H325  1  0.46994604  0.84874945  0.66323883  1
  H+  H326  1  0.59180314  0.91429958  0.44152896  1
  H+  H327  1  0.79450419  0.87606979  0.08829562  1
  H+  H328  1  0.08689453  0.19367435  0.05441849  1
  H+  H329  1  0.44158893  0.05409652  0.26221847  1
  H+  H330  1  0.60511661  0.48173802  0.34858216  1
  H+  H331  1  0.91702836  0.09073595  0.27184262  1
  H+  H332  1  0.13165322  0.54132890  0.32801155  1
  H+  H333  1  0.81743725  0.62771073  0.07375806  1
  H+  H334  1  0.09948008  0.50567514  0.81053502  1
  H+  H335  1  0.42842991  0.54464345  0.90135531  1
  H+  H336  1  0.10479214  0.22210870  0.49714829  1
  H+  H337  1  0.15320895  0.60218949  0.88889112  1
  H+  H338  1  0.57622008  0.38454684  0.06077725  1
  H+  H339  1  0.39744857  0.43341808  -0.02095255  1
  H+  H340  1  0.91389850  0.07522100  0.56387491  1
  H+  H341  1  0.27455007  0.14014553  0.67425893  1
  H+  H342  1  0.82443911  0.31126333  0.80203466  1
  H+  H343  1  0.82375097  0.15313063  0.42950762  1
  H+  H344  1  0.43478254  0.33670523  0.24652040  1
  H+  H345  1  0.92306426  0.81194319  0.17231354  1
  H+  H346  1  0.51852270  0.13298245  0.83155638  1
  H+  H347  1  0.31941645  0.41138085  0.43831225  1
  H+  H348  1  0.59182476  0.17623059  0.38550574  1
  H+  H349  1  0.92624412  0.84375997  0.89720277  1
  H+  H350  1  0.33029596  0.16732231  0.76765167  1
  H+  H351  1  0.65527813  0.31976570  0.60879387  1
  H+  H352  1  0.42646689  0.83636939  0.26989834  1
  H+  H353  1  0.11645858  0.90508567  -0.00090436  1
  H+  H354  1  0.24847089  0.39092336  0.98237792  1
  H+  H355  1  0.67205576  0.33347271  0.89470817  1
  H+  H356  1  0.36251227  0.64635068  0.33780725  1
  H+  H357  1  0.18830987  0.55589149  0.58006360  1
  H+  H358  1  0.41832924  0.33904477  0.89516510  1
  H+  H359  1  0.08055796  0.66422536  0.40824085  1
  H+  H360  1  0.53872577  0.65659591  0.44990705  1
  H+  H361  1  0.90947446  0.58025436  0.89851488  1
  H+  H362  1  0.91302921  0.34052204  0.22689035  1
  H+  H363  1  0.83891575  0.99431756  0.01420007  1
  H+  H364  1  0.15675038  0.32563527  0.57122664  1
  H+  H365  1  0.67730402  0.84326215  0.57747902  1
  H+  H366  1  0.27626013  0.88434806  0.67002958  1
  H+  H367  1  0.47743173  0.36335772  0.99025714  1
  H+  H368  1  0.57551685  0.42105552  0.44039708  1
  H+  H369  1  0.32689214  0.64935384  0.06595914  1
  H+  H370  1  0.07838781  0.91837244  0.43087252  1
  H+  H371  1  0.66430388  0.06453273  0.89615610  1
  H+  H372  1  0.71951415  0.10230788  0.26582821  1
  H+  H373  1  0.17402995  0.83330179  0.27480681  1
  H+  H374  1  0.58664189  0.66651150  0.73115903  1
  H+  H375  1  0.11694718  0.94852032  0.06091077  1
  H+  H376  1  0.09051712  0.42717188  0.10083890  1
  H+  H377  1  0.42204971  0.58874536  0.26609450  1
  H+  H378  1  0.73966712  0.57613527  0.15578697  1
  H+  H379  1  0.41435445  0.06546546  0.92236399  1
  H+  H380  1  0.29501724  0.23685986  0.10467675  1
  H+  H381  1  0.82089725  0.41726875  0.40201231  1
  H+  H382  1  0.38163083  0.29130379  0.33048878  1
  H+  H383  1  0.16341335  0.09512281  0.93142115  1
  O2-  O384  1  0.09433867  0.18319075  0.13346709  1
  O2-  O385  1  0.07749520  0.16167164  0.48165245  1
  O2-  O386  1  0.03743780  0.10064318  0.79633331  1
  O2-  O387  1  0.08549837  0.42617486  0.14681689  1
  O2-  O388  1  0.07751029  0.39756626  0.48340989  1
  O2-  O389  1  0.08398081  0.44771561  0.79493456  1
  O2-  O390  1  0.05619642  0.62313348  0.12722016  1
  O2-  O391  1  0.05495198  0.63431619  0.48314071  1
  O2-  O392  1  0.07520513  0.70253576  0.81540348  1
  O2-  O393  1  0.18997574  0.97867184  0.11970706  1
  O2-  O394  1  0.08034822  0.92119848  0.47625994  1
  O2-  O395  1  0.09807462  0.90238834  0.81835406  1
  O2-  O396  1  0.29719232  0.25836596  0.14731600  1
  O2-  O397  1  0.33217040  0.17296674  0.48192295  1
  O2-  O398  1  0.32919175  0.16555697  0.81361891  1
  O2-  O399  1  0.37591446  0.44981828  0.13589382  1
  O2-  O400  1  0.30588693  0.39553860  0.48131622  1
  O2-  O401  1  0.34023354  0.41902774  0.79933425  1
  O2-  O402  1  0.33061450  0.66027399  0.14697013  1
  O2-  O403  1  0.33290516  0.66569442  0.47691576  1
  O2-  O404  1  0.30620855  0.65858709  0.80464485  1
  O2-  O405  1  0.34227843  0.90637628  0.14047349  1
  O2-  O406  1  0.34992172  0.92728214  0.47838405  1
  O2-  O407  1  0.31782742  0.91387158  0.80823178  1
  O2-  O408  1  0.61695438  0.16887509  0.17174628  1
  O2-  O409  1  0.63355745  0.19103789  0.46205120  1
  O2-  O410  1  0.57956828  0.16005374  0.81870534  1
  O2-  O411  1  0.58287921  0.40834520  0.14345797  1
  O2-  O412  1  0.57497752  0.42402004  0.48564444  1
  O2-  O413  1  0.59067191  0.42350281  0.81452818  1
  O2-  O414  1  0.57119692  0.67063789  0.15226118  1
  O2-  O415  1  0.53852754  0.65455205  0.49498591  1
  O2-  O416  1  0.59227934  0.65794849  0.80948694  1
  O2-  O417  1  0.56494115  0.89987142  0.13216742  1
  O2-  O418  1  0.59000064  0.91140595  0.48718220  1
  O2-  O419  1  0.57302471  0.89804123  0.81279438  1
  O2-  O420  1  0.85572751  0.17945936  0.14308257  1
  O2-  O421  1  0.83593373  0.16414132  0.47420145  1
  O2-  O422  1  0.88374980  0.25212449  0.81784530  1
  O2-  O423  1  0.82586842  0.41423477  0.14449502  1
  O2-  O424  1  0.81735795  0.40960280  0.48155940  1
  O2-  O425  1  0.82329538  0.36589463  0.80243803  1
  O2-  O426  1  0.80013329  0.62126421  0.14848622  1
  O2-  O427  1  0.82187824  0.66582306  0.48336042  1
  O2-  O428  1  0.83147798  0.66898510  0.81263203  1
  O2-  O429  1  0.76658770  0.83297749  0.12118544  1
  O2-  O430  1  0.82769458  0.91078909  0.47923736  1
  O2-  O431  1  0.82969364  0.92228225  0.81410088  1
  O2-  O432  1  0.14916820  0.08421843  0.19536334  1
  O2-  O433  1  0.16758597  0.08500009  0.52172527  1
  O2-  O434  1  0.16670299  0.07768261  0.85707197  1
  O2-  O435  1  0.11244151  0.31292657  0.20900007  1
  O2-  O436  1  0.15314213  0.32544622  0.52492082  1
  O2-  O437  1  0.21317978  0.43344004  0.85837666  1
  O2-  O438  1  0.16500098  0.58785480  0.18720522  1
  O2-  O439  1  0.16328978  0.56425327  0.50639617  1
  O2-  O440  1  0.14990172  0.61243899  0.84482234  1
  O2-  O441  1  0.18778747  0.84609302  0.19415378  1
  O2-  O442  1  0.19056995  0.86509883  0.51426145  1
  O2-  O443  1  0.14323360  0.86014738  0.84523117  1
  O2-  O444  1  0.47878210  0.03544129  0.20210904  1
  O2-  O445  1  0.43015993  0.09434454  0.48803807  1
  O2-  O446  1  0.40774711  0.07725302  0.85113070  1
  O2-  O447  1  0.44137093  0.31891058  0.20289011  1
  O2-  O448  1  0.40828341  0.33645782  0.52473175  1
  O2-  O449  1  0.41797396  0.33485036  0.84995795  1
  O2-  O450  1  0.41607104  0.58526893  0.20166143  1
  O2-  O451  1  0.44520640  0.60181050  0.50822966  1
  O2-  O452  1  0.43993847  0.56827350  0.85988482  1
  O2-  O453  1  0.41593860  0.82177098  0.18925328  1
  O2-  O454  1  0.42309895  0.83543793  0.52255328  1
  O2-  O455  1  0.40131562  0.82261839  0.84768678  1
  O2-  O456  1  0.71575768  0.10514734  0.21638187  1
  O2-  O457  1  0.67298032  0.08758945  0.51903187  1
  O2-  O458  1  0.65031290  0.05555296  0.85216335  1
  O2-  O459  1  0.66859825  0.34930193  0.19178832  1
  O2-  O460  1  0.65309844  0.33753967  0.52524028  1
  O2-  O461  1  0.66726962  0.33254690  0.84929607  1
  O2-  O462  1  0.62272653  0.50340114  0.14866938  1
  O2-  O463  1  0.65128865  0.58879839  0.52346295  1
  O2-  O464  1  0.67286600  0.57977180  0.84086729  1
  O2-  O465  1  0.64981303  0.83014962  0.19167656  1
  O2-  O466  1  0.67712015  0.84734552  0.52976542  1
  O2-  O467  1  0.66180102  0.82080856  0.84886330  1
  O2-  O468  1  0.96317453  0.15998517  0.21136167  1
  O2-  O469  1  0.91564019  0.07861688  0.51778222  1
  O2-  O470  1  0.89956494  0.09645939  0.86358295  1
  O2-  O471  1  0.91817122  0.34272417  0.18168303  1
  O2-  O472  1  0.91955362  0.33285979  0.51238128  1
  O2-  O473  1  0.96732564  0.42486448  0.87189888  1
  O2-  O474  1  0.90267265  0.56990690  0.19234064  1
  O2-  O475  1  0.90001085  0.56931119  0.52290187  1
  O2-  O476  1  0.90823458  0.59207557  0.85444902  1
  O2-  O477  1  0.86650186  0.78340134  0.19176296  1
  O2-  O478  1  0.91434949  0.83446750  0.52221674  1
  O2-  O479  1  0.93063222  0.83880348  0.85264402  1
  O2-  O480  1  0.15719785  0.08073548  0.31686906  1
  O2-  O481  1  0.16802730  0.09048911  0.64647611  1
  O2-  O482  1  0.15748018  0.10060516  0.97662353  1
  O2-  O483  1  0.17856445  0.37627007  0.31642557  1
  O2-  O484  1  0.16129605  0.32720986  0.64504259  1
  O2-  O485  1  0.18692609  0.36460788  0.97210605  1
  O2-  O486  1  0.16744924  0.60620574  0.31557003  1
  O2-  O487  1  0.20861775  0.54288323  0.61880995  1
  O2-  O488  1  0.16510557  0.58686216  0.96981245  1
  O2-  O489  1  0.16909866  0.83216325  0.32007335  1
  O2-  O490  1  0.16984927  0.84689541  0.64011797  1
  O2-  O491  1  0.16460334  0.84935302  0.96931591  1
  O2-  O492  1  0.41539410  0.06454444  0.30020027  1
  O2-  O493  1  0.41204826  0.06785919  0.65882930  1
  O2-  O494  1  0.42141722  0.05853014  0.96773848  1
  O2-  O495  1  0.41820777  0.34990757  0.31289130  1
  O2-  O496  1  0.41326611  0.33236901  0.64835502  1
  O2-  O497  1  0.41982444  0.35202727  0.97513185  1
  O2-  O498  1  0.42364230  0.59279117  0.31483875  1
  O2-  O499  1  0.42825865  0.58767274  0.63559245  1
  O2-  O500  1  0.39861614  0.52970642  1.02565991  1
  O2-  O501  1  0.43104377  0.84071188  0.31512929  1
  O2-  O502  1  0.40989669  0.81840373  0.64543739  1
  O2-  O503  1  0.40340350  0.80798490  0.97184303  1
  O2-  O504  1  0.71451465  0.08810012  0.32936604  1
  O2-  O505  1  0.68034080  0.08283870  0.69250884  1
  O2-  O506  1  0.68066985  0.07058305  0.97594612  1
  O2-  O507  1  0.65979780  0.34915421  0.31245135  1
  O2-  O508  1  0.66106489  0.31044423  0.65225216  1
  O2-  O509  1  0.66961182  0.32605782  0.97319608  1
  O2-  O510  1  0.65624089  0.59101797  0.32737923  1
  O2-  O511  1  0.67269000  0.59164773  0.64452823  1
  O2-  O512  1  0.64523199  0.55836448  1.02035092  1
  O2-  O513  1  0.65704704  0.82519135  0.31561060  1
  O2-  O514  1  0.67292591  0.83515854  0.64487557  1
  O2-  O515  1  0.65815607  0.81501353  0.97307224  1
  O2-  O516  1  0.89772559  0.06441428  0.31317491  1
  O2-  O517  1  0.91068371  0.07424628  0.63887268  1
  O2-  O518  1  0.88958217  0.10473639  0.99645862  1
  O2-  O519  1  0.90722518  0.34732697  0.30771364  1
  O2-  O520  1  0.91894465  0.33247670  0.63178111  1
  O2-  O521  1  0.91192255  0.31954854  1.00339042  1
  O2-  O522  1  0.89958373  0.57802684  0.31977070  1
  O2-  O523  1  0.88901532  0.56296750  0.63583458  1
  O2-  O524  1  0.92058429  0.56739717  0.97732417  1
  O2-  O525  1  0.90918525  0.82431707  0.31366853  1
  O2-  O526  1  0.92319233  0.83870673  0.64682754  1
  O2-  O527  1  0.92922621  0.87518324  0.97801738  1
  O2-  O528  1  0.08077235  0.19680156  0.00967324  1
  O2-  O529  1  0.05702501  0.13827810  0.36568912  1
  O2-  O530  1  0.07293450  0.16296380  0.68455500  1
  O2-  O531  1  0.09188929  0.42861075  0.02505852  1
  O2-  O532  1  0.07739636  0.44993564  0.34641754  1
  O2-  O533  1  0.08360361  0.41688092  0.67766457  1
  O2-  O534  1  0.09153694  0.68109919  0.00712248  1
  O2-  O535  1  0.09500948  0.67472753  0.36370198  1
  O2-  O536  1  0.06212220  0.69781814  0.69235862  1
  O2-  O537  1  0.09037029  0.93646837  0.01938545  1
  O2-  O538  1  0.07803279  0.91403391  0.35056067  1
  O2-  O539  1  0.08808719  0.92392686  0.68916450  1
  O2-  O540  1  0.30001765  0.20079719  0.03519933  1
  O2-  O541  1  0.31834622  0.18630019  0.35670599  1
  O2-  O542  1  0.33364355  0.16751929  0.69169648  1
  O2-  O543  1  0.37287579  0.47279175  -0.02771481  1
  O2-  O544  1  0.34226608  0.43935751  0.35305499  1
  O2-  O545  1  0.33358287  0.42400949  0.67739475  1
  O2-  O546  1  0.32768887  0.64277244  0.02099332  1
  O2-  O547  1  0.33294659  0.67669200  0.35275014  1
  O2-  O548  1  0.33474206  0.65226705  0.67064823  1
  O2-  O549  1  0.32944852  0.89825809  0.01683639  1
  O2-  O550  1  0.33383679  0.90851694  0.35735831  1
  O2-  O551  1  0.33447895  0.90716695  0.68776265  1
  O2-  O552  1  0.59925215  0.16225606  0.00216368  1
  O2-  O553  1  0.58146874  0.18530472  0.34265465  1
  O2-  O554  1  0.57815021  0.15214510  0.69495855  1
  O2-  O555  1  0.57508351  0.38800186  0.01591712  1
  O2-  O556  1  0.57319700  0.41999628  0.36045062  1
  O2-  O557  1  0.57182710  0.42978696  0.70017909  1
  O2-  O558  1  0.56623935  0.65022747  0.02626183  1
  O2-  O559  1  0.56757595  0.66912753  0.36158401  1
  O2-  O560  1  0.58791582  0.67098413  0.68564969  1
  O2-  O561  1  0.57091216  0.89447084  0.00643947  1
  O2-  O562  1  0.60317731  0.92679097  0.36427059  1
  O2-  O563  1  0.57021976  0.90094710  0.69082550  1
  O2-  O564  1  0.84275393  0.14653080  0.02293995  1
  O2-  O565  1  0.80406734  0.13675204  0.35269377  1
  O2-  O566  1  0.82009537  0.15724284  0.63319948  1
  O2-  O567  1  0.83150798  0.40456262  0.02448048  1
  O2-  O568  1  0.82080366  0.41884302  0.35654898  1
  O2-  O569  1  0.83439885  0.40345949  0.67983661  1
  O2-  O570  1  0.82154758  0.62854342  0.02786474  1
  O2-  O571  1  0.81567372  0.66415025  0.36137961  1
  O2-  O572  1  0.88154198  0.68012256  0.69228271  1
  O2-  O573  1  0.81957914  0.93180094  0.01794588  1
  O2-  O574  1  0.82309848  0.90165637  0.35491816  1
  O2-  O575  1  0.83292006  0.91426253  0.69029266  1
