# generated using pymatgen
data_H2O
_symmetry_space_group_name_H-M   'P 1'
_cell_length_a   17.99158185
_cell_length_b   17.99516092
_cell_length_c   22.00023993
_cell_angle_alpha   89.99749277
_cell_angle_beta   90.00780090
_cell_angle_gamma   120.01678768
_symmetry_Int_Tables_number   1
_chemical_formula_structural   H2O
_chemical_formula_sum   'H384 O192'
_cell_volume   6167.50679126
_cell_formula_units_Z   192
loop_
 _symmetry_equiv_pos_site_id
 _symmetry_equiv_pos_as_xyz
  1  'x, y, z'
loop_
 _atom_type_symbol
 _atom_type_oxidation_number
  H+  1.0
  O2-  -2.0
loop_
 _atom_site_type_symbol
 _atom_site_label
 _atom_site_symmetry_multiplicity
 _atom_site_fract_x
 _atom_site_fract_y
 _atom_site_fract_z
 _atom_site_occupancy
  H+  H0  1  0.62196422  0.64130256  0.34656453  1
  H+  H1  1  0.46825966  0.84185441  0.84094561  1
  H+  H2  1  0.61119517  0.38029306  0.15959247  1
  H+  H3  1  0.86895567  0.36668017  -0.01861812  1
  H+  H4  1  0.10525249  0.74498239  0.18719180  1
  H+  H5  1  0.86810137  0.21963933  0.35455400  1
  H+  H6  1  0.77869336  0.13716798  0.82706685  1
  H+  H7  1  0.87858467  0.26013725  0.67034541  1
  H+  H8  1  0.13328042  0.78068366  0.32909472  1
  H+  H9  1  0.28921928  0.40204421  0.49417782  1
  H+  H10  1  0.28720251  0.12787801  0.65782259  1
  H+  H11  1  0.45306004  0.87108243  0.55513139  1
  H+  H12  1  0.40948646  0.65881309  0.48811395  1
  H+  H13  1  0.86012988  0.47342038  0.34904646  1
  H+  H14  1  0.02292899  0.87912948  0.13371722  1
  H+  H15  1  0.91506552  0.89440572  0.96995509  1
  H+  H16  1  0.71827999  0.60442395  0.99163673  1
  H+  H17  1  0.72715375  0.09230915  0.51039234  1
  H+  H18  1  0.23225217  0.63218954  0.32428112  1
  H+  H19  1  0.63923845  0.51627564  0.83945496  1
  H+  H20  1  0.66378778  0.08350704  0.60275025  1
  H+  H21  1  0.05629195  0.21535452  0.82670127  1
  H+  H22  1  0.13589269  0.11652159  0.32554633  1
  H+  H23  1  0.14941068  0.59709101  0.97978361  1
  H+  H24  1  0.61754416  0.98960453  0.67987808  1
  H+  H25  1  0.61076034  0.47233274  0.00890530  1
  H+  H26  1  0.70654246  0.36362307  0.50858387  1
  H+  H27  1  0.06806900  0.38341995  0.07484021  1
  H+  H28  1  0.42597847  0.33951757  0.93766617  1
  H+  H29  1  0.35031636  0.42873746  0.10145112  1
  H+  H30  1  0.11585055  -0.03891535  0.67955133  1
  H+  H31  1  0.49035125  0.36420458  0.83890793  1
  H+  H32  1  0.63417188  0.51674525  0.18128714  1
  H+  H33  1  0.41068617  0.87612044  0.64241677  1
  H+  H34  1  0.25020308  0.61990815  0.67263075  1
  H+  H35  1  0.63218803  0.52314481  0.34097986  1
  H+  H36  1  0.84629982  0.47381846  0.66703361  1
  H+  H37  1  0.42995867  0.09839665  0.60206603  1
  H+  H38  1  0.26971189  0.35728148  0.67723617  1
  H+  H39  1  0.51749250  0.62497789  0.81307411  1
  H+  H40  1  0.11264286  0.47590216  0.15911511  1
  H+  H41  1  0.60524023  0.08831093  0.97791820  1
  H+  H42  1  0.40306443  -0.00343887  0.83756903  1
  H+  H43  1  0.23910035  0.37469542  0.17200050  1
  H+  H44  1  0.86952529  0.49132202  0.98443474  1
  H+  H45  1  0.10998864  0.75292759  0.64379867  1
  H+  H46  1  0.87434919  0.60439877  0.17995071  1
  H+  H47  1  0.62414114  0.14259668  0.81571587  1
  H+  H48  1  0.15252476  0.27787974  0.99048552  1
  H+  H49  1  0.40770273  0.52427191  0.17553955  1
  H+  H50  1  0.26622912  0.56342515  0.60288376  1
  H+  H51  1  0.19236365  0.56350643  0.93632370  1
  H+  H52  1  0.77350914  0.38395008  0.35264013  1
  H+  H53  1  0.81510495  0.65701323  0.71832343  1
  H+  H54  1  0.88837575  0.86769999  0.16482819  1
  H+  H55  1  0.35341934  0.44859236  0.41535340  1
  H+  H56  1  0.21788475  0.11301833  0.17203671  1
  H+  H57  1  0.39257534  0.56390799  0.50306752  1
  H+  H58  1  0.53616415  0.64676683  0.34767230  1
  H+  H59  1  0.85455031  0.97401561  0.66761650  1
  H+  H60  1  0.89343526  0.57530793  0.58484579  1
  H+  H61  1  0.32118711  0.71461442  0.47076097  1
  H+  H62  1  0.72856504  0.36649712  0.98766768  1
  H+  H63  1  0.36325816  0.13869595  0.16192407  1
  H+  H64  1  0.37490515  0.39279821  0.16080651  1
  H+  H65  1  0.72587219  0.85457878  -0.02224700  1
  H+  H66  1  0.92217299  0.84345703  0.59853892  1
  H+  H67  1  0.86597148  0.97408203  0.34500925  1
  H+  H68  1  0.33836032  0.24894005  0.80187386  1
  H+  H69  1  0.39684363  0.13029656  0.51416417  1
  H+  H70  1  0.86116840  0.22803553  0.16615999  1
  H+  H71  1  0.55618489  0.41701206  0.42395173  1
  H+  H72  1  0.25540169  0.15535512  0.80711147  1
  H+  H73  1  0.96991703  0.10031762  0.32258920  1
  H+  H74  1  0.63657491  0.26216805  0.15580011  1
  H+  H75  1  0.63548156  0.27078861  0.83775385  1
  H+  H76  1  0.39826820  0.58135744  0.62200062  1
  H+  H77  1  0.38021416  0.97759910  0.67425085  1
  H+  H78  1  0.11593855  0.89147786  0.83111859  1
  H+  H79  1  0.10561572  0.45174618  0.51934185  1
  H+  H80  1  0.51062155  0.87465238  0.16228981  1
  H+  H81  1  0.88866943  0.36008509  0.33953742  1
  H+  H82  1  1.01084107  0.12366869  0.14396492  1
  H+  H83  1  0.88168563  0.09794344  0.33038956  1
  H+  H84  1  0.61709443  0.72614485  0.17710403  1
  H+  H85  1  0.10549362  0.86451144  0.14102451  1
  H+  H86  1  0.85696538  0.71959888  0.15541588  1
  H+  H87  1  0.01460231  0.60222778  -0.03481089  1
  H+  H88  1  0.85888181  0.70597960  0.00368670  1
  H+  H89  1  0.25396301  0.39072651  0.83806883  1
  H+  H90  1  0.38297887  0.10221180  0.99724458  1
  H+  H91  1  0.47028191  0.88447439  0.27274868  1
  H+  H92  1  -0.00115549  0.13958145  0.48754671  1
  H+  H93  1  0.11782877  -0.00680620  0.49426367  1
  H+  H94  1  0.62149845  0.60521716  0.54302276  1
  H+  H95  1  0.17069051  0.64900571  0.54179001  1
  H+  H96  1  0.12054182  0.77179924  0.82660596  1
  H+  H97  1  0.13480800  0.36315969  0.65567927  1
  H+  H98  1  0.46862675  0.57074785  0.65252151  1
  H+  H99  1  0.95854498  0.09316007  0.84120092  1
  H+  H100  1  0.39688897  0.85567190  -0.00645041  1
  H+  H101  1  0.13622749  0.35490939  0.50387768  1
  H+  H102  1  0.12184866  0.49521435  0.35290626  1
  H+  H103  1  0.63398561  0.12203261  0.65782416  1
  H+  H104  1  0.14313474  0.51376742  0.83519149  1
  H+  H105  1  0.14101554  1.00062580  0.00232536  1
  H+  H106  1  0.77553475  0.88455246  0.34883060  1
  H+  H107  1  0.33243409  0.39026720  0.73371695  1
  H+  H108  1  0.25685395  0.93739653  0.94153788  1
  H+  H109  1  0.36984564  0.23042242  0.00968796  1
  H+  H110  1  0.72548965  0.35968827  0.66008614  1
  H+  H111  1  0.77785595  0.13590580  0.34866778  1
  H+  H112  1  0.12466155  0.11078946  0.83906696  1
  H+  H113  1  0.38645636  0.25235163  0.48746607  1
  H+  H114  1  0.61285105  0.62986773  0.99534904  1
  H+  H115  1  0.64590154  0.03341481  0.33133315  1
  H+  H116  1  0.85404947  0.62100398  0.82390968  1
  H+  H117  1  0.38185233  0.35134432  0.65105430  1
  H+  H118  1  0.88275641  0.59003295  0.98674478  1
  H+  H119  1  0.28198697  0.89625640  0.49525258  1
  H+  H120  1  0.86283476  0.37283830  0.53128074  1
  H+  H121  1  -0.02269881  0.36099016  0.33821924  1
  H+  H122  1  0.85969761  0.46944129  0.15875949  1
  H+  H123  1  0.86636275  0.90497070  0.50227909  1
  H+  H124  1  0.87232659  0.60860061  0.64756009  1
  H+  H125  1  0.41110236  0.61653028  0.16680087  1
  H+  H126  1  0.49966167  0.87803155  0.64380047  1
  H+  H127  1  0.87044050  0.60677756  0.34359149  1
  H+  H128  1  0.14762897  0.36876751  0.17214958  1
  H+  H129  1  0.09879974  0.69060966  -0.02591312  1
  H+  H130  1  0.85367203  0.71860136  0.36422401  1
  H+  H131  1  0.62927933  0.75614736  0.82757488  1
  H+  H132  1  0.35912397  0.71356792  0.37777515  1
  H+  H133  1  0.47769015  0.35761222  0.17714605  1
  H+  H134  1  0.37918304  0.15496972  0.86008475  1
  H+  H135  1  0.88681377  0.36235596  0.17863225  1
  H+  H136  1  0.16369503  0.10392828  0.66196719  1
  H+  H137  1  0.87302976  0.89559875  0.67068922  1
  H+  H138  1  0.38247483  0.51228428  0.34757356  1
  H+  H139  1  0.96137128  0.36746239  0.98385115  1
  H+  H140  1  0.08541607  0.93282415  0.43563621  1
  H+  H141  1  0.96196284  0.61463487  0.33303815  1
  H+  H142  1  0.47222843  0.10324501  0.33269156  1
  H+  H143  1  0.17654179  0.29599321  0.84016770  1
  H+  H144  1  0.03185076  0.13751656  -0.00087987  1
  H+  H145  1  -0.01316973  0.63753521  0.81635546  1
  H+  H146  1  0.84246251  0.13851073  0.44428538  1
  H+  H147  1  0.15316440  0.60398305  0.85241677  1
  H+  H148  1  0.36442721  0.98727444  0.50083204  1
  H+  H149  1  0.76334779  0.09426649  -0.01790259  1
  H+  H150  1  0.38167556  0.50149917  0.82059658  1
  H+  H151  1  0.24202859  0.12478607  0.98958413  1
  H+  H152  1  0.41073212  0.16949138  0.88617364  1
  H+  H153  1  0.64220041  0.77857436  0.33952275  1
  H+  H154  1  0.88588099  0.77984049  0.65511684  1
  H+  H155  1  0.60987644  0.34992391  0.51454035  1
  H+  H156  1  0.31441594  0.63821511  0.14753521  1
  H+  H157  1  0.36264620  -0.02075762  0.32190097  1
  H+  H158  1  0.63639254  0.27731582  -0.01230278  1
  H+  H159  1  0.61522493  0.23513560  0.67018362  1
  H+  H160  1  0.64498967  0.02858039  0.82843837  1
  H+  H161  1  0.11294319  0.89403849  0.34226019  1
  H+  H162  1  0.19516232  0.82184435  0.17046366  1
  H+  H163  1  0.84566090  -0.04053648  0.82800561  1
  H+  H164  1  0.90982856  0.13120130  0.99779856  1
  H+  H165  1  0.40594839  0.03429333  0.16863969  1
  H+  H166  1  0.09605292  0.23790700  0.66664221  1
  H+  H167  1  0.07104615  0.13953096  0.67098899  1
  H+  H168  1  0.27535402  0.87073319  0.81579820  1
  H+  H169  1  0.41494895  0.79375323  0.47421501  1
  H+  H170  1  0.11575307  0.84238800  0.65762639  1
  H+  H171  1  0.62107646  0.84999190  0.18063717  1
  H+  H172  1  0.61908587  0.70767429  0.66421508  1
  H+  H173  1  0.35448344  0.88556730  0.29789585  1
  H+  H174  1  0.10147647  0.35947984  0.01415470  1
  H+  H175  1  0.61490428  0.72365247  -0.00750590  1
  H+  H176  1  0.63124437  0.39618140  0.67658059  1
  H+  H177  1  0.47211298  0.37564102  0.34512193  1
  H+  H178  1  0.72144859  0.86615718  0.51352050  1
  H+  H179  1  0.12234719  0.13779619  0.99863045  1
  H+  H180  1  0.88162218  0.86174932  0.34700376  1
  H+  H181  1  0.83871273  0.48374579  0.50266383  1
  H+  H182  1  0.38128691  0.10178235  0.32782058  1
  H+  H183  1  0.09889893  0.74831610  0.48848638  1
  H+  H184  1  0.89109257  0.27367608  0.83483754  1
  H+  H185  1  0.06887229  0.62830676  0.14558765  1
  H+  H186  1  0.28818150  0.62968310  0.00176031  1
  H+  H187  1  0.37586817  0.29827269  0.34531341  1
  H+  H188  1  0.36765024  0.74344862  0.30816503  1
  H+  H189  1  0.59655151  0.38486428  0.37251332  1
  H+  H190  1  0.35544545  0.19572493  0.30286988  1
  H+  H191  1  0.35826067  0.22436934  0.16551708  1
  H+  H192  1  0.61524715  0.38445104  0.82476602  1
  H+  H193  1  0.37916566  0.63027910  0.80865118  1
  H+  H194  1  0.88908561  0.12305599  0.15490644  1
  H+  H195  1  0.62247138  0.60537110  0.64455788  1
  H+  H196  1  0.10783890  0.12067961  0.15493859  1
  H+  H197  1  0.76325077  0.63591336  0.65535105  1
  H+  H198  1  0.37648975  0.72190093  -0.00047436  1
  H+  H199  1  0.56006424  0.45520129  0.52785882  1
  H+  H200  1  0.77595316  0.38066361  0.14675546  1
  H+  H201  1  0.60825651  0.22041684  0.49706774  1
  H+  H202  1  0.62793183  0.48279532  0.66737102  1
  H+  H203  1  0.29699522  0.88698120  0.01626768  1
  H+  H204  1  0.35806690  0.85894298  0.82225176  1
  H+  H205  1  0.37340940  0.39394830  0.00707441  1
  H+  H206  1  0.41792574  0.90357546  0.49809049  1
  H+  H207  1  0.55033072  0.90340665  0.38173455  1
  H+  H208  1  0.62920965  0.96040055  0.42211702  1
  H+  H209  1  0.17201830  0.89589089  0.97908966  1
  H+  H210  1  0.53040526  0.12729235  0.82206630  1
  H+  H211  1  0.49946972  0.13320468  0.66558356  1
  H+  H212  1  0.52194109  0.86687929  1.00572581  1
  H+  H213  1  0.63530942  0.01766472  0.17028229  1
  H+  H214  1  0.82200632  0.41581330  0.72772588  1
  H+  H215  1  0.88127968  1.03176831  0.14267123  1
  H+  H216  1  0.61393333  0.38481295  0.00882000  1
  H+  H217  1  0.26440449  0.57193298  0.53324770  1
  H+  H218  1  0.39644540  0.12734219  0.66427701  1
  H+  H219  1  0.39792706  0.27372634  0.63796409  1
  H+  H220  1  0.24457482  0.13908493  0.50323849  1
  H+  H221  1  0.37781099  0.41567299  0.34852043  1
  H+  H222  1  0.02011991  0.88339445  0.67839110  1
  H+  H223  1  0.13840796  0.60322053  0.53263210  1
  H+  H224  1  0.41391981  0.81879783  0.93034268  1
  H+  H225  1  0.87597390  0.10303921  0.84260053  1
  H+  H226  1  0.28545904  0.39582592  0.00780363  1
  H+  H227  1  0.56357077  0.95273983  0.50524388  1
  H+  H228  1  0.39752366  0.63440985  0.32142370  1
  H+  H229  1  1.02158912  0.88902135  0.34647558  1
  H+  H230  1  0.13396804  1.02601701  0.32706538  1
  H+  H231  1  0.72420682  0.60823779  0.34001834  1
  H+  H232  1  0.07351153  0.68418671  0.39924555  1
  H+  H233  1  0.11793235  0.38534542  0.82727769  1
  H+  H234  1  0.11751120  0.34491810  0.30833130  1
  H+  H235  1  0.61217602  0.87262247  0.83907686  1
  H+  H236  1  0.88151737  0.77928706  0.50976902  1
  H+  H237  1  0.86690982  0.98460785  -0.00336334  1
  H+  H238  1  0.76787576  0.63101357  0.16282421  1
  H+  H239  1  0.60947853  0.13482751  0.34206044  1
  H+  H240  1  0.89202499  0.09118830  0.59146293  1
  H+  H241  1  0.76169071  0.87950105  0.17953413  1
  H+  H242  1  0.76868552  0.37846989  0.82547545  1
  H+  H243  1  0.84540223  0.62760250  0.50504920  1
  H+  H244  1  0.71985861  0.84725446  0.83034769  1
  H+  H245  1  0.52145140  0.13656935  -0.00131240  1
  H+  H246  1  0.85916973  0.37985300  0.82109230  1
  H+  H247  1  -0.05454278  0.36077054  0.52636096  1
  H+  H248  1  0.62295722  0.26747228  0.35030733  1
  H+  H249  1  -0.02151779  0.35187394  0.66930526  1
  H+  H250  1  0.15152865  0.27605155  0.49938409  1
  H+  H251  1  0.18920688  0.60020703  0.10767640  1
  H+  H252  1  0.52846056  0.64766567  0.50293144  1
  H+  H253  1  0.61602260  0.13235083  0.15217630  1
  H+  H254  1  0.38485769  0.41439729  0.49518961  1
  H+  H255  1  0.75268077  0.07829574  1.01419085  1
  H+  H256  1  0.87518546  0.50890836  0.83416156  1
  H+  H257  1  0.40023527  0.52554011  0.99081729  1
  H+  H258  1  0.09542053  0.46180118  0.67643372  1
  H+  H259  1  0.14097376  0.87986302  0.50295451  1
  H+  H260  1  0.00141417  0.61578511  0.19493186  1
  H+  H261  1  0.84766335  0.13290360  0.66988299  1
  H+  H262  1  1.02317075  0.38783138  0.17098183  1
  H+  H263  1  0.38305102  0.88524707  0.17957034  1
  H+  H264  1  0.35093857  0.90815549  0.72579831  1
  H+  H265  1  0.38426737  0.74975088  0.82979621  1
  H+  H266  1  0.96201887  0.25904071  0.03921694  1
  H+  H267  1  0.52962415  0.13843358  0.15328767  1
  H+  H268  1  0.99473832  0.61740588  0.65554808  1
  H+  H269  1  -0.02723619  0.86841534  0.50531908  1
  H+  H270  1  0.84594416  0.95076499  0.21072535  1
  H+  H271  1  0.26521241  0.13092453  0.33112080  1
  H+  H272  1  0.48182946  0.36542453  0.99879828  1
  H+  H273  1  0.72441693  0.10743224  0.16721827  1
  H+  H274  1  0.66233754  0.57511365  0.93026497  1
  H+  H275  1  0.10175995  0.59003976  0.65950415  1
  H+  H276  1  0.60836066  0.62460213  0.81913425  1
  H+  H277  1  0.64811206  0.87101182  0.34293495  1
  H+  H278  1  0.10940941  0.22575826  0.32783282  1
  H+  H279  1  0.58094183  0.41459211  0.10414288  1
  H+  H280  1  0.72862691  0.83733169  0.66340492  1
  H+  H281  1  0.95220171  0.12196337  0.65088420  1
  H+  H282  1  0.58688189  0.92578754  0.88311574  1
  H+  H283  1  -0.06210515  0.60509014  0.49893564  1
  H+  H284  1  0.62231788  0.63431029  0.17614750  1
  H+  H285  1  0.64199918  0.77165442  0.51409953  1
  H+  H286  1  0.26222675  0.88405258  0.32029401  1
  H+  H287  1  0.76430420  0.14246312  0.67634576  1
  H+  H288  1  0.15109168  0.55717462  0.61382878  1
  H+  H289  1  0.66910383  0.81409213  0.60415991  1
  H+  H290  1  0.16660509  0.70003845  0.07075737  1
  H+  H291  1  0.61454524  0.87615952  0.00502851  1
  H+  H292  1  0.35263197  0.18489207  0.43231602  1
  H+  H293  1  0.90357534  0.56506968  0.89655602  1
  H+  H294  1  0.43033114  0.09226733  0.22822457  1
  H+  H295  1  0.85968418  0.03348038  0.49853321  1
  H+  H296  1  0.18371881  0.34450040  0.93502135  1
  H+  H297  1  0.83566121  0.91241533  0.04710132  1
  H+  H298  1  0.16811735  0.33321785  0.59723030  1
  H+  H299  1  0.68086730  0.32029824  0.21308754  1
  H+  H300  1  0.10833926  0.65144948  0.34357523  1
  H+  H301  1  0.85812004  0.71164163  0.82228797  1
  H+  H302  1  0.47963185  0.11864294  0.51328609  1
  H+  H303  1  0.13259699  0.02603643  0.83911387  1
  H+  H304  1  0.88268687  0.24349253  0.00490694  1
  H+  H305  1  0.15384476  0.13547605  0.50859163  1
  H+  H306  1  0.83656292  0.16352663  0.76787189  1
  H+  H307  1  0.33472092  0.63748313  0.70375285  1
  H+  H308  1  0.30523456  0.92374517  0.16356194  1
  H+  H309  1  0.07749796  0.40006641  0.73367559  1
  H+  H310  1  0.57452480  0.15336206  0.40462953  1
  H+  H311  1  0.08491392  0.15482958  0.08666482  1
  H+  H312  1  0.16824489  0.32829341  0.25700192  1
  H+  H313  1  0.82020254  0.41322667  0.44956085  1
  H+  H314  1  0.57187924  0.89620647  0.10355948  1
  H+  H315  1  0.07681781  0.16991138  0.38939389  1
  H+  H316  1  0.17934115  0.09193367  0.92897654  1
  H+  H317  1  0.15620146  0.08407065  0.22946286  1
  H+  H318  1  0.35651665  0.91766092  0.07692114  1
  H+  H319  1  0.82577402  0.65179119  0.06432651  1
  H+  H320  1  0.28815856  0.62728379  0.80855392  1
  H+  H321  1  0.09779376  0.91863671  0.06878945  1
  H+  H322  1  0.43051718  0.05702041  0.89696604  1
  H+  H323  1  0.89209408  0.80870988  0.29345867  1
  H+  H324  1  0.40046294  0.61624678  0.98799375  1
  H+  H325  1  0.37032293  0.66027999  0.08854554  1
  H+  H326  1  0.06155930  0.17611001  0.76359225  1
  H+  H327  1  0.42787158  0.59107934  0.87823639  1
  H+  H328  1  0.81407635  0.65646569  0.42115979  1
  H+  H329  1  0.00551052  0.71535633  0.77433091  1
  H+  H330  1  0.42897590  0.59412004  0.26880890  1
  H+  H331  1  0.91526641  0.33675598  0.89223850  1
  H+  H332  1  0.37274287  0.40497479  0.83022181  1
  H+  H333  1  0.59448974  0.66007703  0.45046069  1
  H+  H334  1  0.42010841  0.33984036  0.23687838  1
  H+  H335  1  0.66922254  0.08563932  0.26843059  1
  H+  H336  1  0.05002195  0.91321150  -0.00675937  1
  H+  H337  1  0.91385227  0.33272748  0.24060568  1
  H+  H338  1  0.58343193  0.17102000  0.73118767  1
  H+  H339  1  0.33382167  0.17811627  0.71820648  1
  H+  H340  1  0.83572822  0.92479183  0.43969264  1
  H+  H341  1  0.65893157  0.32567524  0.60173746  1
  H+  H342  1  0.06795801  0.41470697  0.45454844  1
  H+  H343  1  0.15763056  0.83528912  0.56019572  1
  H+  H344  1  0.90338485  0.33410847  0.61156013  1
  H+  H345  1  0.72633622  0.60662443  0.83800191  1
  H+  H346  1  0.66188742  0.81780792  0.92061730  1
  H+  H347  1  0.16029223  0.58892036  0.27395943  1
  H+  H348  1  0.42996959  0.34835589  0.56713810  1
  H+  H349  1  0.07175762  0.91396521  0.77839714  1
  H+  H350  1  0.52086835  0.62663233  0.17499713  1
  H+  H351  1  0.94860169  0.85445334  0.20902355  1
  H+  H352  1  0.02464700  0.38113851  0.82613009  1
  H+  H353  1  0.66715596  0.57528634  0.24222114  1
  H+  H354  1  0.76254769  0.64254679  0.51354124  1
  H+  H355  1  0.33376802  0.16937930  0.06848607  1
  H+  H356  1  0.65478902  0.82903358  0.24368895  1
  H+  H357  1  0.05243052  0.65290500  0.71593891  1
  H+  H358  1  0.88975532  0.57102258  0.24453924  1
  H+  H359  1  0.17114107  0.82963305  0.88523075  1
  H+  H360  1  0.61036308  0.13141340  0.49694645  1
  H+  H361  1  -0.01012799  0.86747332  0.87622840  1
  H+  H362  1  0.39297015  0.01757024  1.00321475  1
  H+  H363  1  0.65794954  0.07874705  0.88853823  1
  H+  H364  1  0.03037016  0.07999716  0.46408929  1
  H+  H365  1  0.51200970  0.62678814  -0.00732233  1
  H+  H366  1  0.66372855  0.33183986  0.89769480  1
  H+  H367  1  0.84928902  0.18579033  0.10093556  1
  H+  H368  1  0.19099963  0.64108448  0.16992941  1
  H+  H369  1  0.82532791  0.90884456  0.76570941  1
  H+  H370  1  0.15005445  0.43137098  0.37716927  1
  H+  H371  1  0.12366026  0.65880737  0.07238811  1
  H+  H372  1  0.58530859  0.64099877  0.72151172  1
  H+  H373  1  0.64041883  0.33806721  0.30133122  1
  H+  H374  1  0.08353500  0.65429912  0.49284411  1
  H+  H375  1  0.58577026  0.16454893  0.05474677  1
  H+  H376  1  0.42944003  0.27158799  0.86468503  1
  H+  H377  1  0.60433079  -0.00107091  0.98397310  1
  H+  H378  1  0.91753650  0.08697763  0.93538513  1
  H+  H379  1  0.59250000  0.42348795  0.76625381  1
  H+  H380  1  0.17848920  0.08104957  0.59521776  1
  H+  H381  1  0.15403520  0.83410646  0.26686986  1
  H+  H382  1  0.57511359  0.92362598  0.73365995  1
  H+  H383  1  0.82863246  0.40778632  0.04807908  1
  O2-  O384  1  0.07570517  0.14847498  0.13273066  1
  O2-  O385  1  0.05200567  0.14074707  0.47267685  1
  O2-  O386  1  0.06651366  0.17161491  0.80877516  1
  O2-  O387  1  0.08163545  0.41360401  0.15222887  1
  O2-  O388  1  0.06650686  0.39847107  0.49773154  1
  O2-  O389  1  0.08498617  0.41086005  0.80919754  1
  O2-  O390  1  0.06584224  0.64424600  0.18764455  1
  O2-  O391  1  0.06187967  0.68748437  0.47180057  1
  O2-  O392  1  0.03399497  0.68578693  0.79102379  1
  O2-  O393  1  0.08404188  0.90072740  0.12148085  1
  O2-  O394  1  0.08340591  0.93276019  0.48101886  1
  O2-  O395  1  0.08061803  0.91947612  0.82347718  1
  O2-  O396  1  0.32840649  0.16497371  0.14862336  1
  O2-  O397  1  0.35141123  0.18962224  0.47677692  1
  O2-  O398  1  0.30179640  0.19543868  0.77961613  1
  O2-  O399  1  0.35187835  0.43015632  0.14704302  1
  O2-  O400  1  0.34930821  0.43932105  0.47962842  1
  O2-  O401  1  0.34286904  0.43115358  0.81050598  1
  O2-  O402  1  0.37405282  0.66052647  0.13414533  1
  O2-  O403  1  0.37817731  0.73389884  0.45403694  1
  O2-  O404  1  0.34709456  0.66093394  0.79256789  1
  O2-  O405  1  0.36143848  0.93523292  0.15024030  1
  O2-  O406  1  0.34254423  0.93050392  0.48166708  1
  O2-  O407  1  0.33716949  0.89730180  0.80589883  1
  O2-  O408  1  0.58903960  0.16517138  0.13559556  1
  O2-  O409  1  0.57818475  0.15930015  0.48221156  1
  O2-  O410  1  0.58857065  0.16865534  0.80368033  1
  O2-  O411  1  0.58076652  0.41237910  0.14994531  1
  O2-  O412  1  0.53293805  0.40089803  0.50329667  1
  O2-  O413  1  0.58473946  0.41585079  0.81215586  1
  O2-  O414  1  0.59013928  0.66422866  0.16175261  1
  O2-  O415  1  0.58890300  0.66004822  0.49511899  1
  O2-  O416  1  0.58183537  0.65450141  0.79845987  1
  O2-  O417  1  0.57146984  0.89916244  0.14908865  1
  O2-  O418  1  0.62812881  0.98190626  0.49704727  1
  O2-  O419  1  0.58322755  0.90893295  0.84051912  1
  O2-  O420  1  0.83250418  0.17136457  0.14483560  1
  O2-  O421  1  0.83468195  0.13111401  0.48969750  1
  O2-  O422  1  0.84006870  0.16443024  0.81328574  1
  O2-  O423  1  0.83910637  0.41187188  0.14079847  1
  O2-  O424  1  0.80978983  0.41683327  0.49325567  1
  O2-  O425  1  0.82801523  0.41005143  0.80788286  1
  O2-  O426  1  0.82666556  0.65810923  0.14442443  1
  O2-  O427  1  0.81866813  0.66864054  0.49315457  1
  O2-  O428  1  0.82780763  0.65407565  0.80495205  1
  O2-  O429  1  0.82587307  0.91406625  0.17451236  1
  O2-  O430  1  0.83742506  0.93502172  0.48460017  1
  O2-  O431  1  0.81752054  0.90111004  0.81051199  1
  O2-  O432  1  0.15636838  0.08386688  0.18424451  1
  O2-  O433  1  0.18514988  0.10604706  0.52048921  1
  O2-  O434  1  0.16220156  0.08831627  0.85169285  1
  O2-  O435  1  0.17910678  0.33975051  0.18598622  1
  O2-  O436  1  0.17762814  0.33505894  0.51427465  1
  O2-  O437  1  0.19115602  0.35301513  0.85468490  1
  O2-  O438  1  0.19670300  0.59486568  0.15127750  1
  O2-  O439  1  0.22928580  0.53490021  0.56617872  1
  O2-  O440  1  0.18353015  0.57181191  0.85263283  1
  O2-  O441  1  0.13998567  0.81079085  0.18681380  1
  O2-  O442  1  0.16528204  0.84289525  0.51432645  1
  O2-  O443  1  0.16474458  0.83031682  0.84067887  1
  O2-  O444  1  0.43026287  0.09628118  0.18345254  1
  O2-  O445  1  0.42160134  0.09692571  0.53238007  1
  O2-  O446  1  0.44334446  0.05490485  0.85377688  1
  O2-  O447  1  0.41698891  0.33083813  0.19253055  1
  O2-  O448  1  0.43868244  0.35906191  0.51521130  1
  O2-  O449  1  0.43160005  0.32666180  0.85886482  1
  O2-  O450  1  0.43902349  0.58599205  0.19122535  1
  O2-  O451  1  0.42798184  0.62508566  0.51288271  1
  O2-  O452  1  0.42669224  0.58606838  0.83397872  1
  O2-  O453  1  0.40390581  0.83826704  0.19832109  1
  O2-  O454  1  0.45928647  0.88275816  0.50748196  1
  O2-  O455  1  0.40667504  0.80710994  0.85208064  1
  O2-  O456  1  0.66473441  0.07833619  0.18413580  1
  O2-  O457  1  0.66470236  0.07071330  0.51918515  1
  O2-  O458  1  0.67392814  0.08814015  0.84400429  1
  O2-  O459  1  0.66679283  0.32438944  0.17101623  1
  O2-  O460  1  0.64504883  0.32295692  0.52213440  1
  O2-  O461  1  0.66536569  0.33167835  0.85186684  1
  O2-  O462  1  0.66600096  0.57747971  0.19657222  1
  O2-  O463  1  0.64353521  0.56578118  0.55590662  1
  O2-  O464  1  0.66761574  0.57648045  0.85604527  1
  O2-  O465  1  0.65436807  0.82329859  0.19823023  1
  O2-  O466  1  0.66327112  0.83052781  0.52992416  1
  O2-  O467  1  0.65827973  0.81513465  0.84663931  1
  O2-  O468  1  0.91991775  0.08930435  0.15864327  1
  O2-  O469  1  0.88974457  0.09711662  0.51075442  1
  O2-  O470  1  0.90158140  0.06906627  0.86044718  1
  O2-  O471  1  0.91711617  0.33276555  0.19550350  1
  O2-  O472  1  0.89143601  0.34159196  0.54846438  1
  O2-  O473  1  0.92105071  0.33560793  0.84622001  1
  O2-  O474  1  0.89873831  0.57124979  0.19953608  1
  O2-  O475  1  0.88085623  0.57540013  0.51760719  1
  O2-  O476  1  0.90142344  0.56952330  0.85024672  1
  O2-  O477  1  0.92557844  0.84059914  0.16779840  1
  O2-  O478  1  0.91347866  0.84146578  0.52186473  1
  O2-  O479  1  0.94598882  0.83365437  0.90811524  1
  O2-  O480  1  0.16678261  0.08602863  0.31085994  1
  O2-  O481  1  0.18049703  0.06811004  0.63946222  1
  O2-  O482  1  0.18055735  0.09059568  0.97468646  1
  O2-  O483  1  0.15699406  0.32322244  0.30298160  1
  O2-  O484  1  0.16053558  0.32773770  0.64194917  1
  O2-  O485  1  0.18172714  0.34003815  0.98031241  1
  O2-  O486  1  0.16846652  0.59682131  0.31778692  1
  O2-  O487  1  0.13419135  0.55745573  0.65628544  1
  O2-  O488  1  0.18933207  0.57382295  0.98028505  1
  O2-  O489  1  0.16551655  0.84129868  0.31137828  1
  O2-  O490  1  0.13830294  0.81397907  0.63114245  1
  O2-  O491  1  0.21359550  0.88277246  0.95913667  1
  O2-  O492  1  0.41322277  0.07296723  0.31351823  1
  O2-  O493  1  0.43234762  0.09872823  0.64900943  1
  O2-  O494  1  0.41274975  0.07267915  0.98084827  1
  O2-  O495  1  0.41329641  0.35389275  0.32599961  1
  O2-  O496  1  0.41800876  0.33355438  0.62522201  1
  O2-  O497  1  0.42116160  0.33698370  0.98295117  1
  O2-  O498  1  0.42632140  0.59987330  0.31403198  1
  O2-  O499  1  0.41004264  0.53695468  0.63612738  1
  O2-  O500  1  0.43309653  0.58607496  0.97442191  1
  O2-  O501  1  0.40842174  0.84676451  0.26578194  1
  O2-  O502  1  0.44515212  0.85504041  0.62023389  1
  O2-  O503  1  0.42199407  0.82203787  0.97561733  1
  O2-  O504  1  0.67050319  0.09179322  0.31351676  1
  O2-  O505  1  0.66729170  0.09296536  0.64722969  1
  O2-  O506  1  0.60895445  0.04280454  0.95469637  1
  O2-  O507  1  0.65065773  0.33149678  0.34393892  1
  O2-  O508  1  0.66143889  0.32453969  0.64689003  1
  O2-  O509  1  0.66387168  0.33848867  0.97487734  1
  O2-  O510  1  0.66536995  0.57961144  0.32054275  1
  O2-  O511  1  0.65874874  0.57629376  0.62244988  1
  O2-  O512  1  0.65804882  0.57651444  0.97634641  1
  O2-  O513  1  0.67119310  0.83803871  0.32173384  1
  O2-  O514  1  0.67012742  0.79881080  0.64794696  1
  O2-  O515  1  0.66417281  0.82068223  0.96694892  1
  O2-  O516  1  0.90743326  0.06443727  0.31406395  1
  O2-  O517  1  0.89244038  0.08437105  0.63642027  1
  O2-  O518  1  0.92663936  0.08970863  0.98067955  1
  O2-  O519  1  0.91770271  0.32866910  0.32384463  1
  O2-  O520  1  0.91446334  0.32385075  0.65764277  1
  O2-  O521  1  0.90418273  0.33702201  0.96498325  1
  O2-  O522  1  0.90010818  0.57909992  0.32262659  1
  O2-  O523  1  0.89946865  0.57576515  0.63249774  1
  O2-  O524  1  0.90721914  0.55758843  0.96775190  1
  O2-  O525  1  0.91127914  0.82758670  0.33484853  1
  O2-  O526  1  0.92303010  0.84150705  0.64420143  1
  O2-  O527  1  0.97019317  0.89937638  0.95582898  1
  O2-  O528  1  0.09234923  0.16736592  0.01548601  1
  O2-  O529  1  0.08057520  0.16500020  0.34500414  1
  O2-  O530  1  0.05325579  0.17913366  0.68586401  1
  O2-  O531  1  0.05083744  0.35741906  0.03378304  1
  O2-  O532  1  0.09934995  0.43742989  0.37199530  1
  O2-  O533  1  0.07290190  0.39914544  0.68797537  1
  O2-  O534  1  0.07839764  0.63339511  -0.04216392  1
  O2-  O535  1  0.07738828  0.68258326  0.35308672  1
  O2-  O536  1  0.05636368  0.64503740  0.67176241  1
  O2-  O537  1  0.10847716  0.93601353  0.01424153  1
  O2-  O538  1  0.08353228  0.92486292  0.35732069  1
  O2-  O539  1  0.07708914  0.90580188  0.69929493  1
  O2-  O540  1  0.33664063  0.16905925  0.02305312  1
  O2-  O541  1  0.33003751  0.16302147  0.34004069  1
  O2-  O542  1  0.34570445  0.16688237  0.67466627  1
  O2-  O543  1  0.34659069  0.42771863  0.02231225  1
  O2-  O544  1  0.35392493  0.45165041  0.36658399  1
  O2-  O545  1  0.31564509  0.35228789  0.69754024  1
  O2-  O546  1  0.35118788  0.66086780  0.01410261  1
  O2-  O547  1  0.34360021  0.69212262  0.33478575  1
  O2-  O548  1  0.30913176  0.63288984  0.66327241  1
  O2-  O549  1  0.35672778  0.91374060  0.03069354  1
  O2-  O550  1  0.32840298  0.91201644  0.32547533  1
  O2-  O551  1  0.35638483  0.91615748  0.68102498  1
  O2-  O552  1  0.58367828  0.16628434  0.00963965  1
  O2-  O553  1  0.57376056  0.15852616  0.35915408  1
  O2-  O554  1  0.58104538  0.17128697  0.68475922  1
  O2-  O555  1  0.58274027  0.41356593  0.02686970  1
  O2-  O556  1  0.56622822  0.41774120  0.37920860  1
  O2-  O557  1  0.61716636  0.43687947  0.69670028  1
  O2-  O558  1  0.58187087  0.66205458  0.00845745  1
  O2-  O559  1  0.59544599  0.67419365  0.36374395  1
  O2-  O560  1  0.58543816  0.64229998  0.67570892  1
  O2-  O561  1  0.58068976  0.89970132  0.02419843  1
  O2-  O562  1  0.61261169  0.93913652  0.37902039  1
  O2-  O563  1  0.58898496  0.92797078  0.69059942  1
  O2-  O564  1  0.90122272  0.21129572  0.03256150  1
  O2-  O565  1  0.83593265  0.15809347  0.36656122  1
  O2-  O566  1  0.82546856  0.16785312  0.69094626  1
  O2-  O567  1  0.82272714  0.40698163  0.00374203  1
  O2-  O568  1  0.83495056  0.41283925  0.36345202  1
  O2-  O569  1  0.81642416  0.41392413  0.68275457  1
  O2-  O570  1  0.82374750  0.64765761  0.01900235  1
  O2-  O571  1  0.81930832  0.65688794  0.37469304  1
  O2-  O572  1  0.82164185  0.66675168  0.67395602  1
  O2-  O573  1  0.83894690  0.92041747  0.00314184  1
  O2-  O574  1  0.83631449  0.91350192  0.36355103  1
  O2-  O575  1  0.83646201  0.91820136  0.68723791  1
