# generated using pymatgen
data_H2O
_symmetry_space_group_name_H-M   'P 1'
_cell_length_a   17.99792348
_cell_length_b   17.99632969
_cell_length_c   22.01809617
_cell_angle_alpha   89.99021343
_cell_angle_beta   90.00824987
_cell_angle_gamma   119.99338429
_symmetry_Int_Tables_number   1
_chemical_formula_structural   H2O
_chemical_formula_sum   'H384 O192'
_cell_volume   6176.54597587
_cell_formula_units_Z   192
loop_
 _symmetry_equiv_pos_site_id
 _symmetry_equiv_pos_as_xyz
  1  'x, y, z'
loop_
 _atom_type_symbol
 _atom_type_oxidation_number
  H+  1.0
  O2-  -2.0
loop_
 _atom_site_type_symbol
 _atom_site_label
 _atom_site_symmetry_multiplicity
 _atom_site_fract_x
 _atom_site_fract_y
 _atom_site_fract_z
 _atom_site_occupancy
  H+  H0  1  0.20481113  0.61350118  0.17114701  1
  H+  H1  1  0.92496666  0.80571674  0.24840287  1
  H+  H2  1  0.34586786  0.18246378  0.73703131  1
  H+  H3  1  0.43731630  0.84354944  0.34125208  1
  H+  H4  1  0.96699220  0.61660295  0.17612608  1
  H+  H5  1  0.60045059  0.37793028  0.00744978  1
  H+  H6  1  0.88728523  0.61582336  0.66276356  1
  H+  H7  1  0.64452887  0.29518914  0.52113095  1
  H+  H8  1  0.34480836  0.46242820  0.00594592  1
  H+  H9  1  0.18714857  0.96586496  0.83195382  1
  H+  H10  1  0.74208568  0.12728124  0.50486080  1
  H+  H11  1  0.62437842  0.29805091  0.10081671  1
  H+  H12  1  0.52060202  0.39486452  0.16260555  1
  H+  H13  1  0.14848278  0.87166648  0.98739194  1
  H+  H14  1  0.61678173  0.62972563  0.16442356  1
  H+  H15  1  0.37206399  -0.01327645  0.66640440  1
  H+  H16  1  0.99098931  0.12821244  0.33738763  1
  H+  H17  1  0.87819861  0.09893885  1.00673997  1
  H+  H18  1  0.61648898  0.49018151  0.49080725  1
  H+  H19  1  0.27588416  0.64490526  0.66693678  1
  H+  H20  1  0.94511750  0.58581479  0.50521256  1
  H+  H21  1  0.13967789  0.05380278  0.80673733  1
  H+  H22  1  0.62382363  0.89439389  0.50152669  1
  H+  H23  1  0.74070163  0.13612957  0.32980245  1
  H+  H24  1  0.52542271  0.40305750  0.49293521  1
  H+  H25  1  0.38998127  1.02418599  -0.00727763  1
  H+  H26  1  0.88455424  0.82564715  0.16662912  1
  H+  H27  1  0.64162611  0.28083176  0.33534205  1
  H+  H28  1  0.65827827  0.04377356  0.33362677  1
  H+  H29  1  0.01857651  0.87917033  0.32808019  1
  H+  H30  1  0.13099944  0.53274431  0.50800850  1
  H+  H31  1  0.02191398  0.62874302  1.01264029  1
  H+  H32  1  0.62793692  0.00059599  0.66202791  1
  H+  H33  1  0.60161083  0.23888207  1.01217561  1
  H+  H34  1  0.10212888  0.47872049  0.00935886  1
  H+  H35  1  0.38569105  0.48895102  0.50114183  1
  H+  H36  1  -0.03538324  0.60283237  0.83679410  1
  H+  H37  1  0.64488232  0.86313460  0.16808305  1
  H+  H38  1  0.41094624  0.32564936  0.23324561  1
  H+  H39  1  0.11749067  0.52631724  0.17564085  1
  H+  H40  1  0.24307926  0.10856390  0.65833942  1
  H+  H41  1  0.38138600  0.26840387  0.17291820  1
  H+  H42  1  0.37339168  0.10145032  0.34602880  1
  H+  H43  1  0.10814026  0.13295091  0.15588265  1
  H+  H44  1  0.66222417  0.64709668  0.99159107  1
  H+  H45  1  0.37653489  0.60628579  0.99388470  1
  H+  H46  1  0.89710362  0.79441039  0.50438610  1
  H+  H47  1  0.48338445  0.12105523  0.65813302  1
  H+  H48  1  0.77970136  0.85891167  0.17085350  1
  H+  H49  1  0.67649911  0.10097551  0.59688458  1
  H+  H50  1  0.13884412  0.27788931  0.50412254  1
  H+  H51  1  0.86442567  0.71871176  0.33087691  1
  H+  H52  1  -0.03667798  0.09377024  -0.00469263  1
  H+  H53  1  0.39235708  0.03116546  0.51168636  1
  H+  H54  1  0.86900864  0.39859658  0.33438888  1
  H+  H55  1  0.10560412  0.87859587  0.33386646  1
  H+  H56  1  0.37300765  0.15395930  0.83327810  1
  H+  H57  1  1.11675389  0.13610524  0.34098113  1
  H+  H58  1  0.64770985  0.27043355  0.83904367  1
  H+  H59  1  0.42706673  0.92742643  0.50028633  1
  H+  H60  1  0.30995435  0.48787445  0.46421216  1
  H+  H61  1  0.72005417  0.86755381  0.31944637  1
  H+  H62  1  0.35934606  0.47244489  0.16123736  1
  H+  H63  1  0.87435990  0.15051014  0.49258428  1
  H+  H64  1  0.53367253  0.14695565  0.83014535  1
  H+  H65  1  0.46983166  0.35663748  0.99549601  1
  H+  H66  1  0.79906509  0.59150647  0.18345191  1
  H+  H67  1  0.86159050  0.47678032  0.67931977  1
  H+  H68  1  0.78423930  0.64757974  0.67327554  1
  H+  H69  1  0.89496349  0.06494153  0.35908191  1
  H+  H70  1  0.12448541  0.22948794  0.34201534  1
  H+  H71  1  0.24138578  0.85441054  0.63654616  1
  H+  H72  1  0.84764794  0.75674733  0.85291014  1
  H+  H73  1  0.22252140  0.60558458  0.00177685  1
  H+  H74  1  0.41102700  0.07756565  0.10298986  1
  H+  H75  1  0.22679441  0.36900775  0.50551555  1
  H+  H76  1  0.83867964  0.41627497  0.73828131  1
  H+  H77  1  0.12844350  0.90852234  0.48289403  1
  H+  H78  1  -0.02499787  0.36825138  -0.00571317  1
  H+  H79  1  0.84746998  0.56872214  0.50830180  1
  H+  H80  1  0.32708395  0.16674543  0.10039168  1
  H+  H81  1  0.77320208  0.38839559  0.33926662  1
  H+  H82  1  0.01922702  0.38774797  0.82683422  1
  H+  H83  1  0.54623797  0.91072300  0.13933979  1
  H+  H84  1  0.48752113  0.86268439  0.51637694  1
  H+  H85  1  0.61220313  0.14199800  0.34579775  1
  H+  H86  1  0.22375151  0.11822933  0.50325933  1
  H+  H87  1  0.62051255  0.36079535  0.14840768  1
  H+  H88  1  0.03933013  0.92004209  0.83856130  1
  H+  H89  1  0.36617219  0.24026001  0.83351875  1
  H+  H90  1  1.01906288  0.39823788  0.67047432  1
  H+  H91  1  0.13247430  0.52561777  0.82751007  1
  H+  H92  1  0.87951206  0.51530152  0.84490347  1
  H+  H93  1  0.88817426  0.61325395  -0.00064204  1
  H+  H94  1  0.36615873  0.73430116  0.66888411  1
  H+  H95  1  0.63440864  0.99245400  0.15538596  1
  H+  H96  1  0.09374326  0.61621999  0.80866520  1
  H+  H97  1  0.86242042  0.14046149  0.82758977  1
  H+  H98  1  0.38497749  0.60738553  0.32803540  1
  H+  H99  1  0.74536206  0.62705053  0.50210827  1
  H+  H100  1  0.72580809  0.61469943  0.31625849  1
  H+  H101  1  0.26930427  0.89328707  0.42418971  1
  H+  H102  1  0.16503768  1.08138616  0.22835609  1
  H+  H103  1  0.21643902  0.34100559  0.98941380  1
  H+  H104  1  0.16961927  0.83887615  0.83192563  1
  H+  H105  1  0.20191509  0.85890613  0.53467588  1
  H+  H106  1  0.21772378  0.36241808  0.16463824  1
  H+  H107  1  0.39126488  0.62235777  0.65597370  1
  H+  H108  1  0.63652956  0.02299899  0.84121869  1
  H+  H109  1  0.71846533  0.60230192  0.83836114  1
  H+  H110  1  0.65921003  0.34042310  0.61560159  1
  H+  H111  1  0.13225099  0.37566310  0.65930513  1
  H+  H112  1  0.60846718  1.02317780  -0.01115264  1
  H+  H113  1  0.46267313  0.38976974  0.85020422  1
  H+  H114  1  0.27786402  0.27915268  0.62523847  1
  H+  H115  1  0.69757604  0.51971272  0.63723177  1
  H+  H116  1  0.35479261  0.63062177  0.16339715  1
  H+  H117  1  0.13930713  0.62188741  0.65894395  1
  H+  H118  1  0.10707863  0.22109722  0.15186473  1
  H+  H119  1  0.61536845  0.72817186  0.33310352  1
  H+  H120  1  0.62610240  0.89961090  -0.00861173  1
  H+  H121  1  0.86805574  0.14882530  0.16886037  1
  H+  H122  1  0.72931571  0.36722475  0.99486387  1
  H+  H123  1  0.90683379  0.30346591  0.32861689  1
  H+  H124  1  0.10886307  0.57659479  0.34255969  1
  H+  H125  1  0.09106117  0.63076822  0.17199039  1
  H+  H126  1  0.66410184  0.77868859  1.01192111  1
  H+  H127  1  0.35899431  0.12860517  0.15248970  1
  H+  H128  1  0.65198169  0.03850272  0.50776621  1
  H+  H129  1  0.87575232  0.96429817  0.29884043  1
  H+  H130  1  0.37381986  0.62550395  0.49654419  1
  H+  H131  1  0.23211365  0.12745779  0.82851750  1
  H+  H132  1  0.91084217  0.68755589  0.47743668  1
  H+  H133  1  0.78487496  0.64135764  0.00999775  1
  H+  H134  1  0.89597148  0.04053886  0.51997230  1
  H+  H135  1  0.02602232  0.15471366  0.68026112  1
  H+  H136  1  0.39975180  0.05530187  0.29661495  1
  H+  H137  1  0.66242988  0.82986570  0.56969035  1
  H+  H138  1  0.59672617  0.83172190  0.85213939  1
  H+  H139  1  0.63143115  0.51295441  0.84573197  1
  H+  H140  1  0.89625535  0.86528246  1.00808313  1
  H+  H141  1  0.36399602  0.22060013  0.34118947  1
  H+  H142  1  0.11197323  0.24624786  0.67655379  1
  H+  H143  1  0.36846415  0.77459320  0.84012462  1
  H+  H144  1  0.77676118  0.14491757  0.16391290  1
  H+  H145  1  0.97396037  0.12702863  0.83294336  1
  H+  H146  1  0.86493070  0.23624621  0.67426523  1
  H+  H147  1  0.33881931  0.75111729  0.48923596  1
  H+  H148  1  0.87878319  0.27571334  0.17958021  1
  H+  H149  1  0.90013625  0.57128170  0.60315519  1
  H+  H150  1  0.04288341  0.90142060  0.69983599  1
  H+  H151  1  0.52034632  0.13286841  0.35553030  1
  H+  H152  1  0.72772139  0.11271667  0.83869987  1
  H+  H153  1  0.61677471  0.63976500  0.32998965  1
  H+  H154  1  0.86837880  0.98467957  0.67275680  1
  H+  H155  1  0.35509728  0.97776074  0.14884729  1
  H+  H156  1  0.11533138  0.15865844  0.82592604  1
  H+  H157  1  0.00983911  0.62096494  0.33683818  1
  H+  H158  1  0.75462426  0.37832762  0.14736502  1
  H+  H159  1  0.87229409  0.22637383  0.00807870  1
  H+  H160  1  0.61363233  0.48108743  0.33203199  1
  H+  H161  1  0.10974665  0.48774901  0.67201823  1
  H+  H162  1  0.49680508  0.87976968  0.84147896  1
  H+  H163  1  0.39560656  0.49514753  0.67858623  1
  H+  H164  1  0.84773074  0.44616892  0.49448586  1
  H+  H165  1  0.87453443  0.90111779  0.50758141  1
  H+  H166  1  0.20631060  0.84614462  0.33159370  1
  H+  H167  1  0.33432240  0.70418156  0.33953939  1
  H+  H168  1  0.84183977  0.46751194  0.16077971  1
  H+  H169  1  0.37949056  0.35792195  0.99674092  1
  H+  H170  1  0.88709259  0.27356275  0.84374467  1
  H+  H171  1  0.13295298  0.01969865  0.32467656  1
  H+  H172  1  0.11564718  0.14087831  0.49827914  1
  H+  H173  1  0.60168835  0.62005600  0.82655144  1
  H+  H174  1  0.37162755  0.52085170  0.83191379  1
  H+  H175  1  0.22901252  0.10091122  -0.01495196  1
  H+  H176  1  0.87618848  0.24013913  0.49374148  1
  H+  H177  1  0.34782210  0.71538764  0.16694349  1
  H+  H178  1  0.51173167  0.62127710  0.82340032  1
  H+  H179  1  0.08866552  0.69935738  0.81703967  1
  H+  H180  1  0.07497595  0.41910336  0.76472373  1
  H+  H181  1  0.89175499  0.36047752  0.50152197  1
  H+  H182  1  0.89860588  0.87271870  0.66564019  1
  H+  H183  1  0.48455735  0.43227282  0.70294530  1
  H+  H184  1  0.87381424  0.38593236  0.83168266  1
  H+  H185  1  0.85375459  0.62543284  0.83155738  1
  H+  H186  1  0.98719900  0.88060677  0.50479133  1
  H+  H187  1  0.35850389  0.13588618  0.00542004  1
  H+  H188  1  0.87209927  0.36214462  0.17696970  1
  H+  H189  1  0.24375230  0.36566905  0.32785847  1
  H+  H190  1  0.10105452  0.70539220  0.33917319  1
  H+  H191  1  0.47659951  0.61123679  0.17208124  1
  H+  H192  1  0.40215672  0.04630717  0.83896073  1
  H+  H193  1  0.38378713  0.36186906  0.49679939  1
  H+  H194  1  0.63321422  0.76773033  0.17565920  1
  H+  H195  1  0.12000885  0.39637079  0.48922332  1
  H+  H196  1  0.11646196  0.96501518  -0.00227948  1
  H+  H197  1  0.63884894  0.78108656  0.66496145  1
  H+  H198  1  0.33455420  0.60219446  0.51626386  1
  H+  H199  1  0.65345800  0.36199193  0.83697070  1
  H+  H200  1  0.58684371  0.42865368  0.39506603  1
  H+  H201  1  0.48533972  0.87613890  0.66406087  1
  H+  H202  1  0.39417912  0.35825939  0.32989363  1
  H+  H203  1  0.09920670  0.20525877  0.99440545  1
  H+  H204  1  0.29156794  0.93367615  0.80683306  1
  H+  H205  1  0.07289233  0.65660595  0.07400218  1
  H+  H206  1  0.61777040  0.64548614  0.67596444  1
  H+  H207  1  0.61688582  0.23436076  0.67481626  1
  H+  H208  1  0.45093952  0.84841002  0.20329778  1
  H+  H209  1  0.22278821  0.10824789  0.32809634  1
  H+  H210  1  0.36089167  0.64383148  0.82075178  1
  H+  H211  1  0.07560634  0.62222515  0.49717431  1
  H+  H212  1  0.59328713  0.20280829  0.16201544  1
  H+  H213  1  0.61213224  0.48673752  0.15974160  1
  H+  H214  1  0.34656896  0.12899241  0.49886508  1
  H+  H215  1  0.87718830  0.16859031  0.33881211  1
  H+  H216  1  0.61819671  0.13743190  0.82699487  1
  H+  H217  1  0.62318396  0.73259882  0.49040856  1
  H+  H218  1  0.72207443  0.36202318  0.67183041  1
  H+  H219  1  0.99086804  0.89365681  0.83975543  1
  H+  H220  1  0.63396676  0.37692043  0.51883493  1
  H+  H221  1  0.88348600  0.36768386  0.65988441  1
  H+  H222  1  0.22497780  0.10970851  0.16950060  1
  H+  H223  1  0.15219084  0.76843786  0.63113877  1
  H+  H224  1  0.65804320  0.63004984  0.50256450  1
  H+  H225  1  0.72955436  0.86723357  0.51607063  1
  H+  H226  1  0.83040467  0.66190041  0.77230272  1
  H+  H227  1  -0.02600915  0.11844308  0.17436742  1
  H+  H228  1  0.09284036  0.72183484  0.17049762  1
  H+  H229  1  0.13349766  0.86148576  0.17348887  1
  H+  H230  1  0.13309396  0.37454934  0.83550620  1
  H+  H231  1  0.48205970  0.35797990  0.32621199  1
  H+  H232  1  0.36248745  0.22654326  0.49444411  1
  H+  H233  1  0.98015273  0.85929068  0.99405223  1
  H+  H234  1  0.34533351  0.38927749  0.83033160  1
  H+  H235  1  0.21354844  0.78374087  0.84977132  1
  H+  H236  1  0.32792604  0.96011018  0.37135148  1
  H+  H237  1  0.90133158  0.74321639  0.16366052  1
  H+  H238  1  0.03747825  0.42978593  0.33306791  1
  H+  H239  1  0.13460411  0.02940493  0.50070432  1
  H+  H240  1  0.88374020  0.83979698  0.29643543  1
  H+  H241  1  0.87359847  0.72629327  1.01350030  1
  H+  H242  1  0.64256162  0.87238156  0.65771332  1
  H+  H243  1  0.28267248  0.89329981  -0.00081829  1
  H+  H244  1  0.84207533  0.88870802  0.83337571  1
  H+  H245  1  0.02218892  0.63670489  0.66116344  1
  H+  H246  1  0.35578520  0.36071446  0.65570203  1
  H+  H247  1  1.00903210  0.38911063  0.16647675  1
  H+  H248  1  0.90429059  0.57902919  0.26846221  1
  H+  H249  1  0.20249379  0.63347785  0.50357155  1
  H+  H250  1  0.87454299  0.98108536  0.02635203  1
  H+  H251  1  0.50321828  0.11134660  0.15567218  1
  H+  H252  1  0.86240196  0.47886449  0.00646856  1
  H+  H253  1  0.02742755  0.87843784  0.15330955  1
  H+  H254  1  0.21859692  0.61697216  0.82209393  1
  H+  H255  1  0.87320053  0.73740648  0.67757170  1
  H+  H256  1  0.78236627  0.38136821  0.83070805  1
  H+  H257  1  0.13651214  0.61041054  1.00423428  1
  H+  H258  1  0.58748137  0.85805549  0.34366062  1
  H+  H259  1  0.09801384  0.38923959  0.16084887  1
  H+  H260  1  0.21940893  0.85718654  0.17259890  1
  H+  H261  1  0.39676241  0.12478237  0.66555618  1
  H+  H262  1  0.76114282  0.93562837  0.95355493  1
  H+  H263  1  0.63006199  0.10755692  0.17436442  1
  H+  H264  1  0.88545534  0.12136688  0.66885163  1
  H+  H265  1  0.36540005  0.72232629  0.00871244  1
  H+  H266  1  0.26098553  0.95401207  0.51433628  1
  H+  H267  1  0.88594969  1.03552011  0.83367879  1
  H+  H268  1  0.63228034  0.16239300  0.50186590  1
  H+  H269  1  0.08715114  0.16999528  0.43791733  1
  H+  H270  1  0.38377515  0.85954434  -0.00332350  1
  H+  H271  1  0.64527657  0.37030029  0.33058907  1
  H+  H272  1  0.50976699  0.59462940  0.51598069  1
  H+  H273  1  0.13377815  0.28524815  0.83436690  1
  H+  H274  1  0.35754521  0.22438518  1.00429283  1
  H+  H275  1  0.63974482  0.12566397  0.65713704  1
  H+  H276  1  0.47089032  0.85549621  -0.01039732  1
  H+  H277  1  0.39597698  0.87682885  0.66199400  1
  H+  H278  1  0.79354901  0.88630573  1.02651041  1
  H+  H279  1  0.78160118  0.89385102  0.66973823  1
  H+  H280  1  0.34867870  0.84334927  0.34981669  1
  H+  H281  1  0.56959173  0.71131274  0.00405034  1
  H+  H282  1  0.87765433  0.51782842  0.32827076  1
  H+  H283  1  0.53251830  0.34292701  0.82434572  1
  H+  H284  1  0.25736600  0.39127547  0.82160746  1
  H+  H285  1  0.35926433  0.90193407  0.82657254  1
  H+  H286  1  0.77527797  0.14835095  0.67315274  1
  H+  H287  1  0.35639197  0.23184380  0.67364177  1
  H+  H288  1  0.91599062  0.33838910  0.60017754  1
  H+  H289  1  0.83968883  0.40661955  0.42866648  1
  H+  H290  1  0.16152573  0.33025349  0.22364054  1
  H+  H291  1  0.92099841  0.09926670  0.60938138  1
  H+  H292  1  0.39348103  0.82758340  0.90372957  1
  H+  H293  1  0.37697883  0.47841546  0.33732996  1
  H+  H294  1  0.67458177  0.59850670  0.93619746  1
  H+  H295  1  0.58503978  0.66634662  0.73748571  1
  H+  H296  1  0.33200722  0.91267767  0.06320138  1
  H+  H297  1  0.56987987  0.40968336  0.06544327  1
  H+  H298  1  0.15351478  0.93001371  0.76480414  1
  H+  H299  1  0.46953158  0.12206194  0.99828808  1
  H+  H300  1  0.59623699  0.67295860  0.42989809  1
  H+  H301  1  0.32865727  0.16520458  0.40260492  1
  H+  H302  1  0.11186492  0.97327415  0.15692805  1
  H+  H303  1  0.16838433  0.07482966  0.92607938  1
  H+  H304  1  0.58094548  0.47466722  0.68152946  1
  H+  H305  1  0.91496505  0.58155275  0.93869622  1
  H+  H306  1  0.38012568  0.06811470  0.57419552  1
  H+  H307  1  0.46367822  0.19169333  0.24418821  1
  H+  H308  1  0.35550716  0.38129192  0.16269197  1
  H+  H309  1  0.33712919  0.66335577  0.06916880  1
  H+  H310  1  0.07056742  0.15056815  0.05464398  1
  H+  H311  1  0.37563280  0.81678658  0.24884158  1
  H+  H312  1  0.82992138  0.17431296  0.77127367  1
  H+  H313  1  0.40714215  0.34020518  0.90904225  1
  H+  H314  1  0.65878888  0.83507690  0.26194895  1
  H+  H315  1  0.93477736  0.84585372  0.60964893  1
  H+  H316  1  0.83538647  0.92507559  0.76940820  1
  H+  H317  1  0.92549265  0.35298516  0.26522561  1
  H+  H318  1  0.67077585  0.08580306  0.23194097  1
  H+  H319  1  0.59709387  0.92060085  0.05380771  1
  H+  H320  1  0.59861593  0.18973187  0.44543804  1
  H+  H321  1  0.12894847  0.99020845  0.68698452  1
  H+  H322  1  0.54339010  0.88726296  0.78085407  1
  H+  H323  1  0.16243016  0.32549575  0.92910158  1
  H+  H324  1  0.32461241  0.40868465  0.06786850  1
  H+  H325  1  0.40136337  0.57862003  0.89151632  1
  H+  H326  1  0.57374954  0.16729464  0.06519891  1
  H+  H327  1  0.83592282  0.93489170  0.45618853  1
  H+  H328  1  0.15704262  0.82261258  0.26676156  1
  H+  H329  1  0.33664646  0.67702649  0.76066077  1
  H+  H330  1  0.59459481  0.67509539  0.10828799  1
  H+  H331  1  0.17906629  0.07732148  0.60084070  1
  H+  H332  1  0.15929393  0.34350313  0.60077272  1
  H+  H333  1  0.84612990  0.17696393  0.07080471  1
  H+  H334  1  0.34556095  0.92882016  0.72524298  1
  H+  H335  1  0.92534070  0.10276529  0.23727758  1
  H+  H336  1  0.08575737  0.18777777  0.76550127  1
  H+  H337  1  0.84608439  0.89944695  0.11660197  1
  H+  H338  1  0.34871673  0.88399823  0.16175276  1
  H+  H339  1  0.30518956  0.68523657  0.43364703  1
  H+  H340  1  0.45287956  0.58476649  0.98671457  1
  H+  H341  1  0.88223603  0.36030883  0.99036382  1
  H+  H342  1  0.15898786  0.37156314  0.32813853  1
  H+  H343  1  0.44870396  0.56838773  0.57507750  1
  H+  H344  1  0.67083118  0.58867468  0.25369427  1
  H+  H345  1  0.04618940  0.64178595  0.43439115  1
  H+  H346  1  0.08023327  0.92064186  0.42602581  1
  H+  H347  1  0.88027902  0.81748103  0.91131639  1
  H+  H348  1  0.87244572  0.91765910  0.35926723  1
  H+  H349  1  0.34714252  0.42608137  0.39901878  1
  H+  H350  1  0.91983456  0.33449055  0.90352886  1
  H+  H351  1  0.41012774  0.95975518  0.43889176  1
  H+  H352  1  0.67169879  0.33322798  0.93492593  1
  H+  H353  1  0.64552615  0.08982878  0.93738637  1
  H+  H354  1  0.49477941  0.17588808  0.24881250  1
  H+  H355  1  0.48340104  0.62935612  0.66358055  1
  H+  H356  1  0.98451020  0.36728006  0.50774145  1
  H+  H357  1  0.17241702  0.82693098  0.93315275  1
  H+  H358  1  0.35741673  0.43230777  0.73709457  1
  H+  H359  1  0.56476670  0.40788089  0.76857413  1
  H+  H360  1  0.83085122  0.41628889  0.06443881  1
  H+  H361  1  0.85801547  0.62789137  0.33945822  1
  H+  H362  1  0.25623641  0.60841810  0.34488723  1
  H+  H363  1  0.84624078  0.19129871  0.40032432  1
  H+  H364  1  0.70771033  0.60996188  0.14776413  1
  H+  H365  1  0.47911428  0.61599424  0.32623825  1
  H+  H366  1  0.51440453  0.80210346  0.38877557  1
  H+  H367  1  0.58709123  0.16793364  0.73049738  1
  H+  H368  1  0.09361752  0.43779031  0.43379643  1
  H+  H369  1  0.06307277  0.42127309  0.06881011  1
  H+  H370  1  0.60856092  0.74900728  0.84902650  1
  H+  H371  1  0.58403105  0.91671012  0.44466206  1
  H+  H372  1  0.42428225  0.09629921  0.90254012  1
  H+  H373  1  0.68189850  0.84967319  0.92536538  1
  H+  H374  1  0.07527299  0.66377968  0.72172900  1
  H+  H375  1  0.08787081  0.91162005  0.06052896  1
  H+  H376  1  0.84847410  0.68090770  0.42359352  1
  H+  H377  1  0.68038548  0.57797545  0.59362790  1
  H+  H378  1  0.39263296  0.33075398  0.56119638  1
  H+  H379  1  0.98565862  0.12799650  0.51336551  1
  H+  H380  1  0.41744398  0.58178250  0.23107433  1
  H+  H381  1  0.42350435  0.83720380  0.57292253  1
  H+  H382  1  0.62976106  0.95508918  0.72177603  1
  H+  H383  1  0.16527543  0.59031639  0.59995420  1
  O2-  O384  1  0.07437552  0.15932409  0.14097324  1
  O2-  O385  1  0.08613932  0.17271597  0.48306936  1
  O2-  O386  1  0.08395135  0.18752366  0.81219253  1
  O2-  O387  1  0.06927234  0.42250040  0.15113648  1
  O2-  O388  1  0.09035051  0.42905050  0.47835638  1
  O2-  O389  1  0.07913281  0.41926807  0.81004194  1
  O2-  O390  1  0.05654742  0.65970192  0.15963746  1
  O2-  O391  1  0.03591946  0.63986863  0.47886078  1
  O2-  O392  1  0.05695019  0.64274478  0.79631553  1
  O2-  O393  1  0.08858476  0.91384465  0.14069375  1
  O2-  O394  1  0.08465803  0.92543982  0.47126859  1
  O2-  O395  1  0.19113548  0.92979330  0.80051722  1
  O2-  O396  1  0.32892655  0.16361027  0.14577049  1
  O2-  O397  1  0.32734028  0.16706283  0.47857032  1
  O2-  O398  1  0.34093143  0.18151965  0.81591661  1
  O2-  O399  1  0.32626463  0.41213073  0.14628833  1
  O2-  O400  1  0.33181320  0.44954214  0.47450674  1
  O2-  O401  1  0.32107020  0.42066731  0.80853642  1
  O2-  O402  1  0.32305415  0.65863223  0.14710488  1
  O2-  O403  1  0.28686843  0.70915275  0.46674119  1
  O2-  O404  1  0.33439099  0.67779019  0.80608414  1
  O2-  O405  1  0.31823865  0.91011544  0.14215578  1
  O2-  O406  1  0.43606381  0.98018582  0.47868965  1
  O2-  O407  1  0.35163320  0.94579666  0.80382733  1
  O2-  O408  1  0.57037689  0.14119632  0.15430275  1
  O2-  O409  1  0.60417088  0.19529569  0.49000141  1
  O2-  O410  1  0.59210337  0.17223718  0.81177903  1
  O2-  O411  1  0.57923122  0.42328294  0.14529204  1
  O2-  O412  1  0.58343032  0.43094664  0.47462072  1
  O2-  O413  1  0.57825907  0.39974489  0.81239009  1
  O2-  O414  1  0.58597443  0.66541805  0.15233503  1
  O2-  O415  1  0.60065072  0.67280274  0.47516460  1
  O2-  O416  1  0.57302810  0.65121380  0.80954612  1
  O2-  O417  1  0.60761391  0.93287178  0.13589595  1
  O2-  O418  1  0.59413136  0.92651914  0.48873619  1
  O2-  O419  1  0.55603767  0.90148423  0.82369528  1
  O2-  O420  1  0.83857370  0.18046414  0.15338872  1
  O2-  O421  1  0.84488857  0.18014471  0.47499624  1
  O2-  O422  1  0.82783543  0.17055918  0.81633799  1
  O2-  O423  1  0.81888711  0.40895660  0.14445456  1
  O2-  O424  1  0.83808685  0.39403048  0.47287801  1
  O2-  O425  1  0.84257697  0.41565037  0.81535793  1
  O2-  O426  1  0.85732048  0.62377773  0.16625844  1
  O2-  O427  1  0.85802672  0.68896145  0.46980972  1
  O2-  O428  1  0.81999533  0.65265023  0.81664379  1
  O2-  O429  1  0.84001253  0.87946717  0.16004187  1
  O2-  O430  1  0.83913963  0.93036288  0.50000601  1
  O2-  O431  1  0.82859244  0.93030907  0.81337009  1
  O2-  O432  1  0.16331926  0.07942279  0.18335993  1
  O2-  O433  1  0.16357214  0.08780412  0.51943880  1
  O2-  O434  1  0.16954861  0.09530329  0.83910013  1
  O2-  O435  1  0.15687237  0.33161951  0.17916702  1
  O2-  O436  1  0.16559357  0.33934248  0.51728715  1
  O2-  O437  1  0.16725573  0.34696511  0.84892057  1
  O2-  O438  1  0.14656332  0.58791807  0.18824208  1
  O2-  O439  1  0.14799842  0.59051589  0.52464009  1
  O2-  O440  1  0.15727040  0.58864558  0.83298650  1
  O2-  O441  1  0.16000269  0.82835312  0.19080720  1
  O2-  O442  1  0.21522264  0.89746692  0.49844539  1
  O2-  O443  1  0.16187424  0.78752560  0.85552817  1
  O2-  O444  1  0.40683303  0.07166679  0.14714743  1
  O2-  O445  1  0.35627512  0.05242239  0.53213496  1
  O2-  O446  1  0.42892833  0.10486346  0.85703017  1
  O2-  O447  1  0.40826679  0.32895853  0.18820229  1
  O2-  O448  1  0.41264976  0.33584754  0.51804860  1
  O2-  O449  1  0.40534286  0.34454875  0.86211641  1
  O2-  O450  1  0.41526693  0.58142236  0.18582746  1
  O2-  O451  1  0.46328284  0.54553489  0.53847012  1
  O2-  O452  1  0.40672284  0.58225264  0.84652804  1
  O2-  O453  1  0.38861068  0.81928211  0.20440046  1
  O2-  O454  1  0.42603265  0.83780668  0.52745494  1
  O2-  O455  1  0.39187224  0.83347278  0.85825157  1
  O2-  O456  1  0.66908697  0.08367935  0.18706500  1
  O2-  O457  1  0.68281550  0.09879916  0.52226549  1
  O2-  O458  1  0.66544836  0.08423075  0.85175396  1
  O2-  O459  1  0.64496869  0.32138150  0.14159626  1
  O2-  O460  1  0.66323921  0.35170345  0.54125257  1
  O2-  O461  1  0.67996359  0.33098631  0.85558575  1
  O2-  O462  1  0.66292850  0.58223725  0.17832091  1
  O2-  O463  1  0.68645376  0.59796991  0.51852543  1
  O2-  O464  1  0.65765091  0.57470207  0.85422081  1
  O2-  O465  1  0.66603516  0.82927989  0.19017419  1
  O2-  O466  1  0.66676954  0.83340353  0.52392407  1
  O2-  O467  1  0.61434280  0.79623667  0.87548506  1
  O2-  O468  1  0.91639686  0.09764576  0.19340076  1
  O2-  O469  1  0.92549388  0.10279646  0.52914545  1
  O2-  O470  1  0.91278001  0.09735733  0.84520379  1
  O2-  O471  1  0.90651671  0.33750915  0.19422572  1
  O2-  O472  1  0.92428269  0.33366001  0.52232518  1
  O2-  O473  1  0.92045735  0.33499609  0.85708174  1
  O2-  O474  1  0.90070581  0.57906141  0.19088207  1
  O2-  O475  1  0.88633658  0.55227043  0.52672158  1
  O2-  O476  1  0.90750144  0.57699583  0.85778949  1
  O2-  O477  1  0.92544515  0.80310227  0.17708703  1
  O2-  O478  1  0.92747648  0.85284825  0.52230861  1
  O2-  O479  1  0.85832979  0.81230354  0.86911898  1
  O2-  O480  1  0.16278895  0.08148627  0.31230296  1
  O2-  O481  1  0.18303977  0.07151675  0.64510019  1
  O2-  O482  1  0.17721312  0.05425764  0.96506311  1
  O2-  O483  1  0.18197317  0.33521787  0.31453047  1
  O2-  O484  1  0.16281066  0.34523581  0.64551905  1
  O2-  O485  1  0.15838692  0.30787602  0.97210645  1
  O2-  O486  1  0.14202536  0.54714825  0.33015914  1
  O2-  O487  1  0.17122293  0.59196601  0.64541196  1
  O2-  O488  1  0.16313396  0.57761089  0.98711385  1
  O2-  O489  1  0.14897652  0.81683066  0.31230499  1
  O2-  O490  1  0.19321571  0.82049545  0.60866783  1
  O2-  O491  1  0.19471138  0.86324155  0.96944322  1
  O2-  O492  1  0.39782530  0.06170559  0.34048809  1
  O2-  O493  1  0.42091177  0.09074620  0.64697630  1
  O2-  O494  1  0.41288304  0.08432931  0.97766528  1
  O2-  O495  1  0.41989482  0.32425748  0.31405513  1
  O2-  O496  1  0.34008167  0.30774763  0.62986300  1
  O2-  O497  1  0.40874628  0.32870405  0.97762440  1
  O2-  O498  1  0.41856769  0.58134393  0.31157828  1
  O2-  O499  1  0.42531435  0.59365984  0.64569860  1
  O2-  O500  1  0.39539068  0.56775748  0.97252304  1
  O2-  O501  1  0.37736442  0.81735991  0.32655338  1
  O2-  O502  1  0.42538805  0.84328400  0.64987036  1
  O2-  O503  1  0.40879676  0.82457110  0.97898069  1
  O2-  O504  1  0.67965884  0.10014069  0.31538290  1
  O2-  O505  1  0.67191012  0.09602748  0.64252821  1
  O2-  O506  1  0.62099096  0.08136147  0.97844845  1
  O2-  O507  1  0.67626982  0.33970015  0.31911133  1
  O2-  O508  1  0.66036398  0.33238743  0.66086112  1
  O2-  O509  1  0.66821135  0.33544877  0.97988225  1
  O2-  O510  1  0.66658004  0.58798035  0.29978864  1
  O2-  O511  1  0.68095495  0.56375293  0.63789664  1
  O2-  O512  1  0.68403023  0.60883162  0.98032807  1
  O2-  O513  1  0.65891385  0.83689578  0.30829373  1
  O2-  O514  1  0.66944024  0.83823456  0.64454564  1
  O2-  O515  1  0.71005534  0.88154388  0.96475433  1
  O2-  O516  1  0.92802102  0.10007734  0.32477660  1
  O2-  O517  1  0.91617735  0.09116003  0.65414916  1
  O2-  O518  1  0.89845529  0.05864648  0.99355437  1
  O2-  O519  1  0.93579677  0.36213099  0.31078218  1
  O2-  O520  1  0.91549692  0.33841013  0.64563757  1
  O2-  O521  1  0.91470031  0.33277667  0.97537585  1
  O2-  O522  1  0.90836994  0.58023871  0.31376479  1
  O2-  O523  1  0.91083410  0.57942703  0.64783253  1
  O2-  O524  1  0.91555272  0.57915539  0.98383313  1
  O2-  O525  1  0.91962061  0.81281413  0.29409200  1
  O2-  O526  1  0.92994016  0.84159266  0.65434137  1
  O2-  O527  1  0.91680510  0.83037241  0.98603327  1
  O2-  O528  1  0.06595057  0.14504409  0.01008646  1
  O2-  O529  1  0.08967615  0.16940303  0.35745403  1
  O2-  O530  1  0.08577553  0.18777856  0.69528212  1
  O2-  O531  1  0.06339597  0.41821834  0.02407650  1
  O2-  O532  1  0.09551698  0.45900165  0.35402093  1
  O2-  O533  1  0.07875938  0.42723329  0.68723270  1
  O2-  O534  1  0.08093248  0.65716622  0.02980690  1
  O2-  O535  1  0.06918100  0.64524067  0.35427521  1
  O2-  O536  1  0.08237883  0.66883802  0.67628561  1
  O2-  O537  1  0.08279423  0.90537340  0.01560883  1
  O2-  O538  1  0.07701313  0.91199941  0.34650981  1
  O2-  O539  1  0.09778079  0.94350018  0.71836608  1
  O2-  O540  1  0.32751272  0.16491667  0.02132731  1
  O2-  O541  1  0.32917987  0.16037989  0.35705259  1
  O2-  O542  1  0.34680594  0.17741100  0.69195438  1
  O2-  O543  1  0.32445435  0.40424638  0.02260096  1
  O2-  O544  1  0.34785953  0.41850291  0.35425219  1
  O2-  O545  1  0.38919122  0.44182488  0.69768022  1
  O2-  O546  1  0.34140138  0.66224816  0.02393419  1
  O2-  O547  1  0.31807474  0.64600840  0.35466189  1
  O2-  O548  1  0.33704414  0.67295035  0.68173670  1
  O2-  O549  1  0.34221178  0.91772948  0.01833507  1
  O2-  O550  1  0.29828896  0.89867203  0.38452520  1
  O2-  O551  1  0.34427161  0.92522725  0.68013793  1
  O2-  O552  1  0.55321685  0.19653285  0.03797102  1
  O2-  O553  1  0.58228393  0.17088319  0.36270733  1
  O2-  O554  1  0.58686214  0.16981801  0.68527852  1
  O2-  O555  1  0.56176646  0.39894181  0.02095740  1
  O2-  O556  1  0.58541148  0.42230507  0.34993753  1
  O2-  O557  1  0.53592160  0.42532275  0.70361114  1
  O2-  O558  1  0.62108405  0.72027026  0.02495624  1
  O2-  O559  1  0.58715142  0.66869450  0.34955536  1
  O2-  O560  1  0.58954278  0.67579962  0.69165870  1
  O2-  O561  1  0.58104088  0.90844739  0.01046631  1
  O2-  O562  1  0.54160746  0.85858558  0.36955708  1
  O2-  O563  1  0.60372591  0.94052486  0.68152972  1
  O2-  O564  1  0.84585810  0.16829189  0.02649245  1
  O2-  O565  1  0.84457151  0.19531474  0.35440149  1
  O2-  O566  1  0.83446119  0.17596797  0.69035000  1
  O2-  O567  1  0.82991139  0.41647201  0.01929084  1
  O2-  O568  1  0.83592357  0.42398713  0.35268775  1
  O2-  O569  1  0.83358746  0.41571367  0.69280307  1
  O2-  O570  1  0.84387039  0.66516858  0.02687371  1
  O2-  O571  1  0.83108994  0.66289635  0.35317901  1
  O2-  O572  1  0.84224246  0.67574470  0.69125648  1
  O2-  O573  1  0.85136189  0.91781788  0.04362650  1
  O2-  O574  1  0.84143917  0.91068240  0.32142508  1
  O2-  O575  1  0.84181222  0.92252084  0.68407640  1
