# generated using pymatgen
data_H2O
_symmetry_space_group_name_H-M   'P 1'
_cell_length_a   18.00354945
_cell_length_b   18.00276571
_cell_length_c   22.02467281
_cell_angle_alpha   89.99061852
_cell_angle_beta   90.00541019
_cell_angle_gamma   119.99465238
_symmetry_Int_Tables_number   1
_chemical_formula_structural   H2O
_chemical_formula_sum   'H384 O192'
_cell_volume   6182.45347425
_cell_formula_units_Z   192
loop_
 _symmetry_equiv_pos_site_id
 _symmetry_equiv_pos_as_xyz
  1  'x, y, z'
loop_
 _atom_type_symbol
 _atom_type_oxidation_number
  H+  1.0
  O2-  -2.0
loop_
 _atom_site_type_symbol
 _atom_site_label
 _atom_site_symmetry_multiplicity
 _atom_site_fract_x
 _atom_site_fract_y
 _atom_site_fract_z
 _atom_site_occupancy
  H+  H0  1  -0.03492336  0.10337605  0.83972248  1
  H+  H1  1  0.79358518  0.13144294  0.37068052  1
  H+  H2  1  0.65651201  0.53609725  0.15566571  1
  H+  H3  1  0.46374009  0.11411432  0.32663467  1
  H+  H4  1  0.31049840  0.91062213  0.47632928  1
  H+  H5  1  0.85719907  0.63882930  0.67244556  1
  H+  H6  1  0.35977051  0.23412262  0.68073435  1
  H+  H7  1  0.10135844  0.37779913  -0.00027154  1
  H+  H8  1  0.13831561  0.77780825  0.15649183  1
  H+  H9  1  0.77274058  0.63766384  0.49680699  1
  H+  H10  1  0.15179050  0.40053444  0.14911927  1
  H+  H11  1  0.10404753  0.37430507  0.48041344  1
  H+  H12  1  0.40490213  0.85028484  0.49386469  1
  H+  H13  1  0.46926989  0.59817321  0.49703883  1
  H+  H14  1  0.50245368  0.14320497  0.68222942  1
  H+  H15  1  0.88300687  0.23847882  0.83031606  1
  H+  H16  1  0.63219545  0.28542472  0.33118968  1
  H+  H17  1  0.88327231  0.36599961  0.84600189  1
  H+  H18  1  0.88999377  0.61038642  0.17704880  1
  H+  H19  1  0.60580405  0.14481030  0.15497188  1
  H+  H20  1  0.58205048  0.42119420  0.40024237  1
  H+  H21  1  0.10495261  0.13596013  0.82686534  1
  H+  H22  1  0.85071631  0.47196796  0.00846211  1
  H+  H23  1  0.88738328  0.60593316  0.83937256  1
  H+  H24  1  0.10145093  0.72558715  0.52643414  1
  H+  H25  1  0.34530402  0.08714741  0.14734559  1
  H+  H26  1  0.35083344  0.14330746  0.69121466  1
  H+  H27  1  -0.03556154  0.85279900  0.83448476  1
  H+  H28  1  0.37759874  0.59938326  0.65554407  1
  H+  H29  1  0.14104012  0.27467337  0.31947923  1
  H+  H30  1  0.24831582  0.15977127  0.85391476  1
  H+  H31  1  0.39308567  0.28327068  0.85918203  1
  H+  H32  1  0.61838480  0.38650982  0.49523581  1
  H+  H33  1  0.60587411  -0.05686371  0.34901039  1
  H+  H34  1  0.50790910  0.63731307  0.02099393  1
  H+  H35  1  0.71575236  0.01967684  0.27129085  1
  H+  H36  1  0.02660251  0.15172496  0.49429704  1
  H+  H37  1  0.70732799  0.10532164  0.99071912  1
  H+  H38  1  0.00726893  0.53300395  0.43542852  1
  H+  H39  1  0.84639334  0.72089505  0.34679880  1
  H+  H40  1  0.14612042  1.00009428  0.82482779  1
  H+  H41  1  0.10785611  0.98250179  0.68147828  1
  H+  H42  1  0.69876267  0.62698931  0.34079788  1
  H+  H43  1  0.30936699  0.61161927  0.73912273  1
  H+  H44  1  0.10104137  0.65468622  0.68973097  1
  H+  H45  1  0.63528882  0.37518642  0.32787095  1
  H+  H46  1  0.11635610  -0.02327704  0.99065168  1
  H+  H47  1  0.75315084  0.88963685  0.83389284  1
  H+  H48  1  0.16821345  0.90913124  0.50582861  1
  H+  H49  1  0.82946180  0.78257755  0.27949825  1
  H+  H50  1  0.73218395  0.63154833  0.01895857  1
  H+  H51  1  0.37108024  0.47710696  0.83879730  1
  H+  H52  1  0.14364411  0.61509787  0.31554710  1
  H+  H53  1  0.47358758  0.10863248  0.17290082  1
  H+  H54  1  0.97499778  0.60347715  0.84829830  1
  H+  H55  1  0.80151702  0.17520021  0.50572351  1
  H+  H56  1  0.76411519  0.88068890  0.15837668  1
  H+  H57  1  0.07186656  0.66172355  0.10643507  1
  H+  H58  1  0.47164060  0.84660096  0.31446331  1
  H+  H59  1  0.56069597  0.71389104  0.45985878  1
  H+  H60  1  0.34402795  0.84634745  0.86007163  1
  H+  H61  1  0.78852071  0.12572885  0.69203142  1
  H+  H62  1  0.48437003  0.37000972  0.50256418  1
  H+  H63  1  -0.03349677  0.35611023  0.00112130  1
  H+  H64  1  0.36862552  0.51373342  1.00884712  1
  H+  H65  1  0.91738272  0.84335507  0.92900418  1
  H+  H66  1  0.59942587  0.97621799  0.00441333  1
  H+  H67  1  0.38681583  0.85332089  0.30501351  1
  H+  H68  1  0.46646173  0.46732411  0.19387021  1
  H+  H69  1  0.33640398  0.14112812  0.49732678  1
  H+  H70  1  0.54984641  0.41871844  0.17107835  1
  H+  H71  1  0.89763580  0.86755688  0.50568696  1
  H+  H72  1  0.66114968  0.33853396  0.93972466  1
  H+  H73  1  0.58756557  0.62466179  0.80047854  1
  H+  H74  1  0.88104082  0.01935403  0.17253020  1
  H+  H75  1  0.13798753  0.65494545  0.83810325  1
  H+  H76  1  0.84712435  0.38155851  0.00902758  1
  H+  H77  1  0.11148198  0.89637636  0.67537074  1
  H+  H78  1  0.27086027  0.38750272  0.68858254  1
  H+  H79  1  0.60887327  0.23467561  0.16354006  1
  H+  H80  1  0.12878989  -0.01771177  0.16311182  1
  H+  H81  1  0.77332853  0.39946090  0.34694010  1
  H+  H82  1  0.68579717  0.57369917  0.92902728  1
  H+  H83  1  0.33570366  0.69520852  0.69747126  1
  H+  H84  1  0.88502035  0.12105957  0.83967718  1
  H+  H85  1  0.47110895  0.36052466  0.32729612  1
  H+  H86  1  0.17083870  0.55091424  0.15602789  1
  H+  H87  1  0.54036335  0.40357916  0.68476252  1
  H+  H88  1  0.27638935  0.38928639  0.32737265  1
  H+  H89  1  0.47543316  0.84171054  0.15731542  1
  H+  H90  1  0.33347861  0.26394518  0.16056061  1
  H+  H91  1  0.92758699  0.34785420  0.60647771  1
  H+  H92  1  0.36494605  0.71675088  0.11695261  1
  H+  H93  1  0.71954334  0.86259258  0.99272807  1
  H+  H94  1  0.42814056  0.81082680  0.65827362  1
  H+  H95  1  0.37092737  0.14684097  0.83923592  1
  H+  H96  1  0.10176035  0.97778264  0.49351439  1
  H+  H97  1  0.52259822  0.38796894  0.84518709  1
  H+  H98  1  0.13613419  0.78886279  0.66588574  1
  H+  H99  1  0.86266804  0.98072061  0.67571280  1
  H+  H100  1  0.09910652  0.21721051  0.82787267  1
  H+  H101  1  0.62244951  0.11085258  -0.00319459  1
  H+  H102  1  0.96474104  0.59834688  0.50224006  1
  H+  H103  1  0.36077429  -0.02819371  0.32056353  1
  H+  H104  1  0.37176416  0.60527644  1.00758087  1
  H+  H105  1  0.89196251  0.88100723  0.83861225  1
  H+  H106  1  0.20333198  0.21292343  0.87485035  1
  H+  H107  1  0.23743230  0.34933354  0.85129804  1
  H+  H108  1  0.88230726  0.86389341  0.98905382  1
  H+  H109  1  0.36886915  0.90119001  0.68104970  1
  H+  H110  1  0.65553460  0.77866300  0.84358268  1
  H+  H111  1  0.40060742  0.52316613  0.31459196  1
  H+  H112  1  0.64348839  0.37209863  0.17708347  1
  H+  H113  1  0.77544078  0.61559253  0.83233320  1
  H+  H114  1  0.22497102  0.12408451  1.00182012  1
  H+  H115  1  0.11880800  0.46820843  0.47573137  1
  H+  H116  1  0.11085950  0.13709132  0.00896205  1
  H+  H117  1  0.46962610  0.60795005  0.65045591  1
  H+  H118  1  0.40738057  0.97164613  0.45756660  1
  H+  H119  1  0.20934669  0.86286107  0.85706472  1
  H+  H120  1  0.08746800  0.41578945  0.38032268  1
  H+  H121  1  0.27302085  0.38650916  0.11769855  1
  H+  H122  1  0.86692263  0.49493047  0.18024628  1
  H+  H123  1  0.14414066  0.36353009  0.67733644  1
  H+  H124  1  0.47119828  0.37738591  1.01182391  1
  H+  H125  1  0.35570737  0.22582426  0.32923961  1
  H+  H126  1  0.26138845  0.09651574  0.15150359  1
  H+  H127  1  0.39398323  0.36899949  0.49987037  1
  H+  H128  1  0.71111324  0.10960564  0.15506091  1
  H+  H129  1  0.02207482  0.87930019  0.33959585  1
  H+  H130  1  0.22786827  0.86072014  0.31172885  1
  H+  H131  1  0.77123002  0.89228922  0.67592613  1
  H+  H132  1  0.36499008  0.48091671  0.68108071  1
  H+  H133  1  0.86362689  0.72664954  0.49780584  1
  H+  H134  1  0.59767257  0.14549981  0.35887785  1
  H+  H135  1  0.64127820  0.37202645  0.66928635  1
  H+  H136  1  0.86528061  0.73659634  -0.00079732  1
  H+  H137  1  0.14816872  0.59312621  0.63172406  1
  H+  H138  1  0.47593405  0.29356942  0.63009714  1
  H+  H139  1  0.87931174  -0.01152302  0.49287870  1
  H+  H140  1  0.62080985  0.47738130  0.49404862  1
  H+  H141  1  0.85996346  0.47341336  0.83188754  1
  H+  H142  1  0.62689589  0.77608162  0.99716888  1
  H+  H143  1  0.76344849  0.80506047  0.12054996  1
  H+  H144  1  0.87247928  0.22218774  0.67388141  1
  H+  H145  1  0.13008984  0.76827813  0.86183998  1
  H+  H146  1  0.21616964  0.36214843  1.00362213  1
  H+  H147  1  -0.01712758  0.11212211  0.66020518  1
  H+  H148  1  0.98102139  0.11375107  0.32629604  1
  H+  H149  1  0.27694594  0.89372063  0.68559389  1
  H+  H150  1  0.72115283  0.36955824  -0.00065064  1
  H+  H151  1  0.38599436  0.12695879  -0.00955715  1
  H+  H152  1  0.01888294  0.13425019  0.00759767  1
  H+  H153  1  0.11998092  0.46867063  0.67048607  1
  H+  H154  1  0.13870621  0.10895567  0.17229263  1
  H+  H155  1  0.85575169  0.22379743  1.00533362  1
  H+  H156  1  0.34407071  0.58369048  0.82543566  1
  H+  H157  1  0.61330215  0.48369800  0.02316527  1
  H+  H158  1  0.92781297  0.33685875  0.21942709  1
  H+  H159  1  0.03544392  0.89863927  0.15253233  1
  H+  H160  1  0.76720203  0.38881702  0.17538381  1
  H+  H161  1  0.15397469  0.66453643  0.13425652  1
  H+  H162  1  0.23209867  0.61226637  0.31458734  1
  H+  H163  1  0.13900661  0.72777420  0.50923775  1
  H+  H164  1  0.14330101  0.36435770  0.31291881  1
  H+  H165  1  0.47003307  0.11154838  0.84522553  1
  H+  H166  1  0.66299783  0.61464198  0.87434285  1
  H+  H167  1  0.88751250  0.52815442  0.66489255  1
  H+  H168  1  0.89965533  0.27566355  0.31288404  1
  H+  H169  1  0.88029297  0.14078039  0.34611366  1
  H+  H170  1  0.59976003  0.64426263  0.02800924  1
  H+  H171  1  0.88171612  0.11228051  -0.00801153  1
  H+  H172  1  0.75501353  0.86985007  0.50746599  1
  H+  H173  1  0.55254827  0.93067360  0.81420962  1
  H+  H174  1  0.86201461  0.97931883  0.33735309  1
  H+  H175  1  0.47612433  0.83830208  -0.00931069  1
  H+  H176  1  0.59721462  0.96852263  0.14550624  1
  H+  H177  1  0.98995744  0.36145660  0.30628160  1
  H+  H178  1  0.87943778  0.60932364  0.99407988  1
  H+  H179  1  0.88974901  0.86092708  0.16262882  1
  H+  H180  1  -0.08088627  0.83557076  0.56767886  1
  H+  H181  1  0.26678410  0.60235320  0.82607685  1
  H+  H182  1  0.22713655  0.12348735  0.67128186  1
  H+  H183  1  0.61797595  0.07828827  0.82580061  1
  H+  H184  1  0.11101381  0.13608171  0.33850406  1
  H+  H185  1  0.60875700  0.73976314  0.65896031  1
  H+  H186  1  0.54965435  0.91262920  0.65888438  1
  H+  H187  1  0.27870938  0.37819720  0.48689719  1
  H+  H188  1  0.89638515  0.11595852  0.66043970  1
  H+  H189  1  0.41101027  0.81839634  0.84162867  1
  H+  H190  1  0.86927769  0.86231299  0.32242856  1
  H+  H191  1  0.88099869  0.52707646  0.33599019  1
  H+  H192  1  -0.02450287  0.37278161  0.15489616  1
  H+  H193  1  0.88909566  0.11071039  0.17150581  1
  H+  H194  1  0.66616388  0.33825763  0.23832366  1
  H+  H195  1  0.86992041  0.23417704  0.15937679  1
  H+  H196  1  -0.02120450  0.36665574  0.66860584  1
  H+  H197  1  0.71985806  0.34952151  0.51295807  1
  H+  H198  1  0.61100095  0.21916516  0.83758459  1
  H+  H199  1  0.97201501  0.86678573  0.66210879  1
  H+  H200  1  0.22058977  0.11250702  0.32704270  1
  H+  H201  1  0.35037348  0.98075284  0.84439584  1
  H+  H202  1  0.23275488  0.59205377  0.64888732  1
  H+  H203  1  0.63346898  0.27984739  0.66693040  1
  H+  H204  1  0.64233110  0.61723018  0.16403789  1
  H+  H205  1  0.64990056  0.76061852  0.31323336  1
  H+  H206  1  0.47498657  0.12662552  -0.00826879  1
  H+  H207  1  0.22109747  0.60378356  1.00346793  1
  H+  H208  1  0.37500796  0.24229310  0.48726295  1
  H+  H209  1  0.13652711  0.51646203  0.98643538  1
  H+  H210  1  0.07897092  0.16853499  0.73521891  1
  H+  H211  1  0.79443568  0.65038217  0.15209376  1
  H+  H212  1  0.68100889  0.77292835  0.51626053  1
  H+  H213  1  0.40772838  0.61442250  0.31239491  1
  H+  H214  1  0.60810077  0.89079827  0.00069477  1
  H+  H215  1  0.85866002  0.72793823  0.67489208  1
  H+  H216  1  0.37441556  0.38991410  0.83508025  1
  H+  H217  1  0.36302312  0.62501100  0.48270560  1
  H+  H218  1  0.87898000  0.61490948  0.33152250  1
  H+  H219  1  0.77223945  0.88831880  0.33922523  1
  H+  H220  1  0.14334952  0.26445486  0.16543990  1
  H+  H221  1  1.02685090  0.12963436  0.15886009  1
  H+  H222  1  0.12907582  0.26915154  0.99967769  1
  H+  H223  1  0.72586196  0.62407025  0.65152386  1
  H+  H224  1  0.72381590  0.35921045  0.84502466  1
  H+  H225  1  0.11625467  0.87055794  0.16431600  1
  H+  H226  1  0.13008812  0.58658976  0.48499623  1
  H+  H227  1  0.85028546  0.47286557  0.50461540  1
  H+  H228  1  0.19147886  0.83682619  0.51624780  1
  H+  H229  1  0.61571608  0.47039616  0.84819469  1
  H+  H230  1  0.12613268  0.51194781  0.83274977  1
  H+  H231  1  0.91141648  0.08173039  0.93333738  1
  H+  H232  1  0.63597369  -0.00122856  0.48176612  1
  H+  H233  1  0.66863072  0.59676441  1.07260428  1
  H+  H234  1  0.98638311  0.38189318  0.50568209  1
  H+  H235  1  0.13941194  0.86159122  0.32057661  1
  H+  H236  1  0.82689128  0.16806437  0.20992030  1
  H+  H237  1  0.41054502  0.08505950  0.52223114  1
  H+  H238  1  0.40080939  0.79756500  0.93966130  1
  H+  H239  1  0.14515438  0.27447614  0.67233210  1
  H+  H240  1  0.58409728  0.13266098  0.68164471  1
  H+  H241  1  0.36194461  -0.04606295  0.16461835  1
  H+  H242  1  0.11742206  0.14267146  0.67857513  1
  H+  H243  1  0.11297186  0.72545460  0.33081923  1
  H+  H244  1  0.13212493  1.02195945  0.32846844  1
  H+  H245  1  0.40286241  0.57108365  0.92360384  1
  H+  H246  1  0.33702237  0.90473778  0.37394868  1
  H+  H247  1  0.66108723  0.90483994  0.17394011  1
  H+  H248  1  0.85702451  0.97933467  0.00162503  1
  H+  H249  1  0.07195731  0.83416765  0.82313334  1
  H+  H250  1  0.11163213  0.11038920  0.51362598  1
  H+  H251  1  0.77491409  0.39108988  0.67544586  1
  H+  H252  1  0.89861610  0.12282310  0.51336395  1
  H+  H253  1  0.01286580  0.65120397  0.68095438  1
  H+  H254  1  0.63899916  0.62813380  0.64637057  1
  H+  H255  1  0.37728518  0.72397996  1.01228114  1
  H+  H256  1  0.59807748  0.48241163  0.34353919  1
  H+  H257  1  0.27634486  0.62810564  0.47630359  1
  H+  H258  1  0.72222590  0.10473109  0.29712859  1
  H+  H259  1  0.88683499  0.73446680  0.15911713  1
  H+  H260  1  0.60772971  0.99061353  0.50918169  1
  H+  H261  1  0.56088551  0.22954297  0.49526829  1
  H+  H262  1  0.37459263  0.02847412  0.68233019  1
  H+  H263  1  0.26912691  0.70205188  0.86935823  1
  H+  H264  1  0.63952077  0.87093449  0.65865215  1
  H+  H265  1  0.66146225  0.05334810  0.77478401  1
  H+  H266  1  0.47145925  0.61332029  0.87022927  1
  H+  H267  1  1.03069637  0.88859758  0.98845724  1
  H+  H268  1  0.64316530  -0.01365934  0.68799165  1
  H+  H269  1  0.63120146  0.83789662  0.32258683  1
  H+  H270  1  0.41259891  0.80008305  0.21321639  1
  H+  H271  1  0.33415708  0.41680279  0.38761857  1
  H+  H272  1  0.51486137  0.81696414  0.48550395  1
  H+  H273  1  0.61066395  0.23635577  0.00687738  1
  H+  H274  1  0.14845544  -0.01271581  0.85689706  1
  H+  H275  1  0.28803931  0.86409115  0.01047469  1
  H+  H276  1  0.86174921  0.39261485  0.16648213  1
  H+  H277  1  0.63531242  0.60921249  0.49791094  1
  H+  H278  1  0.90404764  0.29328228  0.51534089  1
  H+  H279  1  0.37104794  0.26242646  0.14732699  1
  H+  H280  1  0.31506184  0.00635406  0.53634211  1
  H+  H281  1  0.61253565  0.83537297  0.48590275  1
  H+  H282  1  0.69338226  0.21400001  0.53408285  1
  H+  H283  1  0.85344463  0.99389345  0.82961914  1
  H+  H284  1  0.11791489  0.23800928  0.49179570  1
  H+  H285  1  0.63360267  0.35681166  0.84619799  1
  H+  H286  1  0.36640519  0.71678055  0.32365497  1
  H+  H287  1  0.12099491  0.47990224  0.32273839  1
  H+  H288  1  0.84619640  0.92771985  0.43314000  1
  H+  H289  1  0.92950088  0.84914443  0.22387727  1
  H+  H290  1  0.66681054  0.58918227  0.56103854  1
  H+  H291  1  0.86170568  0.39079355  0.50231500  1
  H+  H292  1  0.90804671  0.57897013  0.24242063  1
  H+  H293  1  0.66112235  0.32412873  0.57326045  1
  H+  H294  1  0.17527316  0.59868602  0.21735588  1
  H+  H295  1  0.02898195  0.88172665  0.49507456  1
  H+  H296  1  0.91811496  0.58702070  0.60510410  1
  H+  H297  1  0.82507574  0.65199866  0.76909823  1
  H+  H298  1  0.86116345  0.19050524  0.44696944  1
  H+  H299  1  0.20190910  0.61859386  0.90981402  1
  H+  H300  1  0.85210405  0.68222714  0.06067690  1
  H+  H301  1  0.32365131  0.14987087  0.06390043  1
  H+  H302  1  0.36327241  0.46880103  0.48386001  1
  H+  H303  1  0.57953003  0.90728534  0.08973351  1
  H+  H304  1  0.17248440  0.11038244  0.94145578  1
  H+  H305  1  0.41312637  0.09129669  0.90643983  1
  H+  H306  1  0.58842663  0.41762683  0.74758122  1
  H+  H307  1  0.18006068  0.85708108  0.61075674  1
  H+  H308  1  0.46470060  0.58809318  0.22246614  1
  H+  H309  1  0.34112390  0.42531537  0.75121147  1
  H+  H310  1  0.08887210  0.43647141  0.73780361  1
  H+  H311  1  0.57717511  0.17698625  0.06552208  1
  H+  H312  1  0.42289392  0.84009387  0.59198037  1
  H+  H313  1  0.67089392  0.83652076  0.90316111  1
  H+  H314  1  0.17313695  0.56866012  0.54424919  1
  H+  H315  1  0.32220828  0.91930486  0.78709238  1
  H+  H316  1  0.04832537  0.86606983  0.76259851  1
  H+  H317  1  0.57077776  0.67850627  0.71537169  1
  H+  H318  1  0.67854959  0.10336334  0.66999267  1
  H+  H319  1  0.82722945  0.42479143  0.40802728  1
  H+  H320  1  0.16476587  0.08161738  0.23522407  1
  H+  H321  1  0.44437000  0.38419157  0.23465489  1
  H+  H322  1  0.67941724  0.84189522  0.60131572  1
  H+  H323  1  0.66338096  0.11590312  0.53865103  1
  H+  H324  1  0.21577698  0.46905495  0.10679262  1
  H+  H325  1  0.81961135  0.92767319  0.76657348  1
  H+  H326  1  0.90860531  0.57449297  0.93905692  1
  H+  H327  1  0.83018381  0.41511288  0.77192046  1
  H+  H328  1  0.90953001  0.33049947  0.94157493  1
  H+  H329  1  0.59442591  0.42117586  0.10719480  1
  H+  H330  1  0.86189463  0.18121645  0.76943459  1
  H+  H331  1  0.37261944  0.10889842  0.32242433  1
  H+  H332  1  0.18115120  0.32851463  0.22190623  1
  H+  H333  1  0.08397631  0.17262105  0.39570557  1
  H+  H334  1  0.42833480  0.33135340  0.59478493  1
  H+  H335  1  0.16200910  0.72999587  0.03558947  1
  H+  H336  1  0.35741806  0.23398268  0.01876447  1
  H+  H337  1  0.68431208  0.68427722  0.78423847  1
  H+  H338  1  0.38555334  0.08174164  0.62199678  1
  H+  H339  1  0.97814027  0.38428892  0.84923354  1
  H+  H340  1  0.92782087  0.08727203  0.56988649  1
  H+  H341  1  0.06460653  0.62724291  0.41304938  1
  H+  H342  1  0.88492179  0.61439574  0.50870793  1
  H+  H343  1  0.65192494  0.06805413  0.21174648  1
  H+  H344  1  0.33150994  0.88448389  0.07368754  1
  H+  H345  1  0.82458251  0.91216957  0.05782083  1
  H+  H346  1  0.61008132  0.39310213  0.01121502  1
  H+  H347  1  0.33064171  0.17105286  0.39038927  1
  H+  H348  1  0.05013349  0.03354505  0.55438482  1
  H+  H349  1  0.21394106  0.42637830  0.54078050  1
  H+  H350  1  0.82036637  0.66291045  0.40602023  1
  H+  H351  1  0.38560432  0.75459638  0.50128877  1
  H+  H352  1  0.09564504  0.42210880  0.05911298  1
  H+  H353  1  0.55039584  0.17770529  0.40438051  1
  H+  H354  1  0.82092114  0.15720556  0.06020039  1
  H+  H355  1  0.05549202  0.52418977  0.80416341  1
  H+  H356  1  0.55147583  0.65513151  0.12088529  1
  H+  H357  1  0.57804172  0.65095539  0.42045308  1
  H+  H358  1  0.17935248  0.34665675  0.58247836  1
  H+  H359  1  0.16324611  0.08806668  0.61225658  1
  H+  H360  1  0.69013275  0.87153705  0.23294398  1
  H+  H361  1  0.57475703  0.16752967  0.77664651  1
  H+  H362  1  0.08956202  0.67566975  0.78281891  1
  H+  H363  1  0.08059513  0.91159685  0.39869571  1
  H+  H364  1  0.34167938  0.18495565  0.78286276  1
  H+  H365  1  0.91911326  0.08380446  0.26761413  1
  H+  H366  1  0.41212736  0.07429320  0.23119153  1
  H+  H367  1  0.52779506  0.86813066  0.76093612  1
  H+  H368  1  0.56803464  0.86210689  0.39516226  1
  H+  H369  1  0.41501047  0.34599276  0.91776106  1
  H+  H370  1  0.02157677  0.63862843  0.32912121  1
  H+  H371  1  0.35974397  0.86483960  0.16102769  1
  H+  H372  1  0.38345442  0.36200665  0.32221488  1
  H+  H373  1  0.46760392  0.19962775  0.46691638  1
  H+  H374  1  0.17654705  0.31639229  0.91124020  1
  H+  H375  1  0.14842063  0.82065031  0.22580739  1
  H+  H376  1  0.41111926  0.56855177  0.55805161  1
  H+  H377  1  0.88265795  0.86518282  0.66271385  1
  H+  H378  1  0.14309959  0.82736810  0.95133296  1
  H+  H379  1  0.54170715  0.61891232  0.32530137  1
  H+  H380  1  0.34191729  0.65890580  0.38339381  1
  H+  H381  1  0.38054089  0.37638434  1.01490383  1
  H+  H382  1  0.86448922  0.39179766  0.67616011  1
  H+  H383  1  0.08235540  0.15937155  0.09780492  1
  O2-  O384  1  0.08638699  0.15851792  0.14376509  1
  O2-  O385  1  0.08659866  0.17911030  0.47661567  1
  O2-  O386  1  0.06788614  0.15820542  0.81031900  1
  O2-  O387  1  0.15822950  0.45004301  0.12426628  1
  O2-  O388  1  0.07951615  0.40724067  0.46242858  1
  O2-  O389  1  0.07407165  0.48146602  0.80814465  1
  O2-  O390  1  0.13323551  0.70040551  0.11162466  1
  O2-  O391  1  0.04572587  0.59049237  0.45112461  1
  O2-  O392  1  0.08349033  0.65275110  0.82423611  1
  O2-  O393  1  0.09785339  0.92262819  0.14459686  1
  O2-  O394  1  0.08813908  0.92005443  0.47817105  1
  O2-  O395  1  0.02386159  0.82422355  0.79592157  1
  O2-  O396  1  0.30380317  0.09640223  0.12339076  1
  O2-  O397  1  0.35936926  0.18664158  0.46639215  1
  O2-  O398  1  0.34643218  0.18536329  0.82776110  1
  O2-  O399  1  0.30712950  0.44166462  0.09624275  1
  O2-  O400  1  0.33578532  0.40839872  0.46772640  1
  O2-  O401  1  0.34534912  0.42085714  0.81665906  1
  O2-  O402  1  0.35065047  0.66018044  0.09861186  1
  O2-  O403  1  0.33877939  0.66010313  0.46623202  1
  O2-  O404  1  0.29582500  0.57829347  0.80008723  1
  O2-  O405  1  0.32489762  0.89273119  0.15424834  1
  O2-  O406  1  0.36013629  0.91246896  0.45551239  1
  O2-  O407  1  0.31493609  0.91875807  0.83149621  1
  O2-  O408  1  0.57506648  0.17620951  0.14538061  1
  O2-  O409  1  0.51174534  0.18235714  0.47307367  1
  O2-  O410  1  0.57648837  0.15991176  0.82084485  1
  O2-  O411  1  0.60679724  0.43110884  0.15191717  1
  O2-  O412  1  0.58908620  0.41640199  0.47903060  1
  O2-  O413  1  0.58180623  0.41424204  0.82767776  1
  O2-  O414  1  0.55971533  0.64750035  0.16503740  1
  O2-  O415  1  0.56733731  0.66220669  0.46315463  1
  O2-  O416  1  0.63970992  0.67632870  0.81314763  1
  O2-  O417  1  0.58232482  0.90890046  0.13626716  1
  O2-  O418  1  0.55931102  0.81288948  0.46093544  1
  O2-  O419  1  0.51010922  0.86975017  0.80287916  1
  O2-  O420  1  0.83568808  0.16989172  0.16602540  1
  O2-  O421  1  0.86013803  0.18960224  0.49193993  1
  O2-  O422  1  0.85832453  0.17918415  0.81468097  1
  O2-  O423  1  0.83037325  0.42505731  0.16283290  1
  O2-  O424  1  0.82285381  0.41262984  0.48920017  1
  O2-  O425  1  0.82870330  0.41198164  0.81708858  1
  O2-  O426  1  0.85703467  0.67411559  0.14464061  1
  O2-  O427  1  0.83384551  0.66647784  0.48226825  1
  O2-  O428  1  0.83209722  0.64865435  0.81346764  1
  O2-  O429  1  0.80166626  0.86426607  0.13322009  1
  O2-  O430  1  0.85125970  0.92762203  0.47830845  1
  O2-  O431  1  0.81800177  0.92963950  0.81291006  1
  O2-  O432  1  0.16627857  0.07757755  0.19019822  1
  O2-  O433  1  0.10814951  0.06122132  0.53754774  1
  O2-  O434  1  0.19342026  0.15364138  0.87000808  1
  O2-  O435  1  0.17822741  0.32616776  0.17685558  1
  O2-  O436  1  0.18564018  0.36388508  0.53840740  1
  O2-  O437  1  0.18519525  0.30086190  0.86870276  1
  O2-  O438  1  0.17779741  0.60487475  0.17274793  1
  O2-  O439  1  0.17220511  0.56912049  0.49916883  1
  O2-  O440  1  0.21751521  0.64269821  0.86643643  1
  O2-  O441  1  0.12257800  0.81221357  0.18442360  1
  O2-  O442  1  0.21481940  0.89870606  0.52278690  1
  O2-  O443  1  0.14875947  0.82833482  0.87155366  1
  O2-  O444  1  0.41461843  0.06643060  0.18688674  1
  O2-  O445  1  0.35795893  0.06611748  0.54639166  1
  O2-  O446  1  0.40931841  0.08650786  0.85918300  1
  O2-  O447  1  0.46571269  0.41220168  0.19479552  1
  O2-  O448  1  0.42380715  0.33979455  0.51795425  1
  O2-  O449  1  0.41981476  0.34499534  0.87222730  1
  O2-  O450  1  0.47517801  0.57327688  0.18073875  1
  O2-  O451  1  0.40892199  0.56731995  0.51287376  1
  O2-  O452  1  0.41120936  0.57157663  0.87653792  1
  O2-  O453  1  0.41384041  0.80447656  0.16842715  1
  O2-  O454  1  0.42344011  0.81506162  0.51664469  1
  O2-  O455  1  0.35925361  0.80085543  0.86762408  1
  O2-  O456  1  0.65065260  0.07995902  0.16809301  1
  O2-  O457  1  0.71379415  0.17305243  0.54047270  1
  O2-  O458  1  0.63542921  0.03589360  0.81583675  1
  O2-  O459  1  0.67002377  0.33742375  0.19288641  1
  O2-  O460  1  0.65953972  0.31247151  0.52835770  1
  O2-  O461  1  0.66399234  0.32689589  0.86124440  1
  O2-  O462  1  0.68408365  0.60032408  0.14956449  1
  O2-  O463  1  0.66703262  0.58252788  0.51445285  1
  O2-  O464  1  0.67818220  0.57090045  0.88497159  1
  O2-  O465  1  0.71205202  0.91294628  0.19864603  1
  O2-  O466  1  0.69535825  0.83206465  0.52437674  1
  O2-  O467  1  0.67633369  0.83782154  0.85723857  1
  O2-  O468  1  0.91602115  0.07790172  0.18750505  1
  O2-  O469  1  0.92945747  0.09115444  0.52363278  1
  O2-  O470  1  0.90493544  0.07807285  0.85501977  1
  O2-  O471  1  0.91871176  0.33933821  0.17311338  1
  O2-  O472  1  0.93018032  0.35509737  0.52706536  1
  O2-  O473  1  0.91966487  0.34274257  0.86269879  1
  O2-  O474  1  0.90944246  0.57267234  0.19690153  1
  O2-  O475  1  0.91150263  0.58110594  0.52541310  1
  O2-  O476  1  0.91305446  0.57227245  0.85775531  1
  O2-  O477  1  0.93207487  0.84576878  0.17917135  1
  O2-  O478  1  0.92411589  0.83454009  0.52218050  1
  O2-  O479  1  0.93612506  0.87675375  0.86149086  1
  O2-  O480  1  0.15862035  0.08209463  0.31394758  1
  O2-  O481  1  0.16568519  0.08912114  0.65707090  1
  O2-  O482  1  0.16423541  0.09594782  0.98561542  1
  O2-  O483  1  0.17468689  0.33335982  0.30205887  1
  O2-  O484  1  0.17858342  0.33805470  0.66086506  1
  O2-  O485  1  0.15846448  0.32862419  0.98214310  1
  O2-  O486  1  0.17133312  0.58296977  0.30007865  1
  O2-  O487  1  0.17782420  0.56124305  0.62414257  1
  O2-  O488  1  0.17304185  0.57750888  0.97436251  1
  O2-  O489  1  0.16485885  0.82906788  0.30223479  1
  O2-  O490  1  0.17443347  0.85070559  0.65509551  1
  O2-  O491  1  0.14579249  0.81464235  0.99552869  1
  O2-  O492  1  0.40456349  0.07862146  0.31077054  1
  O2-  O493  1  0.39782998  0.08864520  0.66638255  1
  O2-  O494  1  0.41640700  0.09803145  0.97392691  1
  O2-  O495  1  0.41319840  0.33042697  0.30825596  1
  O2-  O496  1  0.43946149  0.31855913  0.63711561  1
  O2-  O497  1  0.41112686  0.34840043  0.99617743  1
  O2-  O498  1  0.43923528  0.58384562  0.30117997  1
  O2-  O499  1  0.40734357  0.56866346  0.64040804  1
  O2-  O500  1  0.40209096  0.57487518  0.99174950  1
  O2-  O501  1  0.41360990  0.81771171  0.29602405  1
  O2-  O502  1  0.42633247  0.85650367  0.63586865  1
  O2-  O503  1  0.43006716  0.78380064  0.97244838  1
  O2-  O504  1  0.68212506  0.04491493  0.28677496  1
  O2-  O505  1  0.69829425  0.07352031  0.69637423  1
  O2-  O506  1  0.64525671  0.07339723  0.98298987  1
  O2-  O507  1  0.66608552  0.34443944  0.31499108  1
  O2-  O508  1  0.66671051  0.33858953  0.64970170  1
  O2-  O509  1  0.65859904  0.34183631  0.98482981  1
  O2-  O510  1  0.63847197  0.59610312  0.32499084  1
  O2-  O511  1  0.66954270  0.59984936  0.63023229  1
  O2-  O512  1  0.66768640  0.59803997  1.02691510  1
  O2-  O513  1  0.67368633  0.82283441  0.30578110  1
  O2-  O514  1  0.67015844  0.83688333  0.64597920  1
  O2-  O515  1  0.65926253  0.83295851  0.97670096  1
  O2-  O516  1  0.91876733  0.08432301  0.31288601  1
  O2-  O517  1  0.92328070  0.08128667  0.64359766  1
  O2-  O518  1  0.91280980  0.08186473  0.97880616  1
  O2-  O519  1  0.93175398  0.32695505  0.28759117  1
  O2-  O520  1  0.92019774  0.34059340  0.65134045  1
  O2-  O521  1  0.90548970  0.32432306  0.98670799  1
  O2-  O522  1  0.91116338  0.58694875  0.31696319  1
  O2-  O523  1  0.91766687  0.58930994  0.65039692  1
  O2-  O524  1  0.90527467  0.57365326  0.98400396  1
  O2-  O525  1  0.88278228  0.82048260  0.30100467  1
  O2-  O526  1  0.91197859  0.83548358  0.64549687  1
  O2-  O527  1  0.91055505  0.83208338  0.97454456  1
  O2-  O528  1  0.07802417  0.16618036  0.02466219  1
  O2-  O529  1  0.08087771  0.16826588  0.35067465  1
  O2-  O530  1  0.08671575  0.17455398  0.68977153  1
  O2-  O531  1  0.07379422  0.41012109  0.01642552  1
  O2-  O532  1  0.09081932  0.41769491  0.33537966  1
  O2-  O533  1  0.09055112  0.41635914  0.69604537  1
  O2-  O534  1  0.16697260  0.74631821  -0.00842012  1
  O2-  O535  1  0.08239041  0.66360457  0.34301776  1
  O2-  O536  1  0.07317835  0.68802888  0.69779242  1
  O2-  O537  1  0.09331092  0.91429073  -0.00894507  1
  O2-  O538  1  0.08166000  0.91156243  0.35323800  1
  O2-  O539  1  0.07412655  0.91943190  0.68832090  1
  O2-  O540  1  0.32653592  0.17061407  0.02040204  1
  O2-  O541  1  0.32405599  0.16529085  0.34545297  1
  O2-  O542  1  0.32373922  0.17858063  0.70210272  1
  O2-  O543  1  0.31251868  0.41723203  0.03301241  1
  O2-  O544  1  0.33725630  0.42021573  0.34258212  1
  O2-  O545  1  0.33389673  0.42306883  0.70299163  1
  O2-  O546  1  0.32977263  0.66304300  0.03475560  1
  O2-  O547  1  0.34011612  0.65593862  0.33835206  1
  O2-  O548  1  0.31640306  0.63429239  0.69339231  1
  O2-  O549  1  0.34122126  0.87606565  0.03043429  1
  O2-  O550  1  0.33330507  0.90868956  0.32947385  1
  O2-  O551  1  0.33692597  0.92577469  0.70123368  1
  O2-  O552  1  0.58027940  0.17503774  0.02054079  1
  O2-  O553  1  0.56619605  0.17647566  0.36054490  1
  O2-  O554  1  0.56518576  0.17287701  0.69307382  1
  O2-  O555  1  0.57960451  0.42102020  0.03126483  1
  O2-  O556  1  0.57776113  0.42203685  0.35506602  1
  O2-  O557  1  0.59659871  0.42141612  0.70282681  1
  O2-  O558  1  0.56696836  0.67377673  0.03793861  1
  O2-  O559  1  0.60133918  0.64944023  0.34422444  1
  O2-  O560  1  0.57259529  0.67609808  0.67127796  1
  O2-  O561  1  0.57349076  0.91412175  0.01884823  1
  O2-  O562  1  0.57193260  0.88053161  0.35142696  1
  O2-  O563  1  0.59733806  0.91754264  0.68345234  1
  O2-  O564  1  0.82521278  0.16026840  0.01615325  1
  O2-  O565  1  0.85361630  0.17400964  0.36382465  1
  O2-  O566  1  0.85738196  0.16608610  0.69169390  1
  O2-  O567  1  0.81566659  0.41060691  0.02210490  1
  O2-  O568  1  0.83242945  0.43241556  0.36333276  1
  O2-  O569  1  0.83521589  0.42332213  0.69069133  1
  O2-  O570  1  0.83463049  0.67640719  0.01749264  1
  O2-  O571  1  0.81194927  0.66096627  0.36075495  1
  O2-  O572  1  0.82490727  0.66668441  0.68758759  1
  O2-  O573  1  0.82415625  0.91680212  0.01316592  1
  O2-  O574  1  0.83285247  0.91981237  0.35456223  1
  O2-  O575  1  0.83025608  0.92188654  0.69428986  1
