# generated using pymatgen
data_H2O
_symmetry_space_group_name_H-M   'P 1'
_cell_length_a   17.98214138
_cell_length_b   17.96933905
_cell_length_c   21.95830657
_cell_angle_alpha   89.97757652
_cell_angle_beta   89.96413051
_cell_angle_gamma   119.95914794
_symmetry_Int_Tables_number   1
_chemical_formula_structural   H2O
_chemical_formula_sum   'H384 O192'
_cell_volume   6147.25727712
_cell_formula_units_Z   192
loop_
 _symmetry_equiv_pos_site_id
 _symmetry_equiv_pos_as_xyz
  1  'x, y, z'
loop_
 _atom_type_symbol
 _atom_type_oxidation_number
  H+  1.0
  O2-  -2.0
loop_
 _atom_site_type_symbol
 _atom_site_label
 _atom_site_symmetry_multiplicity
 _atom_site_fract_x
 _atom_site_fract_y
 _atom_site_fract_z
 _atom_site_occupancy
  H+  H0  1  0.22358847  0.88131186  0.99262205  1
  H+  H1  1  0.77963299  0.13671325  0.84401747  1
  H+  H2  1  0.38093572  0.74666363  0.35450378  1
  H+  H3  1  0.38955154  0.27019745  1.00845277  1
  H+  H4  1  0.88807805  0.27463090  0.65284452  1
  H+  H5  1  0.41514694  0.74005773  0.19929223  1
  H+  H6  1  0.17072880  0.84578736  0.92802132  1
  H+  H7  1  0.11705442  1.00127953  0.34473732  1
  H+  H8  1  0.62503492  -0.00078713  0.64777556  1
  H+  H9  1  0.88633314  0.76981935  0.49302598  1
  H+  H10  1  0.71471323  0.34195876  0.64350103  1
  H+  H11  1  0.02268088  0.62932927  0.34049583  1
  H+  H12  1  0.86363622  0.13167300  0.00816330  1
  H+  H13  1  0.16621852  0.33305955  0.23094077  1
  H+  H14  1  0.58815037  0.90596254  0.12634296  1
  H+  H15  1  0.87896741  0.53522016  0.33284620  1
  H+  H16  1  0.88856852  0.76729629  -0.00661375  1
  H+  H17  1  0.86478995  1.00011222  0.64538943  1
  H+  H18  1  0.87308487  0.90522208  0.37390255  1
  H+  H19  1  0.26666731  0.13188771  0.50356593  1
  H+  H20  1  0.53333000  0.38115378  -0.01975455  1
  H+  H21  1  0.90083059  0.79768467  0.34158042  1
  H+  H22  1  0.23945941  0.63170675  0.33369120  1
  H+  H23  1  0.43793165  0.35570184  1.04622669  1
  H+  H24  1  0.14096524  0.60419547  0.99624169  1
  H+  H25  1  0.60580733  0.13137394  0.17712957  1
  H+  H26  1  0.86926364  0.21710191  0.48978058  1
  H+  H27  1  0.41589441  0.29489446  0.67072289  1
  H+  H28  1  0.60686668  0.46947084  0.33647120  1
  H+  H29  1  0.90744925  0.82549584  0.58797055  1
  H+  H30  1  0.39379633  0.86539916  0.67270023  1
  H+  H31  1  0.85033034  0.85962374  0.82161079  1
  H+  H32  1  0.38952526  0.03693076  0.99702795  1
  H+  H33  1  0.11251383  0.85365775  0.16443543  1
  H+  H34  1  0.38560374  0.13011314  0.18358624  1
  H+  H35  1  0.35711271  0.83185252  0.20135950  1
  H+  H36  1  0.13223049  0.11409030  0.17421518  1
  H+  H37  1  0.62836519  0.26751718  0.33803542  1
  H+  H38  1  0.45950528  0.59524844  0.50438683  1
  H+  H39  1  0.41382548  0.12942547  0.66876718  1
  H+  H40  1  0.11591478  0.63653367  0.34521165  1
  H+  H41  1  0.64275462  0.02287339  0.84714397  1
  H+  H42  1  0.13784235  0.35812091  0.51173193  1
  H+  H43  1  0.37954912  0.62053446  -0.00807073  1
  H+  H44  1  0.21829082  0.59906488  0.17616435  1
  H+  H45  1  0.11882924  0.76611512  0.49726404  1
  H+  H46  1  0.49219881  0.11340620  0.65777004  1
  H+  H47  1  0.64831066  0.35678984  -0.01707294  1
  H+  H48  1  0.87992732  0.51832060  0.65678632  1
  H+  H49  1  0.60312805  0.60236253  0.48472751  1
  H+  H50  1  0.36614340  0.75993656  0.51991736  1
  H+  H51  1  0.66514375  0.36963399  0.18305845  1
  H+  H52  1  0.15013156  0.53589323  0.83393819  1
  H+  H53  1  0.28802436  0.39960124  0.79671515  1
  H+  H54  1  0.06308447  0.65070198  0.42831889  1
  H+  H55  1  0.53757489  0.85691752  0.18782669  1
  H+  H56  1  0.02095602  0.13798426  0.16044380  1
  H+  H57  1  0.83724115  0.94038380  0.81787403  1
  H+  H58  1  0.14595870  0.28532326  0.32547007  1
  H+  H59  1  0.61403051  0.88524579  0.84493487  1
  H+  H60  1  0.27174984  0.13665376  1.00597372  1
  H+  H61  1  0.10560805  0.37886765  0.17685186  1
  H+  H62  1  0.85860608  0.87420318  1.01111957  1
  H+  H63  1  0.14345749  0.29547905  0.77955728  1
  H+  H64  1  0.72534994  0.86311743  0.63735543  1
  H+  H65  1  0.38550779  0.27134957  0.51878377  1
  H+  H66  1  0.33320073  0.21825282  0.16502421  1
  H+  H67  1  0.34819932  0.25529271  0.34796127  1
  H+  H68  1  0.87487889  0.40204476  0.81977310  1
  H+  H69  1  0.61770631  1.00785185  0.05722130  1
  H+  H70  1  0.35405306  -0.02947514  0.49955897  1
  H+  H71  1  0.37439403  0.98518281  0.83847748  1
  H+  H72  1  -0.00859592  0.21485768  0.80269437  1
  H+  H73  1  0.74755271  0.14924896  0.98867453  1
  H+  H74  1  0.60164465  0.13162353  0.36407475  1
  H+  H75  1  0.09909197  0.20984882  0.99901839  1
  H+  H76  1  0.63031595  0.84197975  0.98349213  1
  H+  H77  1  0.62085185  0.21354955  0.65929558  1
  H+  H78  1  0.10774880  0.37807375  1.00209509  1
  H+  H79  1  0.10829386  0.14692857  0.33733569  1
  H+  H80  1  0.89253370  0.50636262  0.17840143  1
  H+  H81  1  0.12445584  0.27039259  0.17139376  1
  H+  H82  1  0.78230274  0.63734764  0.16012864  1
  H+  H83  1  0.52259950  0.88619607  0.84325209  1
  H+  H84  1  0.88293017  0.60808011  0.66233591  1
  H+  H85  1  0.72077074  0.84448684  0.99807870  1
  H+  H86  1  0.00915394  0.37443488  0.18641323  1
  H+  H87  1  0.38917888  0.50419002  0.22481621  1
  H+  H88  1  0.32004476  0.16355769  0.69777982  1
  H+  H89  1  0.71239870  0.09984386  0.34384528  1
  H+  H90  1  0.87439805  0.00546208  1.00060180  1
  H+  H91  1  0.85134880  0.87051552  0.65999857  1
  H+  H92  1  0.88991547  0.51848033  -0.00572430  1
  H+  H93  1  0.13219069  0.60582901  0.17811309  1
  H+  H94  1  0.05288582  0.20212368  0.84613655  1
  H+  H95  1  0.52517061  0.88255816  0.66556424  1
  H+  H96  1  0.12874449  0.40013054  0.34529724  1
  H+  H97  1  0.22442897  0.35287423  0.51115797  1
  H+  H98  1  0.26827521  0.62190957  0.00288662  1
  H+  H99  1  -0.03529622  0.85448014  0.64919477  1
  H+  H100  1  0.36789010  0.84961809  0.51860679  1
  H+  H101  1  0.52254163  0.13857366  0.01784705  1
  H+  H102  1  0.58665889  0.34315458  0.48302293  1
  H+  H103  1  0.78377304  0.37309450  0.16930263  1
  H+  H104  1  0.88542530  0.11204919  0.17836172  1
  H+  H105  1  0.18005651  0.35087378  0.72099033  1
  H+  H106  1  0.09521152  0.41676916  0.44146715  1
  H+  H107  1  0.85135003  0.17896716  0.89391717  1
  H+  H108  1  0.89145170  0.64708344  0.47966111  1
  H+  H109  1  0.08445439  0.17863935  0.39888471  1
  H+  H110  1  0.64188020  0.26955464  0.18277015  1
  H+  H111  1  0.11410382  0.46960775  0.00175895  1
  H+  H112  1  0.37159296  0.72900473  0.67827730  1
  H+  H113  1  0.47580738  0.35568871  0.50719198  1
  H+  H114  1  0.83999981  0.67586569  0.73253888  1
  H+  H115  1  0.38315491  0.61350549  0.65740246  1
  H+  H116  1  0.39918496  0.87345438  0.20586057  1
  H+  H117  1  0.98537433  0.36203174  0.98934211  1
  H+  H118  1  1.00639825  0.86168321  0.82578459  1
  H+  H119  1  0.91822083  0.57969787  -0.06503934  1
  H+  H120  1  0.13053552  0.01795800  0.50305968  1
  H+  H121  1  0.16143369  0.59510980  0.56591938  1
  H+  H122  1  0.37119920  0.60079305  0.50326766  1
  H+  H123  1  0.09815674  0.09809590  0.65663097  1
  H+  H124  1  0.85211507  0.37993173  0.66164853  1
  H+  H125  1  0.57192416  0.69734950  0.16073226  1
  H+  H126  1  0.91925328  0.08555548  0.23757813  1
  H+  H127  1  0.10454931  0.47513555  0.18121421  1
  H+  H128  1  0.78626993  0.90102180  0.17280172  1
  H+  H129  1  0.39169700  0.53096888  0.83745900  1
  H+  H130  1  0.01241235  0.11879204  0.00435054  1
  H+  H131  1  0.12540368  0.40937836  0.79047002  1
  H+  H132  1  0.48441290  0.36665983  0.13727134  1
  H+  H133  1  0.35151174  1.00422105  0.17052697  1
  H+  H134  1  0.62205986  0.44274356  0.12069932  1
  H+  H135  1  0.84578808  0.27909134  0.33917433  1
  H+  H136  1  0.34351590  0.37120056  -0.00566073  1
  H+  H137  1  0.63282929  0.55670720  0.69421690  1
  H+  H138  1  0.87017292  0.13377192  0.66450325  1
  H+  H139  1  0.89453540  0.35875816  0.99091341  1
  H+  H140  1  0.40189741  0.57802900  0.59370527  1
  H+  H141  1  0.34833424  0.92860691  0.74114223  1
  H+  H142  1  0.89740217  0.39989559  0.48677497  1
  H+  H143  1  0.72173331  0.63942454  0.68401621  1
  H+  H144  1  0.40807528  0.87462194  0.33576199  1
  H+  H145  1  0.20379580  0.86251371  0.17299532  1
  H+  H146  1  0.88448217  0.78998548  0.20434905  1
  H+  H147  1  0.96806015  0.36956658  0.64677103  1
  H+  H148  1  0.36292729  0.38000339  0.49741325  1
  H+  H149  1  0.67214304  0.80284534  0.22398727  1
  H+  H150  1  0.35389966  0.46458149  0.49636465  1
  H+  H151  1  0.64271264  0.52329055  0.97963144  1
  H+  H152  1  0.34034613  0.66513948  0.76769514  1
  H+  H153  1  1.01617772  0.88952486  0.17395063  1
  H+  H154  1  0.77829329  0.63333665  0.00407100  1
  H+  H155  1  0.14476770  0.64976782  0.65638112  1
  H+  H156  1  0.00904469  0.62517645  0.67391686  1
  H+  H157  1  0.98047928  0.12880164  0.33233153  1
  H+  H158  1  0.68597911  0.87489825  0.54596327  1
  H+  H159  1  0.60123565  0.62797641  0.17399985  1
  H+  H160  1  0.73314213  0.58919658  0.47197762  1
  H+  H161  1  0.63082044  1.01649634  0.19174125  1
  H+  H162  1  0.48342405  0.40642957  0.12703272  1
  H+  H163  1  0.10018013  0.94246294  0.82090529  1
  H+  H164  1  0.49439994  0.64145766  0.34825005  1
  H+  H165  1  0.33600579  0.46716268  0.13947816  1
  H+  H166  1  0.52150280  0.63123380  0.83123728  1
  H+  H167  1  0.87172053  0.64910202  0.83077358  1
  H+  H168  1  0.63986241  0.26748633  0.00334836  1
  H+  H169  1  0.94173913  0.54259675  0.48064775  1
  H+  H170  1  0.58374520  0.90930004  -0.06727711  1
  H+  H171  1  0.09562262  0.80139291  0.25429500  1
  H+  H172  1  0.37378959  0.49403533  0.35149446  1
  H+  H173  1  0.32028421  0.18030396  0.83716877  1
  H+  H174  1  0.46104978  0.57924945  0.18333343  1
  H+  H175  1  0.47334671  0.12450898  0.18639602  1
  H+  H176  1  0.11189143  0.22574278  0.49555184  1
  H+  H177  1  0.72099709  0.21034791  0.95654313  1
  H+  H178  1  0.85838417  0.13857878  0.32339783  1
  H+  H179  1  0.87802270  0.22856720  0.00695360  1
  H+  H180  1  0.11888241  0.72592014  0.82873511  1
  H+  H181  1  0.21852249  0.10880145  0.17516784  1
  H+  H182  1  0.25750844  0.62396706  0.49648215  1
  H+  H183  1  0.88989506  0.53251473  0.83648781  1
  H+  H184  1  0.87877226  -0.00411458  0.47445240  1
  H+  H185  1  0.87134127  0.37214783  0.17076907  1
  H+  H186  1  0.64216988  0.04352064  1.07954667  1
  H+  H187  1  0.35286919  0.82530440  0.94995761  1
  H+  H188  1  0.09423054  0.38982234  0.65733843  1
  H+  H189  1  1.02396609  0.90575795  0.34766293  1
  H+  H190  1  0.66375491  0.94789745  0.49719517  1
  H+  H191  1  0.37887003  0.98293523  0.67982616  1
  H+  H192  1  0.72234413  0.83832728  0.83635014  1
  H+  H193  1  0.37480386  0.39921908  0.82075377  1
  H+  H194  1  0.36336555  0.13988812  0.00679666  1
  H+  H195  1  0.33268164  0.34249166  0.17165891  1
  H+  H196  1  0.53109171  0.64891731  0.62647619  1
  H+  H197  1  -0.01355397  0.11264944  0.66020821  1
  H+  H198  1  0.88289015  0.58918007  0.17240128  1
  H+  H199  1  0.23327003  0.86753861  0.83985793  1
  H+  H200  1  0.64759093  0.36017265  0.84526874  1
  H+  H201  1  0.09106004  0.96359132  0.67115889  1
  H+  H202  1  0.32691417  0.16330896  0.10447317  1
  H+  H203  1  0.10575355  0.97472723  -0.00336404  1
  H+  H204  1  0.21754976  0.12962266  0.32830591  1
  H+  H205  1  0.71797553  0.50893958  0.14101130  1
  H+  H206  1  0.73948653  0.90296023  0.36398189  1
  H+  H207  1  0.86214859  0.08025814  0.84833530  1
  H+  H208  1  0.62198603  0.22402594  0.81789626  1
  H+  H209  1  0.88658712  0.25818821  0.18021789  1
  H+  H210  1  0.85860305  0.40202652  0.32004265  1
  H+  H211  1  0.39422375  0.62291247  0.83752937  1
  H+  H212  1  0.14504051  0.82064101  0.55899496  1
  H+  H213  1  0.65875899  0.07629884  0.24909203  1
  H+  H214  1  0.78835534  0.66037792  0.33840427  1
  H+  H215  1  0.42935928  0.09773646  0.93749928  1
  H+  H216  1  0.86010414  0.72425339  0.66822865  1
  H+  H217  1  0.64360447  0.49744573  0.46887733  1
  H+  H218  1  0.40229315  0.40642589  0.66819160  1
  H+  H219  1  0.98166902  0.35176774  0.50396397  1
  H+  H220  1  0.11184771  0.75876710  0.65055485  1
  H+  H221  1  0.64534562  0.64221901  0.35050412  1
  H+  H222  1  0.65790644  0.87943546  0.20083563  1
  H+  H223  1  0.51514630  0.86105769  0.98264020  1
  H+  H224  1  0.23955158  0.62304060  0.84034085  1
  H+  H225  1  0.64834328  0.95586551  0.35563645  1
  H+  H226  1  0.38682915  0.11876567  0.51410380  1
  H+  H227  1  0.78215341  0.39173086  0.82324557  1
  H+  H228  1  0.10904162  0.71780776  0.15870450  1
  H+  H229  1  0.83039602  0.90600656  0.07127484  1
  H+  H230  1  0.47052630  0.36533407  0.31711288  1
  H+  H231  1  0.94302704  0.07312353  0.83514918  1
  H+  H232  1  0.10794743  0.87949782  0.48926130  1
  H+  H233  1  0.34725499  0.60907885  0.16213713  1
  H+  H234  1  0.13070463  0.48876913  0.35227778  1
  H+  H235  1  0.08380907  0.76254942  0.31885134  1
  H+  H236  1  0.78184702  0.37882872  0.01151249  1
  H+  H237  1  0.17645137  0.59147309  0.27580880  1
  H+  H238  1  0.03014410  0.62350324  0.00723767  1
  H+  H239  1  0.54609631  0.41160200  0.68460475  1
  H+  H240  1  0.10059619  0.25696887  0.65510412  1
  H+  H241  1  0.39172995  0.50174304  0.66394712  1
  H+  H242  1  0.41202942  0.13931858  0.84736837  1
  H+  H243  1  0.76161454  0.35146051  0.34200653  1
  H+  H244  1  0.61667807  0.72827449  0.83393201  1
  H+  H245  1  0.11211853  0.46828728  0.50394269  1
  H+  H246  1  0.62253996  0.76301316  0.37140137  1
  H+  H247  1  0.47671760  0.61728033  -0.00764043  1
  H+  H248  1  0.43460937  0.84600976  0.78402504  1
  H+  H249  1  0.59564784  0.41426443  -0.07744004  1
  H+  H250  1  0.61970800  0.13446346  0.81837046  1
  H+  H251  1  1.03839891  0.40562014  0.81446637  1
  H+  H252  1  0.88545644  0.87730812  0.18828215  1
  H+  H253  1  0.37005635  0.97063243  0.34469232  1
  H+  H254  1  0.63027963  0.09811212  0.64712634  1
  H+  H255  1  0.65023665  0.54110560  0.19901803  1
  H+  H256  1  0.40773395  0.28951273  0.84054729  1
  H+  H257  1  0.18740730  0.08557362  0.82000032  1
  H+  H258  1  0.35351262  0.90379713  0.02934477  1
  H+  H259  1  0.90277550  0.29144212  0.83661876  1
  H+  H260  1  0.23715701  0.04294856  0.84806039  1
  H+  H261  1  0.18976152  0.10684119  0.65690772  1
  H+  H262  1  0.21322299  0.34443977  0.98082817  1
  H+  H263  1  0.53341271  0.40151753  0.84265901  1
  H+  H264  1  0.67173538  0.58358812  0.38586526  1
  H+  H265  1  0.78033557  0.12605528  0.49179659  1
  H+  H266  1  0.13102078  0.10744275  0.98925658  1
  H+  H267  1  0.97680712  0.10975880  0.49628353  1
  H+  H268  1  0.13566408  0.85177912  0.83327709  1
  H+  H269  1  0.37842386  0.73481944  0.82144798  1
  H+  H270  1  0.01869240  0.88309285  0.48744472  1
  H+  H271  1  0.51043189  0.15503751  0.50903305  1
  H+  H272  1  0.23719209  0.37356544  0.32376788  1
  H+  H273  1  0.60778344  0.71369891  0.00886129  1
  H+  H274  1  0.76869063  0.13071860  0.16535777  1
  H+  H275  1  0.87673472  0.65811687  0.32941668  1
  H+  H276  1  0.88409032  0.85872312  0.48825017  1
  H+  H277  1  0.24524973  0.38206770  0.14376532  1
  H+  H278  1  0.02478469  0.62560985  0.16381913  1
  H+  H279  1  1.01439581  0.87880760  0.99493338  1
  H+  H280  1  0.37990092  0.10791905  0.34175306  1
  H+  H281  1  0.11552071  0.59808137  0.50528503  1
  H+  H282  1  0.91497152  0.57739198  0.26702569  1
  H+  H283  1  0.48968592  0.12063836  0.84236768  1
  H+  H284  1  0.62755237  0.48836019  0.84165219  1
  H+  H285  1  0.87415476  0.98588538  0.16272426  1
  H+  H286  1  0.95177105  0.91120075  0.86795289  1
  H+  H287  1  0.11378348  0.84773259  0.64757812  1
  H+  H288  1  0.74664076  0.91007694  0.48411142  1
  H+  H289  1  0.34294493  0.91271728  0.16622529  1
  H+  H290  1  -0.01916831  0.61821645  0.84132046  1
  H+  H291  1  0.10498634  0.97286207  0.16533922  1
  H+  H292  1  0.37059283  0.44138215  0.73005441  1
  H+  H293  1  0.45280884  0.79938709  0.25895650  1
  H+  H294  1  0.43745792  0.61153714  0.28755331  1
  H+  H295  1  0.69024121  0.88065642  0.30129615  1
  H+  H296  1  0.30636468  0.40371157  0.04603156  1
  H+  H297  1  0.27956747  0.64885805  0.67314681  1
  H+  H298  1  0.86214512  0.42038413  0.42762382  1
  H+  H299  1  0.41842710  0.35573449  0.89729141  1
  H+  H300  1  0.43606636  0.34377773  0.60511166  1
  H+  H301  1  0.61398592  0.14326578  0.01706047  1
  H+  H302  1  0.40571867  0.80747140  0.90315404  1
  H+  H303  1  0.82042041  0.63361833  0.09386707  1
  H+  H304  1  0.66622175  0.32207983  0.27559488  1
  H+  H305  1  0.89495497  0.03966993  0.34412963  1
  H+  H306  1  0.89926989  0.05556122  0.93771709  1
  H+  H307  1  0.35505036  0.71234395  -0.00468440  1
  H+  H308  1  0.61473842  0.88526290  0.65175156  1
  H+  H309  1  0.33932283  0.90957059  0.40188414  1
  H+  H310  1  0.08618894  0.64778178  0.06749048  1
  H+  H311  1  0.50321962  0.89087064  0.34239600  1
  H+  H312  1  0.57972978  0.16240978  0.11621081  1
  H+  H313  1  0.07755676  0.16389343  0.09928244  1
  H+  H314  1  0.27222485  0.23179408  0.39290597  1
  H+  H315  1  0.59810102  0.42940236  0.74576117  1
  H+  H316  1  0.56905525  0.64716332  0.06594816  1
  H+  H317  1  0.11832510  0.63760115  0.82876971  1
  H+  H318  1  0.89847689  0.06083403  0.58457776  1
  H+  H319  1  0.33693314  0.42140877  0.40353542  1
  H+  H320  1  0.90325897  0.29526092  0.24752395  1
  H+  H321  1  0.66440635  0.59935682  0.25706636  1
  H+  H322  1  0.22610372  0.71260971  0.61825005  1
  H+  H323  1  0.93444604  0.34924731  0.89508469  1
  H+  H324  1  0.41840551  0.59165787  0.92709613  1
  H+  H325  1  0.63553818  0.60752948  -0.00555055  1
  H+  H326  1  0.92150364  0.86444016  0.28917947  1
  H+  H327  1  0.67933164  0.60121141  0.89799040  1
  H+  H328  1  0.41508383  0.09481051  0.27845795  1
  H+  H329  1  0.16115181  0.08836721  0.26624141  1
  H+  H330  1  0.58774587  0.65537027  0.53601468  1
  H+  H331  1  0.66324773  0.06634273  0.58110947  1
  H+  H332  1  0.42346781  0.09261375  0.57315988  1
  H+  H333  1  0.67478017  0.10122022  0.89379227  1
  H+  H334  1  0.16931863  0.07848828  0.93256235  1
  H+  H335  1  0.44843156  0.85087032  0.07937120  1
  H+  H336  1  0.88458421  0.11014656  0.49390112  1
  H+  H337  1  0.03932410  0.14752984  0.72266723  1
  H+  H338  1  0.08826714  0.93300583  0.40955444  1
  H+  H339  1  0.36674850  0.32087950  0.23419750  1
  H+  H340  1  0.11053161  0.13552376  0.48980093  1
  H+  H341  1  0.60919839  0.38125971  0.33196204  1
  H+  H342  1  0.62515151  0.99749631  0.44629480  1
  H+  H343  1  0.14749624  0.07446652  0.56276290  1
  H+  H344  1  0.73754380  0.62920540  0.83698633  1
  H+  H345  1  0.85390699  0.67447690  0.42416145  1
  H+  H346  1  0.64800152  0.29695760  0.58661878  1
  H+  H347  1  0.15712364  0.32597581  0.60521150  1
  H+  H348  1  0.91273519  0.32487058  0.55776154  1
  H+  H349  1  0.32517674  0.66603221  0.44134570  1
  H+  H350  1  0.56188060  0.38383985  0.42512024  1
  H+  H351  1  0.14561952  0.31850286  0.92645848  1
  H+  H352  1  0.39053062  0.38147633  0.32658789  1
  H+  H353  1  0.61778578  0.63341826  0.82846614  1
  H+  H354  1  0.81408482  0.15102674  0.71082805  1
  H+  H355  1  0.37484222  0.65537886  0.35321366  1
  H+  H356  1  0.44668951  0.89155542  0.07528725  1
  H+  H357  1  0.51637624  0.13739673  0.35683603  1
  H+  H358  1  0.57944602  0.19006819  0.44703072  1
  H+  H359  1  0.11891525  0.88310891  -0.01076557  1
  H+  H360  1  0.66873110  0.81089240  0.90137733  1
  H+  H361  1  0.17494886  0.58159774  0.93409045  1
  H+  H362  1  0.37520126  0.89530974  0.83054501  1
  H+  H363  1  0.07423940  0.66128767  0.73269098  1
  H+  H364  1  0.62013395  0.65147974  0.64102709  1
  H+  H365  1  0.33173892  0.65400394  0.10499577  1
  H+  H366  1  0.67903505  0.32183022  0.89751197  1
  H+  H367  1  0.32818468  0.17384938  0.44690115  1
  H+  H368  1  0.31763842  0.94316836  0.07601809  1
  H+  H369  1  0.87172029  0.73825221  0.83083218  1
  H+  H370  1  0.06232799  0.89590091  0.72694385  1
  H+  H371  1  0.07601933  0.43976495  0.70853879  1
  H+  H372  1  0.40868451  0.82639555  0.61059449  1
  H+  H373  1  0.86654258  0.63011929  0.00506275  1
  H+  H374  1  0.91254996  0.82783170  0.93193101  1
  H+  H375  1  0.59385668  0.15601047  0.72189631  1
  H+  H376  1  0.38126378  0.20216141  0.75612018  1
  H+  H377  1  0.63926581  0.77905622  0.61474540  1
  H+  H378  1  0.26286014  0.88410100  0.49435117  1
  H+  H379  1  0.82709373  0.16010785  0.10418735  1
  H+  H380  1  0.82310173  0.41047804  0.72077994  1
  H+  H381  1  0.84379650  0.40777864  0.06964659  1
  H+  H382  1  0.59054186  0.68959721  0.42355048  1
  H+  H383  1  0.81569623  0.89237508  0.72049173  1
  O2-  O384  1  0.08118164  0.16981916  0.14448320  1
  O2-  O385  1  0.08181422  0.16753575  0.47521831  1
  O2-  O386  1  0.03245838  0.19411256  0.80406490  1
  O2-  O387  1  0.07105899  0.41043680  0.16971698  1
  O2-  O388  1  0.08992876  0.40924880  0.48728152  1
  O2-  O389  1  0.09470699  0.44209832  0.79407809  1
  O2-  O390  1  0.08511096  0.65516918  0.14881694  1
  O2-  O391  1  0.05916807  0.64955142  0.47603402  1
  O2-  O392  1  0.08520298  0.66537082  0.81450989  1
  O2-  O393  1  0.07029283  0.91288728  0.15085770  1
  O2-  O394  1  0.08118196  0.91569233  0.47547473  1
  O2-  O395  1  0.06576125  0.88363718  0.80517628  1
  O2-  O396  1  0.32332539  0.16065244  0.14967730  1
  O2-  O397  1  0.32883297  0.16474525  0.49131391  1
  O2-  O398  1  0.37934992  0.20545993  0.82329930  1
  O2-  O399  1  0.30330905  0.40814710  0.12392091  1
  O2-  O400  1  0.32845794  0.40463697  0.47977093  1
  O2-  O401  1  0.35190231  0.43440869  0.80044740  1
  O2-  O402  1  0.32630816  0.64807347  0.14990097  1
  O2-  O403  1  0.32006887  0.65377548  0.48608117  1
  O2-  O404  1  0.34586880  0.66986201  0.81333271  1
  O2-  O405  1  0.31732638  0.94596231  0.15042834  1
  O2-  O406  1  0.32478782  0.91177278  0.48294909  1
  O2-  O407  1  0.34053662  0.92490825  0.82389744  1
  O2-  O408  1  0.57887514  0.16479717  0.16168712  1
  O2-  O409  1  0.57629622  0.19205846  0.49341520  1
  O2-  O410  1  0.58818914  0.16349027  0.80346869  1
  O2-  O411  1  0.66117222  0.46013297  0.15532065  1
  O2-  O412  1  0.56834267  0.38678268  0.46997697  1
  O2-  O413  1  0.59729430  0.42405494  0.84327044  1
  O2-  O414  1  0.55942604  0.63941173  0.15038107  1
  O2-  O415  1  0.57328691  0.63534971  0.49257182  1
  O2-  O416  1  0.58339879  0.66296771  0.81631341  1
  O2-  O417  1  0.59286134  0.90789020  0.17063159  1
  O2-  O418  1  0.62836618  0.98774066  0.49120443  1
  O2-  O419  1  0.58769613  0.91983779  0.85658027  1
  O2-  O420  1  0.82847635  0.15935557  0.14954916  1
  O2-  O421  1  0.84131341  0.15568252  0.47631705  1
  O2-  O422  1  0.84456768  0.16626086  0.85027937  1
  O2-  O423  1  0.84364871  0.40321561  0.15272124  1
  O2-  O424  1  0.88546161  0.44376622  0.46800880  1
  O2-  O425  1  0.84057074  0.42803727  0.80571510  1
  O2-  O426  1  0.80617475  0.60787337  0.13653373  1
  O2-  O427  1  0.85015782  0.66661523  0.46945110  1
  O2-  O428  1  0.84031394  0.67862124  0.81574349  1
  O2-  O429  1  0.84150029  0.92354546  0.15036330  1
  O2-  O430  1  0.84417552  0.93015445  0.45614088  1
  O2-  O431  1  0.81181871  0.88056674  0.80260815  1
  O2-  O432  1  0.15919627  0.08251565  0.19260069  1
  O2-  O433  1  0.15891755  0.07874853  0.51815712  1
  O2-  O434  1  0.18653603  0.04922746  0.85336183  1
  O2-  O435  1  0.15444325  0.33210509  0.18576090  1
  O2-  O436  1  0.16467574  0.32375338  0.52747832  1
  O2-  O437  1  0.18435748  0.35446348  0.76668138  1
  O2-  O438  1  0.15963709  0.57206254  0.19439266  1
  O2-  O439  1  0.15198194  0.57599763  0.52246237  1
  O2-  O440  1  0.17909695  0.59253257  0.85551277  1
  O2-  O441  1  0.14233455  0.82065715  0.17716687  1
  O2-  O442  1  0.15044576  0.82617802  0.51227754  1
  O2-  O443  1  0.17252577  0.83299957  0.85484976  1
  O2-  O444  1  0.41339502  0.09871877  0.20243873  1
  O2-  O445  1  0.42432252  0.09488961  0.52675286  1
  O2-  O446  1  0.43195686  0.09830310  0.86173688  1
  O2-  O447  1  0.33144981  0.29661063  0.19704399  1
  O2-  O448  1  0.41918806  0.33363553  0.52910605  1
  O2-  O449  1  0.42787818  0.35637498  0.85345413  1
  O2-  O450  1  0.40171431  0.55481423  0.20063223  1
  O2-  O451  1  0.39910072  0.56764694  0.51911751  1
  O2-  O452  1  0.42314734  0.59040030  0.85517703  1
  O2-  O453  1  0.46810177  0.77614732  0.22264577  1
  O2-  O454  1  0.39374021  0.81815903  0.53803862  1
  O2-  O455  1  0.42921005  0.83887940  0.82819545  1
  O2-  O456  1  0.65949381  0.07793071  0.20408248  1
  O2-  O457  1  0.68019345  0.07439329  0.51767987  1
  O2-  O458  1  0.67578872  0.08801935  0.84982892  1
  O2-  O459  1  0.68161080  0.32835952  0.19963325  1
  O2-  O460  1  0.61693308  0.28294784  0.51237028  1
  O2-  O461  1  0.67735750  0.32696186  0.85255097  1
  O2-  O462  1  0.66347967  0.59937162  0.21210218  1
  O2-  O463  1  0.67217736  0.56003570  0.45871893  1
  O2-  O464  1  0.67614011  0.59807301  0.85243090  1
  O2-  O465  1  0.69889382  0.86517773  0.22269701  1
  O2-  O466  1  0.68924400  0.89466756  0.50177444  1
  O2-  O467  1  0.66261664  0.81076609  0.85581487  1
  O2-  O468  1  0.91964858  0.08520385  0.19210220  1
  O2-  O469  1  0.91435967  0.07371129  0.50672814  1
  O2-  O470  1  0.88668932  0.04163716  0.85485543  1
  O2-  O471  1  0.91529343  0.31383614  0.20349575  1
  O2-  O472  1  0.91860412  0.32299750  0.51235837  1
  O2-  O473  1  0.93585794  0.35198280  0.84926662  1
  O2-  O474  1  0.91816426  0.56761395  0.19227444  1
  O2-  O475  1  0.96698029  0.60716787  0.49018933  1
  O2-  O476  1  0.91982200  0.59063800  0.85590842  1
  O2-  O477  1  0.91399169  0.85117203  0.21333816  1
  O2-  O478  1  0.91436610  0.83126966  0.50711893  1
  O2-  O479  1  0.92326331  0.84949793  0.86028094  1
  O2-  O480  1  0.15862123  0.09069242  0.31257468  1
  O2-  O481  1  0.13190838  0.07011310  0.64165230  1
  O2-  O482  1  0.16513839  0.07891699  0.97735406  1
  O2-  O483  1  0.17839904  0.34344534  0.30605060  1
  O2-  O484  1  0.13977610  0.31947425  0.64921345  1
  O2-  O485  1  0.14864713  0.31201946  0.97020719  1
  O2-  O486  1  0.17817952  0.59654570  0.32084730  1
  O2-  O487  1  0.19615301  0.65351906  0.63326590  1
  O2-  O488  1  0.17557056  0.57720717  0.97955406  1
  O2-  O489  1  0.06022796  0.78847840  0.29135945  1
  O2-  O490  1  0.13977182  0.81558910  0.62958472  1
  O2-  O491  1  0.16578232  0.85187473  0.97351692  1
  O2-  O492  1  0.41760362  0.08930100  0.32409307  1
  O2-  O493  1  0.42965353  0.09111533  0.64687227  1
  O2-  O494  1  0.42446552  0.09776451  0.98352325  1
  O2-  O495  1  0.40803993  0.34110844  0.30847495  1
  O2-  O496  1  0.44033775  0.35258976  0.65055756  1
  O2-  O497  1  0.42605858  0.33508171  1.00411536  1
  O2-  O498  1  0.43427869  0.60589988  0.33202842  1
  O2-  O499  1  0.41319119  0.58389144  0.63906938  1
  O2-  O500  1  0.41701816  0.59323088  0.97380289  1
  O2-  O501  1  0.44642947  0.84901224  0.32611731  1
  O2-  O502  1  0.41817670  0.82918486  0.65634184  1
  O2-  O503  1  0.39131652  0.80185484  0.94748419  1
  O2-  O504  1  0.64914273  0.06656408  0.33456203  1
  O2-  O505  1  0.65689822  0.06362261  0.63014814  1
  O2-  O506  1  0.69880802  0.14981629  0.96622389  1
  O2-  O507  1  0.66273596  0.32686791  0.32099606  1
  O2-  O508  1  0.65448269  0.30017390  0.63216752  1
  O2-  O509  1  0.67795461  0.32233316  0.98110695  1
  O2-  O510  1  0.67043534  0.60442258  0.34300079  1
  O2-  O511  1  0.65974858  0.62027823  0.68929581  1
  O2-  O512  1  0.67304572  0.58735655  0.97609162  1
  O2-  O513  1  0.68162634  0.88261865  0.34582152  1
  O2-  O514  1  0.67097902  0.84409166  0.61405153  1
  O2-  O515  1  0.66279636  0.80927855  0.97910977  1
  O2-  O516  1  0.91938558  0.09166464  0.31830592  1
  O2-  O517  1  0.89523631  0.06094246  0.63009465  1
  O2-  O518  1  0.90406502  0.06493260  0.98237381  1
  O2-  O519  1  0.87836896  0.25466864  0.31856976  1
  O2-  O520  1  0.90595670  0.33148965  0.63412691  1
  O2-  O521  1  0.92354186  0.32876378  0.97281005  1
  O2-  O522  1  0.91609387  0.58927410  0.31217472  1
  O2-  O523  1  0.91622897  0.58088105  0.64846892  1
  O2-  O524  1  0.91768645  0.57937063  0.98060940  1
  O2-  O525  1  0.92566017  0.86114266  0.33461924  1
  O2-  O526  1  0.90435954  0.82465137  0.63324335  1
  O2-  O527  1  0.91506937  0.82796178  0.97890086  1
  O2-  O528  1  0.07396519  0.15106937  0.01722306  1
  O2-  O529  1  0.08396258  0.18240824  0.35310794  1
  O2-  O530  1  0.04677948  0.14611325  0.67858216  1
  O2-  O531  1  0.07844515  0.40911466  0.01600705  1
  O2-  O532  1  0.10185423  0.42867988  0.36708637  1
  O2-  O533  1  0.06870293  0.42672042  0.66462172  1
  O2-  O534  1  0.08938374  0.64616548  0.02240766  1
  O2-  O535  1  0.07922102  0.65982773  0.36115658  1
  O2-  O536  1  0.07208637  0.66039504  0.68752441  1
  O2-  O537  1  0.07818585  0.91176038  0.00641687  1
  O2-  O538  1  0.08673240  0.94009507  0.36219850  1
  O2-  O539  1  0.06222486  0.90176207  0.68162628  1
  O2-  O540  1  0.33102752  0.16788040  0.02306304  1
  O2-  O541  1  0.30298314  0.20605871  0.37358537  1
  O2-  O542  1  0.38055044  0.19880735  0.70769615  1
  O2-  O543  1  0.30709549  0.39700145  0.00100958  1
  O2-  O544  1  0.34162466  0.43082340  0.35809366  1
  O2-  O545  1  0.37243240  0.44034697  0.68340283  1
  O2-  O546  1  0.33234948  0.65568764  0.01631960  1
  O2-  O547  1  0.34239914  0.68464372  0.36487430  1
  O2-  O548  1  0.33758419  0.66565999  0.68975637  1
  O2-  O549  1  0.32281315  0.93580947  0.03060019  1
  O2-  O550  1  0.34742287  0.91047367  0.35702808  1
  O2-  O551  1  0.35393990  0.92420537  0.69668583  1
  O2-  O552  1  0.58093258  0.16695839  0.03722059  1
  O2-  O553  1  0.57602326  0.16793696  0.37408295  1
  O2-  O554  1  0.59156870  0.15098261  0.67674648  1
  O2-  O555  1  0.59512860  0.41322645  -0.03180608  1
  O2-  O556  1  0.57283649  0.40726825  0.34334664  1
  O2-  O557  1  0.60096340  0.45131550  0.70465670  1
  O2-  O558  1  0.57111524  0.65075354  0.02089357  1
  O2-  O559  1  0.59451979  0.70022374  0.37853812  1
  O2-  O560  1  0.59090550  0.67456771  0.61183585  1
  O2-  O561  1  0.57752128  0.89349094  -0.02280825  1
  O2-  O562  1  0.61462666  0.98495547  0.36907544  1
  O2-  O563  1  0.58883714  0.91614033  0.67275590  1
  O2-  O564  1  0.83949832  0.16823548  0.02212843  1
  O2-  O565  1  0.81801002  0.16173000  0.31804047  1
  O2-  O566  1  0.86964192  0.17887519  0.69051192  1
  O2-  O567  1  0.84321837  0.41042183  0.02439431  1
  O2-  O568  1  0.82146775  0.36316802  0.35163079  1
  O2-  O569  1  0.81915165  0.40817854  0.67583858  1
  O2-  O570  1  0.83689953  0.66085623  0.02226789  1
  O2-  O571  1  0.85055580  0.69046701  0.34807261  1
  O2-  O572  1  0.83078174  0.66669727  0.68802272  1
  O2-  O573  1  0.82586478  0.90240073  0.02591913  1
  O2-  O574  1  0.84497638  0.93846104  0.38895689  1
  O2-  O575  1  0.81996555  0.90020346  0.67554158  1
