# generated using pymatgen
data_H2O
_symmetry_space_group_name_H-M   'P 1'
_cell_length_a   17.98464920
_cell_length_b   17.98718702
_cell_length_c   21.99816246
_cell_angle_alpha   90.00795662
_cell_angle_beta   90.02637349
_cell_angle_gamma   119.96601353
_symmetry_Int_Tables_number   1
_chemical_formula_structural   H2O
_chemical_formula_sum   'H384 O192'
_cell_volume   6164.96767373
_cell_formula_units_Z   192
loop_
 _symmetry_equiv_pos_site_id
 _symmetry_equiv_pos_as_xyz
  1  'x, y, z'
loop_
 _atom_type_symbol
 _atom_type_oxidation_number
  H+  1.0
  O2-  -2.0
loop_
 _atom_site_type_symbol
 _atom_site_label
 _atom_site_symmetry_multiplicity
 _atom_site_fract_x
 _atom_site_fract_y
 _atom_site_fract_z
 _atom_site_occupancy
  H+  H0  1  0.26857084  0.64570374  0.01389721  1
  H+  H1  1  0.78177827  0.63753662  0.02129943  1
  H+  H2  1  0.92655120  0.85259410  0.34194040  1
  H+  H3  1  0.64883784  1.02519930  -0.01560878  1
  H+  H4  1  0.11999793  0.47147569  0.82422811  1
  H+  H5  1  0.13863298  0.11800550  0.50207889  1
  H+  H6  1  0.13251584  1.01932196  0.83924160  1
  H+  H7  1  0.38013829  0.14281974  0.15990907  1
  H+  H8  1  0.12821154  0.52416743  0.18015386  1
  H+  H9  1  0.95961790  0.11164676  0.16247639  1
  H+  H10  1  0.50331118  0.64217101  1.01659659  1
  H+  H11  1  0.75946457  0.38916939  0.50950876  1
  H+  H12  1  0.14238231  0.78835121  0.51829611  1
  H+  H13  1  0.62778639  0.14936298  0.49519435  1
  H+  H14  1  0.10194572  0.62017923  0.01176511  1
  H+  H15  1  0.42055929  0.08394696  0.59690140  1
  H+  H16  1  0.85420194  0.63222082  0.34003829  1
  H+  H17  1  0.85953584  0.47398229  0.35250029  1
  H+  H18  1  0.87893276  0.86273168  0.50314281  1
  H+  H19  1  -0.02485439  0.34741172  0.50327589  1
  H+  H20  1  0.24358546  0.71439887  0.78006748  1
  H+  H21  1  0.64834225  0.78684613  0.83683404  1
  H+  H22  1  0.53170002  0.90744407  0.00813893  1
  H+  H23  1  0.61253690  0.72361342  0.49298349  1
  H+  H24  1  0.25870293  0.61205431  0.66085949  1
  H+  H25  1  0.88510753  0.28482447  0.84233414  1
  H+  H26  1  0.52231095  0.38830138  0.34501334  1
  H+  H27  1  0.39047112  0.28629099  0.32741456  1
  H+  H28  1  0.49858631  0.12970762  0.16592238  1
  H+  H29  1  0.09828549  0.87872032  0.82744898  1
  H+  H30  1  0.36905110  0.87377183  0.17036377  1
  H+  H31  1  0.28955764  0.86743464  0.33830648  1
  H+  H32  1  0.63194340  0.22234973  1.00448916  1
  H+  H33  1  0.15354892  0.09018644  0.15959874  1
  H+  H34  1  0.82650078  0.88054389  0.33508604  1
  H+  H35  1  0.34491711  0.38501812  1.00743944  1
  H+  H36  1  0.60409905  0.62242343  0.34553497  1
  H+  H37  1  0.85915656  0.75845373  0.32360110  1
  H+  H38  1  0.47812853  0.36360917  0.50872182  1
  H+  H39  1  0.88706511  0.27996535  0.66096109  1
  H+  H40  1  0.33864812  0.66323118  0.42886995  1
  H+  H41  1  0.10937899  0.97943790  0.01220985  1
  H+  H42  1  0.37720751  0.78178686  0.84367221  1
  H+  H43  1  0.88817767  0.61705165  -0.01001029  1
  H+  H44  1  0.11066494  0.37680734  0.66410181  1
  H+  H45  1  0.00765461  0.38068308  0.33156233  1
  H+  H46  1  0.38193152  0.59582488  0.65917802  1
  H+  H47  1  0.08619813  0.66515044  0.11210988  1
  H+  H48  1  0.24901480  0.10875450  0.17205213  1
  H+  H49  1  0.22137564  0.10869459  -0.00344026  1
  H+  H50  1  0.73599633  0.11750522  0.49679160  1
  H+  H51  1  0.40041365  0.05370076  0.32184567  1
  H+  H52  1  0.06668392  0.64718178  0.80684375  1
  H+  H53  1  0.23374548  0.85280164  0.18109837  1
  H+  H54  1  0.63408617  -0.01490673  0.48666372  1
  H+  H55  1  0.78111568  0.64443608  0.66654708  1
  H+  H56  1  0.64024307  0.61222289  0.65265368  1
  H+  H57  1  0.48771589  0.12164383  0.64983586  1
  H+  H58  1  0.91215404  0.83536679  0.90476469  1
  H+  H59  1  0.59382419  0.95612095  0.10316745  1
  H+  H60  1  0.41768773  0.28531631  0.67118707  1
  H+  H61  1  0.24977713  0.36501430  0.82391429  1
  H+  H62  1  0.81246749  0.65194361  0.17848426  1
  H+  H63  1  0.88201099  0.76636677  0.50094629  1
  H+  H64  1  0.88812711  0.61542651  0.65379139  1
  H+  H65  1  0.84964489  0.43725025  0.75489406  1
  H+  H66  1  0.12160003  0.73512774  0.35294351  1
  H+  H67  1  0.86731197  0.38496601  0.17884822  1
  H+  H68  1  0.89271398  0.77385502  0.99968590  1
  H+  H69  1  0.13981251  0.27204410  0.51628881  1
  H+  H70  1  0.63092123  0.25077503  0.63537742  1
  H+  H71  1  0.01954397  0.87340377  0.18267086  1
  H+  H72  1  0.96970445  0.60561137  0.99086590  1
  H+  H73  1  0.97301137  0.10815570  0.32021292  1
  H+  H74  1  0.92387356  0.39348064  -0.00263992  1
  H+  H75  1  0.64783866  0.86283072  0.65177165  1
  H+  H76  1  0.51324298  0.63091575  0.34351607  1
  H+  H77  1  0.77940989  0.90082161  0.82841969  1
  H+  H78  1  0.88501050  0.02921680  0.66423288  1
  H+  H79  1  0.86834958  0.22397280  0.49501620  1
  H+  H80  1  0.49999417  0.90827163  0.18734616  1
  H+  H81  1  -0.03380236  0.36013312  0.18062911  1
  H+  H82  1  0.74431494  0.12541641  0.98098534  1
  H+  H83  1  0.88962837  0.77707421  0.65337964  1
  H+  H84  1  0.37298110  0.23254349  0.49245516  1
  H+  H85  1  0.88934284  1.03772343  0.83753841  1
  H+  H86  1  0.84017114  0.16389164  0.43449011  1
  H+  H87  1  0.61436090  0.02351901  0.15699780  1
  H+  H88  1  0.46453674  0.56299272  0.83807395  1
  H+  H89  1  0.15502135  0.88256879  0.99639609  1
  H+  H90  1  0.64002168  0.25765767  0.17143797  1
  H+  H91  1  0.40213561  0.87086342  0.48272748  1
  H+  H92  1  0.63634384  0.86887375  0.83793565  1
  H+  H93  1  0.09804376  0.39448604  0.16101356  1
  H+  H94  1  0.06853324  0.90959422  0.34531911  1
  H+  H95  1  0.11744664  0.73816176  0.65474758  1
  H+  H96  1  0.37464379  0.61816304  1.00809430  1
  H+  H97  1  0.63284303  0.26344095  0.82899137  1
  H+  H98  1  0.33764828  0.93170832  0.74082551  1
  H+  H99  1  0.86597357  0.89694214  0.83093348  1
  H+  H100  1  0.13460782  0.61693435  0.33865464  1
  H+  H101  1  0.77638423  0.14844814  0.67133552  1
  H+  H102  1  0.63727039  0.90346026  0.18043829  1
  H+  H103  1  0.67093480  0.82778933  0.56116792  1
  H+  H104  1  0.56742249  0.34358254  0.81646356  1
  H+  H105  1  0.61896381  0.23115007  0.34392897  1
  H+  H106  1  0.24429997  0.54959661  0.87121604  1
  H+  H107  1  0.89419839  0.64175647  0.17310356  1
  H+  H108  1  0.73415564  0.85951769  0.65622874  1
  H+  H109  1  0.54754513  0.12008765  0.83552956  1
  H+  H110  1  0.88011561  0.99103133  0.03200693  1
  H+  H111  1  0.27856842  0.11676494  0.82821645  1
  H+  H112  1  0.65988691  0.64977506  0.80554520  1
  H+  H113  1  0.88669405  0.02476370  0.51118253  1
  H+  H114  1  0.85845249  0.48132738  -0.00938155  1
  H+  H115  1  1.02099524  0.13259017  0.49729750  1
  H+  H116  1  0.12504016  0.24764868  0.00555847  1
  H+  H117  1  0.89566746  0.65504327  0.81624032  1
  H+  H118  1  0.61083457  0.38552200  0.34188224  1
  H+  H119  1  0.87610838  0.27058819  0.17725991  1
  H+  H120  1  0.41516691  0.11738177  0.84341789  1
  H+  H121  1  0.14158049  0.77100002  0.18527859  1
  H+  H122  1  0.28273285  0.89435420  0.49312360  1
  H+  H123  1  0.62226160  0.80722781  0.18551431  1
  H+  H124  1  0.74663361  0.84144602  0.02880313  1
  H+  H125  1  0.17121097  0.87911411  0.33635223  1
  H+  H126  1  0.35436498  0.78549399  0.32953454  1
  H+  H127  1  0.37697800  0.98863750  0.83071288  1
  H+  H128  1  0.10879850  0.17405456  0.15736247  1
  H+  H129  1  0.59262586  0.64575356  0.02568489  1
  H+  H130  1  0.62311696  0.34771398  -0.01489655  1
  H+  H131  1  0.24186473  0.12965811  0.32492143  1
  H+  H132  1  0.07877621  0.41463022  0.28215224  1
  H+  H133  1  0.51957426  0.63345231  0.49539171  1
  H+  H134  1  0.37306273  0.98519067  0.67724596  1
  H+  H135  1  0.83783007  -0.00981389  1.02772125  1
  H+  H136  1  0.97957139  0.86536249  0.65490230  1
  H+  H137  1  0.85533539  0.48518913  0.49822138  1
  H+  H138  1  0.64651909  0.28194463  0.52679604  1
  H+  H139  1  0.90063285  0.52630803  0.18786720  1
  H+  H140  1  0.08390510  0.67572543  0.56725912  1
  H+  H141  1  0.13132260  0.97079182  0.17252663  1
  H+  H142  1  0.41117898  0.81290368  0.73326661  1
  H+  H143  1  0.15016807  1.00260649  0.34211391  1
  H+  H144  1  0.12859548  0.35198662  0.32784961  1
  H+  H145  1  0.39908883  1.03265181  0.50006997  1
  H+  H146  1  0.12742526  0.87771831  0.17455347  1
  H+  H147  1  0.78064238  0.39468422  0.64513305  1
  H+  H148  1  0.88660157  0.11373408  0.50800261  1
  H+  H149  1  0.59164742  0.65799704  0.17356159  1
  H+  H150  1  0.12197484  0.35191634  0.83708868  1
  H+  H151  1  0.85466567  0.38209450  0.35278612  1
  H+  H152  1  0.64860924  0.02778979  0.32633432  1
  H+  H153  1  0.41792526  1.03265714  -0.00727494  1
  H+  H154  1  0.75386253  0.90472244  0.34796155  1
  H+  H155  1  0.26218983  0.62555097  0.16943001  1
  H+  H156  1  0.37829629  0.15971934  0.33569492  1
  H+  H157  1  0.13894017  1.00147416  0.49905266  1
  H+  H158  1  0.97378964  0.86760052  1.00174572  1
  H+  H159  1  0.49362669  0.13458086  0.33101073  1
  H+  H160  1  0.87557131  0.16642273  -0.00342492  1
  H+  H161  1  0.99227961  0.61544721  0.18654294  1
  H+  H162  1  0.67813760  0.50634680  0.75153314  1
  H+  H163  1  0.35987574  0.62174346  0.16950277  1
  H+  H164  1  0.23058045  0.61833119  0.83617050  1
  H+  H165  1  0.13519647  0.11301519  0.99257174  1
  H+  H166  1  0.47415743  0.60217842  0.65745656  1
  H+  H167  1  0.61821777  0.39112878  0.50419284  1
  H+  H168  1  0.33833425  0.91468099  0.43203274  1
  H+  H169  1  0.84994405  0.14707967  0.82804007  1
  H+  H170  1  0.34844328  0.69596273  0.65039954  1
  H+  H171  1  0.84257855  0.13744366  0.15541788  1
  H+  H172  1  0.65837298  0.58866198  0.95154716  1
  H+  H173  1  0.11202086  0.24372384  0.67300705  1
  H+  H174  1  0.38296408  0.40659200  0.16010074  1
  H+  H175  1  0.35347643  0.47508674  0.34730882  1
  H+  H176  1  0.88767015  0.77928441  0.84305660  1
  H+  H177  1  0.29832310  0.80717791  0.12557335  1
  H+  H178  1  0.64311141  0.11324488  0.33381550  1
  H+  H179  1  0.61910748  0.90483421  1.00936060  1
  H+  H180  1  0.44306935  0.33483312  0.84247551  1
  H+  H181  1  0.64483751  0.86184366  0.50128253  1
  H+  H182  1  0.36009116  0.89444898  0.83328389  1
  H+  H183  1  0.77451691  0.13672320  0.34221710  1
  H+  H184  1  0.66929322  0.46012941  0.12497310  1
  H+  H185  1  0.59009152  0.41529934  0.43982818  1
  H+  H186  1  0.39007378  0.61018552  0.50362735  1
  H+  H187  1  0.91736469  0.77726736  0.18093995  1
  H+  H188  1  0.86922960  0.24948856  0.00466094  1
  H+  H189  1  0.39488411  0.87076778  0.00425611  1
  H+  H190  1  0.10479484  0.97680342  0.67571471  1
  H+  H191  1  0.72236158  0.36426274  0.32926399  1
  H+  H192  1  0.32002506  0.47870891  0.85988947  1
  H+  H193  1  0.47153945  0.86167200  0.85212212  1
  H+  H194  1  0.14736794  0.87687073  0.66302393  1
  H+  H195  1  0.03745127  0.16390888  -0.00269736  1
  H+  H196  1  0.39749281  0.12074450  0.50044792  1
  H+  H197  1  0.86255078  0.14462014  0.67850204  1
  H+  H198  1  0.37671273  0.72956151  0.48125538  1
  H+  H199  1  0.36066104  0.73493976  0.01857434  1
  H+  H200  1  0.43573746  0.82910561  0.22830487  1
  H+  H201  1  0.47622614  0.35736060  0.17659976  1
  H+  H202  1  0.62751284  0.51548624  0.50750907  1
  H+  H203  1  0.45282913  0.35452234  0.99465623  1
  H+  H204  1  0.61897977  0.77924070  0.99750172  1
  H+  H205  1  0.64526815  0.40471397  0.64765186  1
  H+  H206  1  0.87829254  0.41049990  0.81549749  1
  H+  H207  1  0.01583147  0.88896154  0.82760158  1
  H+  H208  1  0.86530901  0.13949906  0.33621263  1
  H+  H209  1  0.08672151  0.17174072  0.76691616  1
  H+  H210  1  0.21945256  0.35677884  0.32889403  1
  H+  H211  1  0.51299854  0.11248504  0.99082841  1
  H+  H212  1  0.76098010  0.62664763  0.33992852  1
  H+  H213  1  0.02434095  0.39075840  0.82247717  1
  H+  H214  1  0.26911382  0.63626100  0.33534727  1
  H+  H215  1  0.59860331  0.99170791  0.82122132  1
  H+  H216  1  0.29179131  0.90445177  0.00729070  1
  H+  H217  1  0.77303058  0.88177195  0.49383427  1
  H+  H218  1  0.91807600  0.54636390  0.82351392  1
  H+  H219  1  0.11241746  0.13406558  0.82598785  1
  H+  H220  1  0.91007670  0.07234013  0.98206625  1
  H+  H221  1  0.72561180  0.35400313  0.17987810  1
  H+  H222  1  0.18401066  0.85335632  0.93774605  1
  H+  H223  1  0.11792532  0.29094395  0.16762665  1
  H+  H224  1  0.64788561  0.04025267  0.64896593  1
  H+  H225  1  0.54567914  0.89632679  0.47808884  1
  H+  H226  1  0.35149572  0.47743798  0.01440343  1
  H+  H227  1  0.87713127  0.26781946  0.33703398  1
  H+  H228  1  0.36649469  0.37658871  0.67898220  1
  H+  H229  1  0.70952406  1.13444881  0.83141679  1
  H+  H230  1  0.13572121  0.77401422  0.83264697  1
  H+  H231  1  0.35713204  0.34050731  0.84406592  1
  H+  H232  1  0.20861716  0.35725976  0.66184786  1
  H+  H233  1  0.54928271  0.90343895  0.68283638  1
  H+  H234  1  0.64862120  0.87148163  0.28267244  1
  H+  H235  1  0.67246099  0.60251717  0.17126265  1
  H+  H236  1  0.12916450  0.50603986  0.65192785  1
  H+  H237  1  0.02241685  0.15093240  0.68031047  1
  H+  H238  1  0.35893566  0.46687713  0.49647711  1
  H+  H239  1  0.28337929  0.14587921  0.48884169  1
  H+  H240  1  0.70592837  0.15816074  0.16039387  1
  H+  H241  1  0.12145200  0.64050930  0.17129921  1
  H+  H242  1  0.38696021  0.35913457  0.51076645  1
  H+  H243  1  0.11411198  0.37400417  0.49840343  1
  H+  H244  1  0.86765714  0.39290749  0.65823353  1
  H+  H245  1  0.80511503  0.88544029  0.11164378  1
  H+  H246  1  0.86807686  0.89109776  0.67240469  1
  H+  H247  1  0.17064015  0.09472277  0.56310151  1
  H+  H248  1  0.47188320  0.59714965  0.86141426  1
  H+  H249  1  0.23370232  0.62757258  0.49875685  1
  H+  H250  1  -0.02587466  0.61655579  0.34319748  1
  H+  H251  1  0.12963976  0.52535625  0.33333370  1
  H+  H252  1  -0.02207393  0.36633047  0.65576276  1
  H+  H253  1  0.11753103  0.11983531  0.66097548  1
  H+  H254  1  0.97176586  0.61086937  0.50921671  1
  H+  H255  1  0.13919361  0.90220956  0.50164504  1
  H+  H256  1  0.61789472  0.72357721  0.66162807  1
  H+  H257  1  0.10667133  0.21902446  0.33937547  1
  H+  H258  1  0.02556098  0.64621102  0.65479339  1
  H+  H259  1  0.85070086  -0.02043601  0.15940863  1
  H+  H260  1  0.23765218  0.87679004  0.66462225  1
  H+  H261  1  0.79908001  0.63294818  0.80802428  1
  H+  H262  1  0.34342010  0.22257090  0.00803146  1
  H+  H263  1  0.53872915  0.14973641  0.49855113  1
  H+  H264  1  0.56846737  0.39104618  0.06370337  1
  H+  H265  1  0.41768648  0.58758631  0.27228633  1
  H+  H266  1  0.65090330  0.52513467  0.65037735  1
  H+  H267  1  0.88809652  0.52455651  0.65083600  1
  H+  H268  1  0.59702885  0.45434426  1.00767129  1
  H+  H269  1  0.30122475  0.68144060  0.74718263  1
  H+  H270  1  0.38025294  0.14824584  0.67501217  1
  H+  H271  1  0.55868837  0.42509648  0.79883367  1
  H+  H272  1  0.43271738  0.84492841  0.42512919  1
  H+  H273  1  0.21370352  0.37710700  0.99503878  1
  H+  H274  1  0.62396580  0.60844165  0.50685027  1
  H+  H275  1  0.62737328  0.37497346  0.16263361  1
  H+  H276  1  0.38834776  0.37381486  0.32895587  1
  H+  H277  1  0.35605057  0.20893085  0.83591875  1
  H+  H278  1  0.12805344  0.52390998  -0.01041192  1
  H+  H279  1  0.83594107  0.84193687  1.03177036  1
  H+  H280  1  0.87996848  1.02422664  0.32122303  1
  H+  H281  1  0.36033132  0.46037790  0.67398096  1
  H+  H282  1  0.87057601  0.64796363  0.49089205  1
  H+  H283  1  0.41318628  0.89492686  0.70595997  1
  H+  H284  1  0.39167377  0.92178856  0.32830437  1
  H+  H285  1  0.39089846  0.62190263  0.32937881  1
  H+  H286  1  0.60271331  0.50771208  0.17867175  1
  H+  H287  1  0.46637023  0.63046540  0.17837739  1
  H+  H288  1  0.12257015  0.26199757  0.84297404  1
  H+  H289  1  0.61379732  0.16921033  0.06610541  1
  H+  H290  1  0.13541855  0.59979009  0.64738214  1
  H+  H291  1  0.83700159  0.91910353  0.73273529  1
  H+  H292  1  0.55855711  0.40070857  0.67103535  1
  H+  H293  1  0.34371980  0.43048021  0.10183597  1
  H+  H294  1  0.18023051  0.08895795  0.26653025  1
  H+  H295  1  0.17109052  0.58113293  0.55425060  1
  H+  H296  1  0.91459361  0.32382100  0.56123025  1
  H+  H297  1  0.10784908  0.68207204  0.74292522  1
  H+  H298  1  0.83817929  0.67737115  0.43190361  1
  H+  H299  1  0.80072155  0.40889895  0.03912659  1
  H+  H300  1  0.59594338  0.66751276  0.72152576  1
  H+  H301  1  0.67616855  0.08934621  0.55534974  1
  H+  H302  1  0.08556270  0.39451477  0.43589485  1
  H+  H303  1  0.07795720  0.18302520  0.09074958  1
  H+  H304  1  0.82441568  0.17874630  0.76891569  1
  H+  H305  1  0.56804535  0.69021397  0.11337496  1
  H+  H306  1  0.66366698  0.32910335  0.26869126  1
  H+  H307  1  0.71654738  0.36123153  0.97022587  1
  H+  H308  1  0.91336521  0.83312615  0.56590111  1
  H+  H309  1  0.84756960  0.67800340  0.72372817  1
  H+  H310  1  0.34304193  0.18089409  0.39665375  1
  H+  H311  1  0.61083474  0.20656659  0.70094409  1
  H+  H312  1  0.15282594  0.33913369  0.23048378  1
  H+  H313  1  0.16311040  0.58272753  0.24188939  1
  H+  H314  1  0.93088950  0.34909656  0.89833458  1
  H+  H315  1  0.89869054  0.32618542  0.27753906  1
  H+  H316  1  0.07070036  0.76477005  0.88237155  1
  H+  H317  1  0.44815481  0.08804098  0.90260371  1
  H+  H318  1  0.07666359  0.16130796  0.43587235  1
  H+  H319  1  0.93149390  0.83775505  0.24057870  1
  H+  H320  1  0.57572904  0.65822795  0.40863811  1
  H+  H321  1  0.07694809  0.91339612  0.73310349  1
  H+  H322  1  0.53103710  0.91843991  0.77648929  1
  H+  H323  1  0.59167147  0.17679060  0.40557043  1
  H+  H324  1  0.15340819  0.33860972  0.93381781  1
  H+  H325  1  0.38787334  0.52958284  0.17126641  1
  H+  H326  1  0.08187319  0.41483123  0.72277933  1
  H+  H327  1  0.18186094  0.85741071  0.57143012  1
  H+  H328  1  0.66906933  0.09557458  0.92446894  1
  H+  H329  1  0.36423307  0.22411176  0.16372385  1
  H+  H330  1  0.66220449  0.58201382  0.57218146  1
  H+  H331  1  0.61416186  0.91610221  0.39321407  1
  H+  H332  1  0.31898507  0.40371809  0.76901107  1
  H+  H333  1  0.26564504  0.46187759  0.91811571  1
  H+  H334  1  0.43868148  0.33993483  0.61049235  1
  H+  H335  1  0.32389452  0.41099548  0.40430772  1
  H+  H336  1  0.17547630  0.58441529  0.93364735  1
  H+  H337  1  0.64283912  0.57183618  0.27428579  1
  H+  H338  1  0.69526919  0.49582925  0.81929739  1
  H+  H339  1  0.35339575  0.17296126  0.73682034  1
  H+  H340  1  0.02585571  0.56034686  0.05295338  1
  H+  H341  1  0.85815372  0.42702323  0.11931772  1
  H+  H342  1  0.82781752  0.17884625  0.09607345  1
  H+  H343  1  0.97917706  0.12445032  0.83224851  1
  H+  H344  1  0.63264881  0.94379981  0.72058705  1
  H+  H345  1  0.07273204  0.38107067  0.00020338  1
  H+  H346  1  0.56995988  0.63741894  0.82128636  1
  H+  H347  1  0.26954655  0.37845569  0.50234588  1
  H+  H348  1  0.38458367  0.57054011  0.95055127  1
  H+  H349  1  0.75193324  0.89642974  0.17301201  1
  H+  H350  1  0.41934695  0.34042502  0.23560581  1
  H+  H351  1  0.84974671  0.66907667  0.07617032  1
  H+  H352  1  0.05913490  0.42015820  0.10312341  1
  H+  H353  1  0.32269504  0.66047868  0.10669735  1
  H+  H354  1  0.62535570  0.51418078  0.33452365  1
  H+  H355  1  0.34553917  0.92170737  0.06860487  1
  H+  H356  1  0.94196997  0.59943429  0.88536418  1
  H+  H357  1  0.39867653  0.77954148  0.58451735  1
  H+  H358  1  0.39095089  0.32486148  0.93632330  1
  H+  H359  1  0.70989652  0.54139533  0.94801336  1
  H+  H360  1  0.09008487  0.67708314  0.41218026  1
  H+  H361  1  0.44325418  0.11005711  0.22605363  1
  H+  H362  1  0.32468396  0.16249795  0.06549750  1
  H+  H363  1  0.11861851  0.94018693  0.43629432  1
  H+  H364  1  0.93233828  0.12138969  0.91930806  1
  H+  H365  1  0.16326803  0.07759516  0.89890972  1
  H+  H366  1  0.18222267  0.83486422  0.27638751  1
  H+  H367  1  0.11103818  0.13320589  0.33947882  1
  H+  H368  1  0.12593495  0.65188581  0.51414642  1
  H+  H369  1  0.92282560  0.58431671  0.28116201  1
  H+  H370  1  0.90675449  0.08021872  0.22485281  1
  H+  H371  1  0.06244803  0.04215466  0.61973632  1
  H+  H372  1  0.83184451  0.91791675  0.43485763  1
  H+  H373  1  0.66457083  0.83953943  0.93989622  1
  H+  H374  1  0.42639477  0.81395606  0.60723460  1
  H+  H375  1  0.41694557  0.57755993  0.56395805  1
  H+  H376  1  0.16200180  0.32967698  0.57866192  1
  H+  H377  1  0.90799748  0.58286881  0.56425030  1
  H+  H378  1  0.64775569  0.13026948  0.64342946  1
  H+  H379  1  0.91410328  0.08923549  0.60562388  1
  H+  H380  1  0.41942414  0.83225598  0.94743300  1
  H+  H381  1  0.08648424  0.91822292  0.07086891  1
  H+  H382  1  0.81667242  0.41417081  0.43965578  1
  H+  H383  1  0.64104135  0.31941129  0.88561522  1
  O2-  O384  1  0.06555995  0.18172928  0.13624303  1
  O2-  O385  1  0.08110350  0.15969655  0.48093814  1
  O2-  O386  1  0.08208542  0.16534757  0.81274913  1
  O2-  O387  1  0.06531246  0.42489792  0.14791583  1
  O2-  O388  1  0.07846428  0.39642987  0.47946629  1
  O2-  O389  1  0.08396657  0.41329456  0.80672027  1
  O2-  O390  1  0.09065223  0.67139400  0.15719127  1
  O2-  O391  1  0.08867698  0.68050783  0.52250449  1
  O2-  O392  1  0.12208928  0.68645150  0.78678251  1
  O2-  O393  1  0.09452246  0.90805287  0.16088020  1
  O2-  O394  1  0.11313833  0.93841900  0.48221328  1
  O2-  O395  1  0.07456209  0.91380806  0.80983994  1
  O2-  O396  1  0.33811886  0.16395865  0.14911158  1
  O2-  O397  1  0.34306895  0.17361252  0.47320354  1
  O2-  O398  1  0.34039996  0.15175846  0.81830179  1
  O2-  O399  1  0.36788359  0.44862071  0.14346521  1
  O2-  O400  1  0.32847050  0.40625535  0.48252546  1
  O2-  O401  1  0.31242085  0.40041133  0.81452649  1
  O2-  O402  1  0.32303449  0.65434940  0.15273716  1
  O2-  O403  1  0.34311624  0.66652459  0.47372954  1
  O2-  O404  1  0.29500487  0.70866007  0.78519087  1
  O2-  O405  1  0.31739685  0.86307339  0.14415647  1
  O2-  O406  1  0.34216948  0.92338793  0.47664385  1
  O2-  O407  1  0.33844290  0.92940112  0.81427237  1
  O2-  O408  1  0.60840597  0.17608201  0.14269553  1
  O2-  O409  1  0.60029037  0.18511260  0.48622959  1
  O2-  O410  1  0.60931537  0.14910699  0.81946738  1
  O2-  O411  1  0.61353684  0.41926228  0.14229762  1
  O2-  O412  1  0.58941646  0.42061957  0.48516932  1
  O2-  O413  1  0.52625342  0.36290020  0.80263079  1
  O2-  O414  1  0.56777830  0.69338825  0.15881103  1
  O2-  O415  1  0.58075350  0.66154745  0.47875154  1
  O2-  O416  1  0.62511277  0.67764139  0.80188993  1
  O2-  O417  1  0.59627566  0.96181872  0.14802846  1
  O2-  O418  1  0.60879654  0.92394893  0.47166287  1
  O2-  O419  1  0.57510450  0.93084401  0.80859706  1
  O2-  O420  1  0.82198369  0.17622722  0.14102961  1
  O2-  O421  1  0.83722400  0.16090684  0.47981653  1
  O2-  O422  1  0.81953479  0.17757734  0.81466346  1
  O2-  O423  1  0.84444327  0.42313911  0.16246377  1
  O2-  O424  1  0.81873270  0.42178170  0.48603384  1
  O2-  O425  1  0.85962150  0.44954867  0.79883485  1
  O2-  O426  1  0.86748231  0.67721028  0.15741034  1
  O2-  O427  1  0.84605328  0.68406298  0.47675967  1
  O2-  O428  1  0.85874306  0.67985831  0.80276093  1
  O2-  O429  1  0.81156184  0.91387939  0.15540699  1
  O2-  O430  1  0.83477202  0.91318710  0.48000895  1
  O2-  O431  1  0.83907308  0.92875788  0.81257243  1
  O2-  O432  1  0.18474233  0.07272427  0.18688957  1
  O2-  O433  1  0.17486461  0.09266052  0.51787239  1
  O2-  O434  1  0.16438083  0.07992246  0.85357150  1
  O2-  O435  1  0.14599161  0.34826234  0.18681088  1
  O2-  O436  1  0.17099980  0.33185466  0.53094926  1
  O2-  O437  1  0.15065739  0.32316342  0.85807822  1
  O2-  O438  1  0.16554448  0.58401636  0.19620688  1
  O2-  O439  1  0.17343999  0.60268904  0.51228555  1
  O2-  O440  1  0.20074871  0.56774466  0.86324859  1
  O2-  O441  1  0.17509454  0.83201644  0.20000456  1
  O2-  O442  1  0.17655143  0.85255979  0.52527088  1
  O2-  O443  1  0.12344429  0.80791452  0.86284884  1
  O2-  O444  1  0.43865093  0.10621766  0.18140291  1
  O2-  O445  1  0.42888017  0.09213616  0.51640215  1
  O2-  O446  1  0.44745933  0.08814505  0.85583929  1
  O2-  O447  1  0.41714526  0.33554899  0.18990470  1
  O2-  O448  1  0.41892803  0.32993179  0.52481852  1
  O2-  O449  1  0.38533338  0.31085167  0.86351238  1
  O2-  O450  1  0.40509230  0.58994960  0.19103752  1
  O2-  O451  1  0.42087982  0.58015259  0.51838730  1
  O2-  O452  1  0.30793891  0.50969871  0.89356166  1
  O2-  O453  1  0.44514230  0.88296916  0.21080833  1
  O2-  O454  1  0.43402408  0.84138420  0.46940572  1
  O2-  O455  1  0.41274395  0.83280264  0.86898350  1
  O2-  O456  1  0.64582053  0.12905596  0.17447539  1
  O2-  O457  1  0.67347055  0.08702216  0.50988715  1
  O2-  O458  1  0.64890354  0.10281883  0.84802519  1
  O2-  O459  1  0.66402039  0.32166242  0.19040751  1
  O2-  O460  1  0.67482002  0.34456628  0.53911085  1
  O2-  O461  1  0.63898784  0.31919223  0.84049372  1
  O2-  O462  1  0.61985193  0.56630129  0.19387946  1
  O2-  O463  1  0.65419451  0.57747398  0.52325412  1
  O2-  O464  1  0.68876557  0.53488635  0.79168496  1
  O2-  O465  1  0.66003186  0.86743088  0.19886227  1
  O2-  O466  1  0.66955270  0.82531953  0.51556075  1
  O2-  O467  1  0.66976172  0.84402496  0.85536183  1
  O2-  O468  1  0.90043271  0.07682770  0.17923253  1
  O2-  O469  1  0.91777472  0.08470006  0.52607750  1
  O2-  O470  1  0.91886220  0.09985109  0.84846039  1
  O2-  O471  1  0.90696834  0.32821085  0.19818414  1
  O2-  O472  1  0.91364221  0.31729931  0.51636307  1
  O2-  O473  1  0.92283215  0.34630875  0.85390700  1
  O2-  O474  1  0.93143169  0.58761049  0.20202562  1
  O2-  O475  1  0.90913682  0.58214828  0.51772600  1
  O2-  O476  1  0.95169010  0.60698609  0.84099934  1
  O2-  O477  1  0.94731000  0.83848417  0.19639235  1
  O2-  O478  1  0.90947771  0.83095222  0.51921228  1
  O2-  O479  1  0.91248499  0.83853223  0.85940588  1
  O2-  O480  1  0.18006516  0.09173364  0.31174368  1
  O2-  O481  1  0.12037751  0.07257250  0.63661546  1
  O2-  O482  1  0.15934568  0.07642955  0.98061038  1
  O2-  O483  1  0.15966498  0.32330312  0.31242270  1
  O2-  O484  1  0.14976510  0.32775352  0.64573621  1
  O2-  O485  1  0.15373603  0.35111894  0.97853864  1
  O2-  O486  1  0.16283988  0.58660735  0.32024639  1
  O2-  O487  1  0.16449816  0.56791481  0.63526977  1
  O2-  O488  1  0.16486574  0.58508858  0.97866325  1
  O2-  O489  1  0.18796581  0.83708897  0.32202216  1
  O2-  O490  1  0.17902252  0.84929243  0.64532596  1
  O2-  O491  1  0.19403377  0.86251265  0.98173640  1
  O2-  O492  1  0.43553328  0.11377436  0.31053116  1
  O2-  O493  1  0.42521828  0.08483017  0.64204232  1
  O2-  O494  1  0.45454282  0.08868037  0.97292892  1
  O2-  O495  1  0.42204776  0.34747596  0.31286035  1
  O2-  O496  1  0.44762769  0.34647605  0.65497492  1
  O2-  O497  1  0.39229882  0.33106298  0.98230691  1
  O2-  O498  1  0.42161129  0.59027264  0.31747303  1
  O2-  O499  1  0.41426346  0.56907080  0.64210872  1
  O2-  O500  1  0.40493715  0.58754451  0.99316089  1
  O2-  O501  1  0.36710879  0.74544949  0.30672929  1
  O2-  O502  1  0.45137454  0.87092480  0.71903053  1
  O2-  O503  1  0.42428450  0.83673804  0.99270701  1
  O2-  O504  1  0.67885795  0.08995526  0.31811211  1
  O2-  O505  1  0.67972914  0.09956607  0.63295524  1
  O2-  O506  1  0.69394816  0.07658604  0.95794340  1
  O2-  O507  1  0.66217783  0.33420480  0.31411272  1
  O2-  O508  1  0.67994798  0.34482548  0.60788662  1
  O2-  O509  1  0.65455339  0.32268515  0.96424988  1
  O2-  O510  1  0.65169813  0.57578246  0.31905814  1
  O2-  O511  1  0.67524293  0.58783032  0.63490779  1
  O2-  O512  1  0.68260117  0.56152910  0.97699716  1
  O2-  O513  1  0.65034336  0.86697024  0.32780370  1
  O2-  O514  1  0.67441077  0.82810655  0.63888575  1
  O2-  O515  1  0.66016317  0.83921359  0.98497733  1
  O2-  O516  1  0.91403796  0.08210030  0.30241699  1
  O2-  O517  1  0.91319991  0.09015793  0.65107974  1
  O2-  O518  1  0.93776883  0.13078680  0.96539651  1
  O2-  O519  1  0.90316479  0.32989158  0.32276582  1
  O2-  O520  1  0.91630218  0.33803884  0.64196235  1
  O2-  O521  1  0.95465474  0.36257483  0.98483111  1
  O2-  O522  1  0.91510421  0.58401238  0.32614749  1
  O2-  O523  1  0.91892538  0.58701979  0.63647395  1
  O2-  O524  1  0.91333542  0.58466499  0.97025075  1
  O2-  O525  1  0.88599956  0.82065681  0.30952202  1
  O2-  O526  1  0.91970536  0.83791025  0.63776645  1
  O2-  O527  1  0.91294749  0.83389075  0.98684300  1
  O2-  O528  1  0.09388825  0.18615073  0.01833845  1
  O2-  O529  1  0.07582117  0.15804457  0.35387435  1
  O2-  O530  1  0.08394244  0.18007054  0.69222842  1
  O2-  O531  1  0.04173551  0.41100511  0.01555673  1
  O2-  O532  1  0.07266018  0.41330788  0.32631456  1
  O2-  O533  1  0.08107743  0.41384963  0.67774455  1
  O2-  O534  1  0.05556688  0.61931967  0.03787771  1
  O2-  O535  1  0.08652779  0.67456645  0.36780431  1
  O2-  O536  1  0.08966658  0.67429236  0.65847449  1
  O2-  O537  1  0.07942672  0.91764554  0.02655531  1
  O2-  O538  1  0.12647283  0.94272292  0.36177138  1
  O2-  O539  1  0.08053974  0.91548340  0.68730361  1
  O2-  O540  1  0.31503048  0.16173178  0.02129701  1
  O2-  O541  1  0.34171218  0.18342335  0.35088975  1
  O2-  O542  1  0.35950933  0.18523147  0.69251927  1
  O2-  O543  1  0.31510836  0.41553845  0.02448227  1
  O2-  O544  1  0.32434490  0.41365362  0.35851982  1
  O2-  O545  1  0.33089211  0.40203967  0.69177529  1
  O2-  O546  1  0.32643642  0.67347309  0.03344114  1
  O2-  O547  1  0.33213848  0.66892845  0.34667355  1
  O2-  O548  1  0.32013233  0.64670709  0.67785017  1
  O2-  O549  1  0.35169755  0.92677342  0.02403776  1
  O2-  O550  1  0.34705635  0.87979166  0.35496241  1
  O2-  O551  1  0.34139268  0.92593819  0.69489490  1
  O2-  O552  1  0.61690525  0.16537570  0.02059163  1
  O2-  O553  1  0.58763527  0.17130624  0.36028283  1
  O2-  O554  1  0.60174475  0.19210953  0.65782118  1
  O2-  O555  1  0.56343899  0.39322889  0.01897623  1
  O2-  O556  1  0.58309600  0.41683845  0.36049435  1
  O2-  O557  1  0.62299630  0.43607539  0.67347248  1
  O2-  O558  1  0.56314171  0.67761894  0.03451569  1
  O2-  O559  1  0.57465784  0.65519203  0.36144759  1
  O2-  O560  1  0.58828075  0.66264904  0.67681136  1
  O2-  O561  1  0.59452620  0.94265725  0.01901918  1
  O2-  O562  1  0.60706469  0.91422319  0.34771301  1
  O2-  O563  1  0.61293185  0.93209881  0.67819705  1
  O2-  O564  1  0.83678714  0.18706846  0.01317217  1
  O2-  O565  1  0.83715424  0.16862205  0.35611167  1
  O2-  O566  1  0.83309642  0.17620293  0.69268772  1
  O2-  O567  1  0.83325761  0.41866956  0.00166718  1
  O2-  O568  1  0.82514713  0.41387797  0.36758545  1
  O2-  O569  1  0.83610940  0.42476159  0.66824535  1
  O2-  O570  1  0.84350906  0.66822632  0.03125974  1
  O2-  O571  1  0.82256419  0.66297903  0.35172563  1
  O2-  O572  1  0.84286301  0.67567146  0.67834136  1
  O2-  O573  1  0.78608641  0.83426582  0.05683872  1
  O2-  O574  1  0.81559245  0.92234450  0.35638782  1
  O2-  O575  1  0.83454640  0.91781358  0.68727403  1
