# generated using pymatgen
data_H2O
_symmetry_space_group_name_H-M   'P 1'
_cell_length_a   17.97789335
_cell_length_b   17.98778630
_cell_length_c   22.00147248
_cell_angle_alpha   89.99983452
_cell_angle_beta   90.01386754
_cell_angle_gamma   119.98405193
_symmetry_Int_Tables_number   1
_chemical_formula_structural   H2O
_chemical_formula_sum   'H384 O192'
_cell_volume   6162.66629892
_cell_formula_units_Z   192
loop_
 _symmetry_equiv_pos_site_id
 _symmetry_equiv_pos_as_xyz
  1  'x, y, z'
loop_
 _atom_type_symbol
 _atom_type_oxidation_number
  H+  1.0
  O2-  -2.0
loop_
 _atom_site_type_symbol
 _atom_site_label
 _atom_site_symmetry_multiplicity
 _atom_site_fract_x
 _atom_site_fract_y
 _atom_site_fract_z
 _atom_site_occupancy
  H+  H0  1  0.58702706  0.41694173  0.40071927  1
  H+  H1  1  0.15159949  0.08027454  0.57963924  1
  H+  H2  1  0.76934696  0.64572669  0.82229116  1
  H+  H3  1  0.14093255  0.26894541  0.65866016  1
  H+  H4  1  0.86725296  -0.01291454  0.67720651  1
  H+  H5  1  0.38629646  0.38702253  0.66968346  1
  H+  H6  1  0.36488268  0.89176895  1.01760469  1
  H+  H7  1  0.61625017  0.62350487  0.50343371  1
  H+  H8  1  0.03776745  0.90690463  0.16361908  1
  H+  H9  1  0.61053171  0.22074710  0.99551702  1
  H+  H10  1  0.15292427  0.83251887  0.56927742  1
  H+  H11  1  0.86842541  0.86234437  0.34280616  1
  H+  H12  1  0.89122594  0.87249244  0.66565393  1
  H+  H13  1  0.83468979  0.62459193  0.64739114  1
  H+  H14  1  0.98223813  0.85968390  0.98990558  1
  H+  H15  1  0.13921886  0.02215580  0.33125553  1
  H+  H16  1  0.53260773  0.39195825  0.15737466  1
  H+  H17  1  -0.02137370  0.87103095  0.66859633  1
  H+  H18  1  0.52420312  0.39372470  0.48929354  1
  H+  H19  1  0.09839875  0.68389184  0.14324346  1
  H+  H20  1  0.08817188  0.16545881  0.43578858  1
  H+  H21  1  0.23792087  0.85613390  0.33610760  1
  H+  H22  1  0.39018666  0.27185515  0.98472389  1
  H+  H23  1  0.35698042  0.71943838  0.51612341  1
  H+  H24  1  0.38775230  0.52016686  0.51266539  1
  H+  H25  1  0.86506770  0.73623058  0.50525985  1
  H+  H26  1  0.71757738  0.37013236  0.50385764  1
  H+  H27  1  0.37890703  0.97563909  0.49389922  1
  H+  H28  1  0.62306565  0.98780094  0.00676546  1
  H+  H29  1  0.36528280  0.49141185  0.82515682  1
  H+  H30  1  0.86179149  0.45241355  0.15611695  1
  H+  H31  1  0.28209893  0.14650961  0.17246373  1
  H+  H32  1  0.15961923  0.25597081  0.84179450  1
  H+  H33  1  0.39834970  0.06862488  0.25012982  1
  H+  H34  1  0.85463141  0.39798904  0.48877344  1
  H+  H35  1  0.92454466  0.08699273  0.60286272  1
  H+  H36  1  0.34257990  0.41524184  0.05551936  1
  H+  H37  1  0.64748470  0.01560906  0.49680961  1
  H+  H38  1  0.89045595  0.09452379  0.50080982  1
  H+  H39  1  0.90765656  0.15868240  0.33010429  1
  H+  H40  1  0.99131737  0.36774889  0.17705529  1
  H+  H41  1  0.36561244  1.14198911  -0.00714353  1
  H+  H42  1  0.90373310  0.88067037  0.18559519  1
  H+  H43  1  0.37994679  0.88395105  0.32746832  1
  H+  H44  1  0.12205636  0.60693032  0.51235147  1
  H+  H45  1  0.13592659  0.85773016  0.99336916  1
  H+  H46  1  0.64593149  0.52506389  0.83459158  1
  H+  H47  1  0.38261024  1.02465314  -0.02193070  1
  H+  H48  1  0.27545273  0.14539394  0.53690071  1
  H+  H49  1  0.00976082  0.63199187  0.49680301  1
  H+  H50  1  0.35218835  0.20648501  0.70059902  1
  H+  H51  1  0.52112639  0.62539519  0.35133631  1
  H+  H52  1  0.63387491  0.36071871  0.32470217  1
  H+  H53  1  0.01110602  0.59951669  0.15572409  1
  H+  H54  1  0.39409366  0.28881869  0.31196493  1
  H+  H55  1  0.36946913  0.47145070  0.15562639  1
  H+  H56  1  0.87908420  0.28351763  0.48899231  1
  H+  H57  1  0.86763071  0.14149593  0.15374104  1
  H+  H58  1  0.39372077  0.85815044  0.50803591  1
  H+  H59  1  0.90138957  0.27459915  0.35349063  1
  H+  H60  1  0.77170916  0.12510811  0.49731538  1
  H+  H61  1  1.02460857  0.38990648  0.48405993  1
  H+  H62  1  0.03013263  0.14751745  0.34125957  1
  H+  H63  1  0.28130787  0.38507352  0.33743891  1
  H+  H64  1  0.11281796  0.97626860  0.50101779  1
  H+  H65  1  0.58718602  0.42069350  0.05987894  1
  H+  H66  1  0.14893323  1.00790753  0.84396110  1
  H+  H67  1  0.39177957  0.03498738  0.16043083  1
  H+  H68  1  0.72925965  0.35832083  0.64683318  1
  H+  H69  1  0.13669932  0.36078038  0.50832919  1
  H+  H70  1  0.13319892  0.10899005  0.32876093  1
  H+  H71  1  0.86440507  0.88123421  0.82853650  1
  H+  H72  1  0.86175536  0.08757616  0.85304553  1
  H+  H73  1  0.12497253  0.46690292  0.16332570  1
  H+  H74  1  0.27689708  0.63555423  0.66997643  1
  H+  H75  1  0.97481372  0.44290035  0.31594592  1
  H+  H76  1  0.64046864  0.76967632  0.17590772  1
  H+  H77  1  0.21131638  0.11614216  0.67613287  1
  H+  H78  1  0.88203725  0.58560564  0.17808795  1
  H+  H79  1  0.33343870  0.41927653  0.43477022  1
  H+  H80  1  0.87225206  0.09617112  0.99476226  1
  H+  H81  1  0.61458620  0.14001899  0.16719065  1
  H+  H82  1  0.23247700  0.35606968  0.84472901  1
  H+  H83  1  0.85031935  -0.03836979  0.49374258  1
  H+  H84  1  0.71909961  0.09834572  0.65839686  1
  H+  H85  1  0.06517145  0.39802757  0.65634356  1
  H+  H86  1  0.13636876  0.78203146  0.66298776  1
  H+  H87  1  0.64412525  0.36015890  0.83575297  1
  H+  H88  1  0.72546066  0.61330390  0.98640050  1
  H+  H89  1  0.41725663  0.73671174  0.39573568  1
  H+  H90  1  0.11521671  0.72209660  0.34292057  1
  H+  H91  1  0.36283807  0.14364391  0.53146961  1
  H+  H92  1  0.61481118  0.47894380  0.99999897  1
  H+  H93  1  0.07529449  0.66034391  0.44054407  1
  H+  H94  1  0.87173609  0.20962054  -0.00681314  1
  H+  H95  1  0.55607024  0.41412746  0.67028790  1
  H+  H96  1  0.06727348  0.20444858  0.72433593  1
  H+  H97  1  0.38733984  0.51311979  0.32865189  1
  H+  H98  1  0.74112364  0.12596324  0.16463434  1
  H+  H99  1  0.97962864  0.62056228  0.82811256  1
  H+  H100  1  0.12453844  0.22816840  0.33962294  1
  H+  H101  1  0.23689560  0.61964506  0.33384487  1
  H+  H102  1  0.72496602  0.85059554  0.50985054  1
  H+  H103  1  0.97729197  0.62658946  0.65327420  1
  H+  H104  1  0.39228361  0.61187456  -0.00801873  1
  H+  H105  1  0.48668233  0.37339310  0.32666118  1
  H+  H106  1  0.94019985  0.84900546  0.24087215  1
  H+  H107  1  0.62822217  0.75731854  0.33665439  1
  H+  H108  1  0.77032727  0.38230317  0.00435333  1
  H+  H109  1  0.10760677  0.88370492  0.49873332  1
  H+  H110  1  0.95343216  0.27355803  0.62892210  1
  H+  H111  1  0.63656703  0.61399066  -0.01060396  1
  H+  H112  1  0.33469336  0.65805682  0.76298483  1
  H+  H113  1  0.24819872  0.08443152  0.85040756  1
  H+  H114  1  0.86893708  0.36436531  0.83145977  1
  H+  H115  1  0.61623044  0.22352293  0.66700760  1
  H+  H116  1  0.48338406  0.87346454  1.02628828  1
  H+  H117  1  0.62062906  0.09613984  0.31723005  1
  H+  H118  1  0.86655512  0.18071162  0.52836665  1
  H+  H119  1  0.83145484  0.39985479  0.09382281  1
  H+  H120  1  0.91951496  0.83344552  0.93105687  1
  H+  H121  1  0.57706303  0.92804413  0.20930013  1
  H+  H122  1  0.63207028  0.39537970  0.67427179  1
  H+  H123  1  0.63512835  0.10781765  0.65493288  1
  H+  H124  1  0.12637020  0.12589275  0.67318137  1
  H+  H125  1  0.86069908  0.65229310  0.81927638  1
  H+  H126  1  -0.03728817  0.09186380  -0.00448884  1
  H+  H127  1  0.48178340  0.11159355  0.66125367  1
  H+  H128  1  0.62064084  0.48097284  0.15904296  1
  H+  H129  1  0.39072150  0.19507760  0.83835809  1
  H+  H130  1  0.82841715  0.45281826  0.75063831  1
  H+  H131  1  0.86912954  0.72634713  -0.00523792  1
  H+  H132  1  0.61537468  0.63658123  0.16109780  1
  H+  H133  1  0.65291117  0.86961150  0.99994989  1
  H+  H134  1  0.88529592  0.06357116  0.33632993  1
  H+  H135  1  0.72075518  0.84030452  0.33279783  1
  H+  H136  1  0.61636045  0.88529084  0.66812976  1
  H+  H137  1  0.11088011  -0.01639641  0.68286407  1
  H+  H138  1  0.11399238  0.64362609  0.67265808  1
  H+  H139  1  0.01398423  0.62641719  -0.01000220  1
  H+  H140  1  -0.00481999  0.86484177  0.33866669  1
  H+  H141  1  0.22722779  0.86869898  0.66021201  1
  H+  H142  1  0.77186558  0.13118505  -0.00300427  1
  H+  H143  1  0.09758783  0.32283250  0.80945216  1
  H+  H144  1  0.88481353  0.51132176  0.33114275  1
  H+  H145  1  0.06475900  0.50875348  0.82809957  1
  H+  H146  1  0.38657900  0.27794283  0.51998972  1
  H+  H147  1  0.98208229  0.10267640  0.50564863  1
  H+  H148  1  0.78125923  0.89024082  0.17587532  1
  H+  H149  1  0.37021283  0.96614500  0.33392216  1
  H+  H150  1  0.37800175  0.24341268  0.17129977  1
  H+  H151  1  0.48673080  0.12251559  0.17291280  1
  H+  H152  1  0.31563648  0.02557669  0.29145919  1
  H+  H153  1  0.11877194  0.76826091  0.51276319  1
  H+  H154  1  0.66798423  0.58501901  0.89174030  1
  H+  H155  1  0.11948883  0.13770330  0.15920223  1
  H+  H156  1  0.40779948  0.08388842  0.91724963  1
  H+  H157  1  0.38889973  0.32382553  0.83286578  1
  H+  H158  1  0.25827041  0.65402395  0.84179706  1
  H+  H159  1  0.52279758  0.13262955  -0.01232272  1
  H+  H160  1  0.87533171  0.24315357  0.83538135  1
  H+  H161  1  0.08608564  0.20120358  0.00135765  1
  H+  H162  1  0.36720891  -0.02610168  0.66804514  1
  H+  H163  1  0.39852175  0.52161011  0.66613528  1
  H+  H164  1  0.24666094  0.89377385  0.17353344  1
  H+  H165  1  0.12577731  0.89040575  0.35247409  1
  H+  H166  1  0.73097680  0.86692696  0.66349959  1
  H+  H167  1  0.27085865  0.38612454  0.49316745  1
  H+  H168  1  0.64521926  0.36891210  0.16821455  1
  H+  H169  1  0.77635433  0.64609111  0.50284222  1
  H+  H170  1  0.38774665  0.60158526  0.32446795  1
  H+  H171  1  0.52431235  0.88318179  0.48886069  1
  H+  H172  1  0.13809366  0.61303589  0.99127253  1
  H+  H173  1  0.85891709  0.46944994  0.00276444  1
  H+  H174  1  0.45316107  0.85185536  0.14482490  1
  H+  H175  1  0.88405907  0.60951858  -0.02017046  1
  H+  H176  1  0.47140311  0.87085094  0.80738564  1
  H+  H177  1  0.13415439  0.11122545  0.51586467  1
  H+  H178  1  0.11317862  0.22430908  0.49531285  1
  H+  H179  1  0.58786559  0.92170903  0.75730290  1
  H+  H180  1  0.84572516  0.19679240  0.69502152  1
  H+  H181  1  0.27447673  0.62468457  0.16412049  1
  H+  H182  1  0.85468927  0.85018881  1.02492120  1
  H+  H183  1  0.58499779  0.16679207  0.72832427  1
  H+  H184  1  0.64251590  0.77726342  0.99423554  1
  H+  H185  1  -0.03054550  0.31646015  0.81961116  1
  H+  H186  1  0.36224659  0.88224379  0.67170842  1
  H+  H187  1  0.83353290  0.66080781  0.27492070  1
  H+  H188  1  0.65268406  0.03680389  0.16559190  1
  H+  H189  1  0.88220388  0.38700027  0.69935049  1
  H+  H190  1  0.51208378  0.14138086  0.81723310  1
  H+  H191  1  0.86309042  0.12007161  0.67502301  1
  H+  H192  1  0.87529143  0.53370919  0.50207841  1
  H+  H193  1  0.14966794  0.39407853  0.66515598  1
  H+  H194  1  0.88614700  0.56040092  0.79883587  1
  H+  H195  1  0.69815575  0.59018428  0.60571725  1
  H+  H196  1  0.66338526  0.33310073  0.59171592  1
  H+  H197  1  0.15329328  0.36329792  0.32468709  1
  H+  H198  1  0.75142955  0.11607373  0.83270528  1
  H+  H199  1  0.88062225  0.77353840  0.83578125  1
  H+  H200  1  0.62266514  0.11073184  0.83577869  1
  H+  H201  1  0.52678113  0.63618797  0.15913402  1
  H+  H202  1  0.60615820  0.88931801  0.82015563  1
  H+  H203  1  0.72928150  0.35768692  0.16810027  1
  H+  H204  1  0.35669314  0.99102543  0.81726732  1
  H+  H205  1  0.47689074  0.85922718  0.66173602  1
  H+  H206  1  0.52521067  0.63564223  0.00266655  1
  H+  H207  1  0.33482849  0.13532406  0.74826058  1
  H+  H208  1  0.59851143  0.23397100  0.48785071  1
  H+  H209  1  0.39407172  0.36573076  0.16817603  1
  H+  H210  1  0.05144153  0.39787399  0.34029279  1
  H+  H211  1  0.35856403  0.89345566  0.14756696  1
  H+  H212  1  0.52744882  0.65022231  0.68655711  1
  H+  H213  1  0.15211985  1.03695592  0.17122290  1
  H+  H214  1  0.17219419  0.33065914  0.56553073  1
  H+  H215  1  0.39706399  0.61614990  0.83862808  1
  H+  H216  1  0.24166372  0.35295161  0.65478105  1
  H+  H217  1  0.23058603  0.87319043  0.83634914  1
  H+  H218  1  0.61099706  0.97227791  0.66489172  1
  H+  H219  1  0.62244064  0.02086936  0.83419104  1
  H+  H220  1  0.39555859  0.78289456  0.02700977  1
  H+  H221  1  0.60878487  0.96801121  0.32555469  1
  H+  H222  1  0.44049919  0.29640070  0.63546045  1
  H+  H223  1  1.02923940  0.13676127  0.16095063  1
  H+  H224  1  0.37264921  0.73282717  0.81016334  1
  H+  H225  1  0.14718353  0.35813324  0.17017892  1
  H+  H226  1  0.37698509  0.14566544  0.16663771  1
  H+  H227  1  0.86950249  0.62589744  0.32419584  1
  H+  H228  1  0.63943960  0.77637489  0.66927727  1
  H+  H229  1  0.72890109  0.62528237  0.17670370  1
  H+  H230  1  0.15537745  0.81129077  0.18307963  1
  H+  H231  1  -0.02661280  0.86167820  0.83867928  1
  H+  H232  1  0.06818343  0.47412396  0.81137031  1
  H+  H233  1  0.13228431  0.76667222  0.99001821  1
  H+  H234  1  0.12400176  0.34628890  0.98998853  1
  H+  H235  1  -0.00936453  0.13200802  0.66178842  1
  H+  H236  1  0.11625080  0.73950703  0.82311813  1
  H+  H237  1  0.62957882  0.37198466  0.50607955  1
  H+  H238  1  1.00359117  0.28404857  0.95769798  1
  H+  H239  1  0.28019141  0.63970013  0.00874509  1
  H+  H240  1  0.14972934  0.53074579  0.66579139  1
  H+  H241  1  0.21297905  0.60841986  0.51937165  1
  H+  H242  1  0.63489920  0.11481168  0.98824623  1
  H+  H243  1  0.87022047  0.45268519  0.84334162  1
  H+  H244  1  0.87076301  0.00185868  0.85042169  1
  H+  H245  1  0.38645816  0.60773210  0.52154091  1
  H+  H246  1  0.27280226  0.14915878  0.31112563  1
  H+  H247  1  0.75969569  0.37784479  0.33495844  1
  H+  H248  1  0.61934828  0.88166051  0.17610505  1
  H+  H249  1  0.37058014  0.38923993  0.99468586  1
  H+  H250  1  0.85402749  0.93897287  0.32858577  1
  H+  H251  1  0.61703606  0.47607351  0.34133675  1
  H+  H252  1  0.11015760  0.88041823  0.82955528  1
  H+  H253  1  0.49136116  0.86505951  0.30747151  1
  H+  H254  1  0.13408063  0.59059727  0.17545827  1
  H+  H255  1  0.39865517  0.78019309  0.30343852  1
  H+  H256  1  0.27861201  0.14314129  1.00074204  1
  H+  H257  1  0.38934541  0.10533133  0.66397867  1
  H+  H258  1  0.87242449  0.75263048  0.15869906  1
  H+  H259  1  0.60715998  0.22465595  0.82302304  1
  H+  H260  1  0.83550028  0.90232285  0.11673372  1
  H+  H261  1  0.28158664  0.38134252  0.15595895  1
  H+  H262  1  0.66521909  0.33432346  0.26317840  1
  H+  H263  1  0.97344423  0.86359884  0.51344197  1
  H+  H264  1  0.36498491  0.63055941  0.67195364  1
  H+  H265  1  0.12346374  0.48349426  0.00558322  1
  H+  H266  1  0.15564071  0.52485155  0.33567235  1
  H+  H267  1  0.46918314  0.11649761  0.50416157  1
  H+  H268  1  0.51420386  0.13577744  0.33254062  1
  H+  H269  1  0.89716371  0.35912381  0.17506826  1
  H+  H270  1  0.63590598  0.36196771  0.98973395  1
  H+  H271  1  0.63605759  0.74650645  0.51678713  1
  H+  H272  1  0.38136952  0.86976014  0.81074011  1
  H+  H273  1  0.12883026  0.91130044  0.16379811  1
  H+  H274  1  0.60432476  0.22130010  0.33004054  1
  H+  H275  1  0.11202843  0.47709490  0.49628777  1
  H+  H276  1  0.92732773  0.41979889  0.70924416  1
  H+  H277  1  0.11706896  -0.02681480  1.00412139  1
  H+  H278  1  0.72460963  0.61095306  0.33006924  1
  H+  H279  1  0.36231416  0.15185830  0.30887239  1
  H+  H280  1  0.84992809  0.37878094  0.34058036  1
  H+  H281  1  0.86010954  0.52839577  0.70048258  1
  H+  H282  1  0.39050886  0.60755464  0.17282066  1
  H+  H283  1  0.52693969  0.63071538  0.50492901  1
  H+  H284  1  0.86559513  0.20389352  0.40609501  1
  H+  H285  1  0.15255577  0.12797057  0.82928878  1
  H+  H286  1  0.35758595  0.71768769  0.15706461  1
  H+  H287  1  0.61222846  0.22833410  0.16975679  1
  H+  H288  1  0.67298999  0.07331225  0.55749859  1
  H+  H289  1  0.28398182  0.45180083  0.78294660  1
  H+  H290  1  0.59843281  0.41709713  0.76531107  1
  H+  H291  1  0.17017504  0.07364741  0.93641023  1
  H+  H292  1  0.66209884  0.07941718  0.25831266  1
  H+  H293  1  0.27284965  0.88451734  0.00160872  1
  H+  H294  1  0.32645059  0.92515649  0.75976434  1
  H+  H295  1  0.46365999  0.82879884  0.91724689  1
  H+  H296  1  0.66531915  0.33012249  0.93119376  1
  H+  H297  1  0.09206824  0.92196295  0.41017195  1
  H+  H298  1  0.34913073  0.41198934  0.72899021  1
  H+  H299  1  0.33579966  0.65594786  0.06855357  1
  H+  H300  1  0.94667174  0.36891602  0.26350673  1
  H+  H301  1  0.63518156  0.61089456  0.33666215  1
  H+  H302  1  0.32154345  0.65385474  0.46179146  1
  H+  H303  1  0.13809589  0.30663884  0.92786541  1
  H+  H304  1  0.90876408  0.77162957  0.32691443  1
  H+  H305  1  0.92173086  0.34084974  0.54647855  1
  H+  H306  1  0.17262876  0.83682634  0.89804268  1
  H+  H307  1  0.92371244  0.09827515  0.23226134  1
  H+  H308  1  0.37460781  0.39314755  0.33989871  1
  H+  H309  1  0.90927338  0.57780742  0.91959221  1
  H+  H310  1  0.88167992  0.62740904  0.50625299  1
  H+  H311  1  0.61204415  0.87815531  0.33254788  1
  H+  H312  1  0.42980791  0.34723046  0.23068844  1
  H+  H313  1  0.06429755  0.64070066  0.05258604  1
  H+  H314  1  0.66933022  0.58678546  0.23700175  1
  H+  H315  1  0.97945360  0.60042580  0.33083641  1
  H+  H316  1  0.83820230  0.66753345  0.05348639  1
  H+  H317  1  0.32777332  0.92840481  0.09127966  1
  H+  H318  1  0.58539335  0.66565376  0.06201732  1
  H+  H319  1  0.08374980  0.91665085  0.77127662  1
  H+  H320  1  0.38532798  0.36632520  0.50188252  1
  H+  H321  1  0.94242001  0.30533481  0.91838131  1
  H+  H322  1  0.14580566  0.26889276  0.16976561  1
  H+  H323  1  0.31395282  0.10982959  0.41922622  1
  H+  H324  1  0.18648846  0.60224384  0.93568486  1
  H+  H325  1  0.08355030  0.67501633  0.73013562  1
  H+  H326  1  0.18101789  0.84353789  0.27818281  1
  H+  H327  1  0.36094882  0.91928528  0.43376086  1
  H+  H328  1  0.91785421  0.56235444  0.23717217  1
  H+  H329  1  0.16078366  0.58383097  0.60559347  1
  H+  H330  1  0.07921957  0.36272494  0.74995204  1
  H+  H331  1  0.10464820  0.42016200  0.40239927  1
  H+  H332  1  0.81739208  0.90032736  0.43538601  1
  H+  H333  1  0.89322154  0.02953137  0.17804515  1
  H+  H334  1  0.12481140  0.15839616  0.76955861  1
  H+  H335  1  0.41669657  0.83641797  0.21236935  1
  H+  H336  1  0.66491893  0.81939920  0.24011652  1
  H+  H337  1  0.44283651  0.35939019  0.58662313  1
  H+  H338  1  0.03844102  0.39080325  0.00446375  1
  H+  H339  1  0.11819744  0.89729217  0.67815300  1
  H+  H340  1  0.12557874  0.65784488  0.82522572  1
  H+  H341  1  0.53590961  0.37801826  0.82366900  1
  H+  H342  1  0.17155606  0.57570527  0.23815416  1
  H+  H343  1  0.42677958  0.58180262  0.60821223  1
  H+  H344  1  0.42583785  0.31752571  0.89722521  1
  H+  H345  1  0.57014600  0.17238471  0.42984835  1
  H+  H346  1  0.92578712  0.33938282  0.65261214  1
  H+  H347  1  0.91814655  0.83652625  0.57447683  1
  H+  H348  1  0.67156450  0.81735493  0.58022681  1
  H+  H349  1  0.80542291  0.74014100  0.11022406  1
  H+  H350  1  0.81236951  0.12698613  0.77602118  1
  H+  H351  1  0.09372496  0.41463573  0.10082691  1
  H+  H352  1  0.34636700  0.76055241  0.40096724  1
  H+  H353  1  0.42084314  0.82797527  0.56930065  1
  H+  H354  1  0.11766461  0.63465527  0.34454319  1
  H+  H355  1  0.83521526  0.92473220  0.73559657  1
  H+  H356  1  0.39256454  0.52219599  0.99013609  1
  H+  H357  1  0.77212180  0.87447782  0.82580286  1
  H+  H358  1  0.38846786  0.76985823  0.66246588  1
  H+  H359  1  0.42186019  0.57567547  0.23021014  1
  H+  H360  1  0.61448675  0.48429557  0.49323702  1
  H+  H361  1  0.66216844  0.08001896  0.93066137  1
  H+  H362  1  0.89872708  0.06118063  0.92645804  1
  H+  H363  1  0.17350288  0.08839749  0.23457181  1
  H+  H364  1  0.32175112  0.15461190  0.42363891  1
  H+  H365  1  0.76464187  0.84700260  0.03088877  1
  H+  H366  1  0.07167033  0.14944800  0.06340854  1
  H+  H367  1  0.17826562  0.33006931  0.26384557  1
  H+  H368  1  0.72803134  0.34896646  0.84144834  1
  H+  H369  1  0.60794522  0.93771771  0.06914371  1
  H+  H370  1  0.24164003  0.71685074  0.88130087  1
  H+  H371  1  0.58246790  0.69423779  0.74591497  1
  H+  H372  1  0.12953674  0.10097221  0.99188524  1
  H+  H373  1  0.81837187  0.42100221  0.43107193  1
  H+  H374  1  0.41862515  0.07705151  0.56663628  1
  H+  H375  1  0.48075158  0.36192815  0.98494076  1
  H+  H376  1  0.41890119  0.82185295  0.91876630  1
  H+  H377  1  0.78310838  0.64376419  0.69568088  1
  H+  H378  1  0.58019233  0.65636709  0.41255841  1
  H+  H379  1  0.83432897  0.16215947  0.09273768  1
  H+  H380  1  0.91526117  0.58861685  0.59474781  1
  H+  H381  1  0.57447420  0.91306141  0.42591877  1
  H+  H382  1  0.42211510  0.58120510  0.89725213  1
  H+  H383  1  0.08786730  0.91733844  0.06440741  1
  O2-  O384  1  0.08807817  0.16556677  0.14227164  1
  O2-  O385  1  0.08405800  0.16325425  0.48106368  1
  O2-  O386  1  0.12605714  0.16181691  0.81388945  1
  O2-  O387  1  0.09335932  0.40783583  0.14616595  1
  O2-  O388  1  0.08773508  0.41813613  0.47772091  1
  O2-  O389  1  0.05146872  0.31780251  0.78163390  1
  O2-  O390  1  0.06873214  0.62244781  0.13563694  1
  O2-  O391  1  0.07274422  0.65770669  0.48542445  1
  O2-  O392  1  0.08801373  0.67849307  0.80808756  1
  O2-  O393  1  0.09669746  0.93707792  0.14496926  1
  O2-  O394  1  0.08244087  0.91905015  0.48091152  1
  O2-  O395  1  0.08114248  0.91333237  0.81726700  1
  O2-  O396  1  0.34474832  0.17884067  0.15778311  1
  O2-  O397  1  0.33839487  0.18046575  0.54394270  1
  O2-  O398  1  0.35669612  0.13437616  0.82317412  1
  O2-  O399  1  0.34223776  0.41104650  0.14077697  1
  O2-  O400  1  0.33252865  0.41909827  0.48013751  1
  O2-  O401  1  0.32176959  0.43454904  0.80240065  1
  O2-  O402  1  0.33449621  0.65547925  0.14818677  1
  O2-  O403  1  0.32201663  0.65496370  0.50636738  1
  O2-  O404  1  0.34129988  0.66770008  0.80807580  1
  O2-  O405  1  0.33222432  0.92961835  0.13757315  1
  O2-  O406  1  0.36222323  0.91713997  0.47839806  1
  O2-  O407  1  0.32631133  0.92803153  0.80539089  1
  O2-  O408  1  0.57722158  0.16577852  0.16116639  1
  O2-  O409  1  0.56437714  0.17352633  0.47434412  1
  O2-  O410  1  0.57404808  0.16522901  0.80505271  1
  O2-  O411  1  0.59274398  0.42192755  0.14182407  1
  O2-  O412  1  0.58539986  0.42329336  0.47545376  1
  O2-  O413  1  0.59684760  0.41281972  0.81147975  1
  O2-  O414  1  0.58784224  0.66885999  0.14510176  1
  O2-  O415  1  0.58683512  0.65961156  0.48864020  1
  O2-  O416  1  0.60388926  0.73838536  0.83109668  1
  O2-  O417  1  0.58852347  0.91484269  0.16851336  1
  O2-  O418  1  0.58200007  0.91667289  0.47037963  1
  O2-  O419  1  0.58337328  0.92450473  0.80293791  1
  O2-  O420  1  0.83383554  0.16674709  0.13764770  1
  O2-  O421  1  0.84000765  0.16722417  0.48820245  1
  O2-  O422  1  0.81308044  0.13594910  0.82060467  1
  O2-  O423  1  0.83072141  0.39344965  0.14003553  1
  O2-  O424  1  0.82089863  0.42541901  0.47627190  1
  O2-  O425  1  0.83682383  0.39586105  0.82453955  1
  O2-  O426  1  0.82503074  0.70649231  0.13392685  1
  O2-  O427  1  0.83603316  0.67587740  0.48754269  1
  O2-  O428  1  0.83019834  0.68217612  0.80621779  1
  O2-  O429  1  0.84172775  0.92157508  0.16084338  1
  O2-  O430  1  0.79932906  0.91406896  0.47402369  1
  O2-  O431  1  0.83276277  0.91202329  0.81436090  1
  O2-  O432  1  0.18341271  0.09638264  0.18947098  1
  O2-  O433  1  0.16111256  0.08026466  0.53501410  1
  O2-  O434  1  0.18811689  0.06729637  0.86108490  1
  O2-  O435  1  0.17846404  0.32893675  0.18615926  1
  O2-  O436  1  0.16727212  0.32953149  0.51968777  1
  O2-  O437  1  0.17254208  0.31448311  0.85690033  1
  O2-  O438  1  0.17175393  0.57043124  0.19316081  1
  O2-  O439  1  0.15021876  0.57433112  0.52854777  1
  O2-  O440  1  0.21200519  0.65753029  0.86703577  1
  O2-  O441  1  0.18995475  0.86990739  0.19757619  1
  O2-  O442  1  0.14697160  0.82950498  0.52429542  1
  O2-  O443  1  0.17016936  0.83747667  0.85270710  1
  O2-  O444  1  0.41946110  0.09193047  0.18150853  1
  O2-  O445  1  0.41002663  0.07894832  0.52213873  1
  O2-  O446  1  0.40777051  0.09263011  0.84088470  1
  O2-  O447  1  0.42609907  0.33717457  0.18544126  1
  O2-  O448  1  0.42236204  0.34288076  0.51592780  1
  O2-  O449  1  0.42592735  0.30502304  0.85145718  1
  O2-  O450  1  0.42201669  0.57704989  0.18508478  1
  O2-  O451  1  0.42081065  0.57941105  0.53016098  1
  O2-  O452  1  0.42031529  0.57895896  0.85183111  1
  O2-  O453  1  0.39965345  0.82757602  0.16848663  1
  O2-  O454  1  0.41679127  0.82009665  0.52393923  1
  O2-  O455  1  0.40821590  0.83374827  0.80487234  1
  O2-  O456  1  0.67933999  0.09600462  0.18099995  1
  O2-  O457  1  0.68509386  0.07512904  0.51343404  1
  O2-  O458  1  0.65253581  0.08038261  0.85178421  1
  O2-  O459  1  0.67139348  0.33683750  0.18709188  1
  O2-  O460  1  0.65811915  0.33903649  0.52083542  1
  O2-  O461  1  0.66628612  0.32266812  0.85286220  1
  O2-  O462  1  0.66978201  0.58606088  0.19150161  1
  O2-  O463  1  0.66005244  0.57798712  0.51993764  1
  O2-  O464  1  0.67240429  0.58605528  0.84684752  1
  O2-  O465  1  0.67014485  0.82829575  0.19505971  1
  O2-  O466  1  0.66860873  0.80941214  0.53318894  1
  O2-  O467  1  0.65167928  0.81786756  0.84169487  1
  O2-  O468  1  0.92652869  0.09231708  0.18772450  1
  O2-  O469  1  0.92173632  0.07011097  0.52193635  1
  O2-  O470  1  0.89506138  0.06083366  0.86963506  1
  O2-  O471  1  0.93785999  0.35046405  0.20075292  1
  O2-  O472  1  0.91316894  0.34437046  0.50231236  1
  O2-  O473  1  0.91707581  0.30512118  0.84363450  1
  O2-  O474  1  0.91631148  0.56029447  0.19117665  1
  O2-  O475  1  0.91135234  0.59255724  0.51835406  1
  O2-  O476  1  0.91734192  0.58675918  0.83851854  1
  O2-  O477  1  0.93826387  0.85209544  0.19553805  1
  O2-  O478  1  0.91389605  0.83312609  0.52891728  1
  O2-  O479  1  0.91318926  0.83422952  0.85417635  1
  O2-  O480  1  0.16347547  0.07982211  0.31137779  1
  O2-  O481  1  0.15215718  0.08961956  0.66033954  1
  O2-  O482  1  0.16503049  0.07429878  0.98167379  1
  O2-  O483  1  0.18038511  0.33012325  0.30959544  1
  O2-  O484  1  0.18200014  0.33101076  0.64000619  1
  O2-  O485  1  0.10557016  0.29238242  0.96730545  1
  O2-  O486  1  0.17802036  0.58501568  0.31904798  1
  O2-  O487  1  0.17004649  0.59021126  0.65067820  1
  O2-  O488  1  0.17475974  0.58790066  0.97976986  1
  O2-  O489  1  0.17688889  0.83131530  0.32236654  1
  O2-  O490  1  0.16532417  0.84296768  0.64880452  1
  O2-  O491  1  0.16608756  0.82771827  0.97686584  1
  O2-  O492  1  0.37812595  0.05499627  0.29453692  1
  O2-  O493  1  0.42079092  0.07819660  0.64665740  1
  O2-  O494  1  0.41282415  0.08466254  0.96298946  1
  O2-  O495  1  0.42896180  0.35317552  0.30732983  1
  O2-  O496  1  0.44970177  0.35442609  0.63234160  1
  O2-  O497  1  0.42202689  0.33238532  0.96663436  1
  O2-  O498  1  0.42098751  0.57483922  0.31240512  1
  O2-  O499  1  0.42374303  0.58277722  0.65358680  1
  O2-  O500  1  0.42411944  0.58406217  0.97581571  1
  O2-  O501  1  0.43072193  0.83903659  0.28796791  1
  O2-  O502  1  0.41641208  0.82991324  0.64644797  1
  O2-  O503  1  0.42132031  0.84474663  1.03696087  1
  O2-  O504  1  0.64563573  0.06190623  0.30147137  1
  O2-  O505  1  0.66173005  0.07424527  0.63905172  1
  O2-  O506  1  0.66824563  0.08437836  0.97573019  1
  O2-  O507  1  0.66294002  0.32930231  0.30882587  1
  O2-  O508  1  0.66803472  0.32817815  0.63788070  1
  O2-  O509  1  0.66630103  0.33102995  0.97662981  1
  O2-  O510  1  0.66398505  0.58163364  0.31653338  1
  O2-  O511  1  0.64035114  0.56289818  0.58513358  1
  O2-  O512  1  0.66424399  0.58103547  0.97392020  1
  O2-  O513  1  0.66058800  0.81637713  0.31839829  1
  O2-  O514  1  0.67104159  0.83401712  0.64668507  1
  O2-  O515  1  0.68420776  0.83936862  0.98902029  1
  O2-  O516  1  0.92566812  0.11594841  0.31515499  1
  O2-  O517  1  0.92554851  0.09503327  0.64766050  1
  O2-  O518  1  0.90154976  0.06297393  0.97957833  1
  O2-  O519  1  0.95349640  0.38156103  0.31188089  1
  O2-  O520  1  0.95728864  0.32868552  0.62048528  1
  O2-  O521  1  0.95634466  0.29767211  0.96133640  1
  O2-  O522  1  0.92041569  0.56985139  0.31233255  1
  O2-  O523  1  0.91637881  0.59203699  0.64031050  1
  O2-  O524  1  0.91364491  0.57846098  0.96462564  1
  O2-  O525  1  0.93607327  0.83440339  0.31925811  1
  O2-  O526  1  0.92044683  0.84201536  0.65056788  1
  O2-  O527  1  0.92101797  0.82836721  0.97652057  1
  O2-  O528  1  0.06384550  0.14198980  0.01836305  1
  O2-  O529  1  0.08972789  0.16841975  0.35612121  1
  O2-  O530  1  0.07939118  0.18541526  0.68583163  1
  O2-  O531  1  0.09538855  0.42497319  0.02418047  1
  O2-  O532  1  0.11108049  0.42352146  0.35673677  1
  O2-  O533  1  0.11796835  0.42412305  0.68084820  1
  O2-  O534  1  0.07326809  0.65552485  0.00901895  1
  O2-  O535  1  0.08255760  0.66084435  0.35647703  1
  O2-  O536  1  0.08374117  0.67510457  0.68465985  1
  O2-  O537  1  0.08686082  0.91191189  0.01940521  1
  O2-  O538  1  0.09438541  0.92084379  0.36336590  1
  O2-  O539  1  0.08627349  0.92347916  0.69766663  1
  O2-  O540  1  0.34086670  0.17640585  0.00958275  1
  O2-  O541  1  0.33502388  0.18668071  0.30197797  1
  O2-  O542  1  0.32468259  0.14443000  0.70455170  1
  O2-  O543  1  0.34284854  0.42110021  0.01087847  1
  O2-  O544  1  0.34027767  0.41979848  0.35554616  1
  O2-  O545  1  0.34956808  0.41071854  0.68382130  1
  O2-  O546  1  0.34042804  0.66603418  0.02383496  1
  O2-  O547  1  0.35741011  0.71634088  0.38454183  1
  O2-  O548  1  0.33686343  0.66355891  0.68607439  1
  O2-  O549  1  0.33155439  0.92328997  0.01800350  1
  O2-  O550  1  0.34801351  0.90722068  0.35029886  1
  O2-  O551  1  0.33205091  0.91394530  0.68397434  1
  O2-  O552  1  0.58167277  0.15832618  0.00460980  1
  O2-  O553  1  0.57375838  0.16102244  0.34572211  1
  O2-  O554  1  0.58658299  0.16343696  0.68271420  1
  O2-  O555  1  0.58470467  0.41782402  0.01477551  1
  O2-  O556  1  0.58711616  0.41483550  0.35471467  1
  O2-  O557  1  0.60864760  0.42907980  0.69333208  1
  O2-  O558  1  0.58664775  0.66594037  0.01694736  1
  O2-  O559  1  0.58119335  0.65719215  0.36658429  1
  O2-  O560  1  0.58659514  0.68821578  0.70199033  1
  O2-  O561  1  0.59683153  0.92854768  0.02558924  1
  O2-  O562  1  0.57646657  0.90559299  0.34026972  1
  O2-  O563  1  0.58361699  0.91330175  0.68313235  1
  O2-  O564  1  0.83205991  0.15253444  0.01227909  1
  O2-  O565  1  0.87117140  0.21271262  0.36186496  1
  O2-  O566  1  0.81956224  0.13467195  0.69505425  1
  O2-  O567  1  0.82997214  0.41171927  0.02116121  1
  O2-  O568  1  0.81990692  0.40957987  0.35314296  1
  O2-  O569  1  0.83028206  0.50667743  0.74020495  1
  O2-  O570  1  0.83687196  0.66434203  0.00881676  1
  O2-  O571  1  0.84048785  0.66094068  0.31887682  1
  O2-  O572  1  0.78495222  0.63329478  0.65234552  1
  O2-  O573  1  0.81157805  0.84522578  0.05522653  1
  O2-  O574  1  0.82937911  0.88650873  0.35243718  1
  O2-  O575  1  0.83277410  0.92620863  0.69033669  1
