# generated using pymatgen
data_H2O
_symmetry_space_group_name_H-M   'P 1'
_cell_length_a   17.96595085
_cell_length_b   17.96863616
_cell_length_c   22.00228398
_cell_angle_alpha   89.99421902
_cell_angle_beta   90.00170295
_cell_angle_gamma   119.98784795
_symmetry_Int_Tables_number   1
_chemical_formula_structural   H2O
_chemical_formula_sum   'H384 O192'
_cell_volume   6152.00790418
_cell_formula_units_Z   192
loop_
 _symmetry_equiv_pos_site_id
 _symmetry_equiv_pos_as_xyz
  1  'x, y, z'
loop_
 _atom_type_symbol
 _atom_type_oxidation_number
  H+  1.0
  O2-  -2.0
loop_
 _atom_site_type_symbol
 _atom_site_label
 _atom_site_symmetry_multiplicity
 _atom_site_fract_x
 _atom_site_fract_y
 _atom_site_fract_z
 _atom_site_occupancy
  H+  H0  1  0.72300698  0.11044692  0.49900944  1
  H+  H1  1  0.83345288  0.76643151  0.65761553  1
  H+  H2  1  0.60993094  0.35125533  0.52282615  1
  H+  H3  1  0.35876190  0.62146061  0.33514743  1
  H+  H4  1  0.26950477  0.62219650  0.34616955  1
  H+  H5  1  0.88924206  0.62090027  0.51958285  1
  H+  H6  1  0.48411613  0.85973618  0.16967563  1
  H+  H7  1  0.27098841  0.38454617  0.83207976  1
  H+  H8  1  0.86749963  0.39648405  0.81969368  1
  H+  H9  1  0.66544930  0.33544293  0.26201292  1
  H+  H10  1  0.01918567  0.13095169  0.67345178  1
  H+  H11  1  1.03793679  0.64676574  0.82735728  1
  H+  H12  1  0.28792449  0.64637368  0.00960222  1
  H+  H13  1  0.99977019  0.80226495  0.62800553  1
  H+  H14  1  0.47837463  0.37765170  0.65869770  1
  H+  H15  1  0.75518477  0.59222150  0.35701086  1
  H+  H16  1  0.36570933  0.39978090  0.67615235  1
  H+  H17  1  0.60774272  0.63570984  0.32941285  1
  H+  H18  1  0.72334505  0.35895934  -0.00744993  1
  H+  H19  1  0.66080759  0.01776236  0.65266632  1
  H+  H20  1  0.62327537  0.40197319  0.33617650  1
  H+  H21  1  0.10319896  0.63188844  0.34748185  1
  H+  H22  1  0.87089175  0.27387521  0.16557945  1
  H+  H23  1  0.21236350  0.10070086  -0.00965445  1
  H+  H24  1  0.16534406  0.34539026  0.55783017  1
  H+  H25  1  0.38323505  0.53681775  0.67131797  1
  H+  H26  1  0.02493131  0.64360465  0.15994608  1
  H+  H27  1  0.38092644  0.01974471  0.65696343  1
  H+  H28  1  0.32246282  0.41313718  0.43096280  1
  H+  H29  1  0.38097977  0.75594353  0.32421057  1
  H+  H30  1  0.87976620  0.10773246  0.50388978  1
  H+  H31  1  0.52115656  0.39133203  0.13803818  1
  H+  H32  1  0.10819169  0.73310226  1.00754596  1
  H+  H33  1  0.85519612  0.10252464  0.17511224  1
  H+  H34  1  0.15769126  0.53215890  0.80563303  1
  H+  H35  1  0.05337318  0.89570619  0.82881023  1
  H+  H36  1  0.37372422  0.47087145  0.34029092  1
  H+  H37  1  0.48139699  0.61000416  1.00559616  1
  H+  H38  1  1.12143502  0.14259647  0.15790936  1
  H+  H39  1  0.06427316  0.40026643  0.43015812  1
  H+  H40  1  0.84914811  0.68783231  0.91032595  1
  H+  H41  1  0.60784903  0.50602512  0.30847561  1
  H+  H42  1  0.82395258  0.15847459  0.43167749  1
  H+  H43  1  0.38094036  0.36421519  0.15245757  1
  H+  H44  1  0.22244628  0.60653178  0.16786593  1
  H+  H45  1  0.15033714  0.76703871  0.17604433  1
  H+  H46  1  0.84787664  0.74171764  0.32398101  1
  H+  H47  1  0.13445444  0.14690556  0.34489474  1
  H+  H48  1  0.65646625  0.67407335  -0.01417909  1
  H+  H49  1  0.26569063  0.63355281  0.48311371  1
  H+  H50  1  0.39368950  0.29055459  0.65746564  1
  H+  H51  1  0.89442630  0.16179056  1.00228037  1
  H+  H52  1  0.39238852  0.11227902  0.84142599  1
  H+  H53  1  0.62419488  0.86703308  0.48902759  1
  H+  H54  1  0.27212522  0.38907042  0.16255279  1
  H+  H55  1  0.88044018  0.74608282  0.85323946  1
  H+  H56  1  0.48149700  0.61422019  0.84991309  1
  H+  H57  1  0.38914199  0.52440177  0.16809322  1
  H+  H58  1  0.61316289  0.01381480  0.33624064  1
  H+  H59  1  0.17357132  0.59391565  0.94827612  1
  H+  H60  1  0.08433836  0.69329285  0.72810874  1
  H+  H61  1  0.87550125  0.02315946  0.66039648  1
  H+  H62  1  0.90612462  0.01587668  0.32617021  1
  H+  H63  1  0.13109235  0.76067837  0.32342459  1
  H+  H64  1  0.71595774  0.12597153  0.20100103  1
  H+  H65  1  0.06840437  0.96523736  -0.00620574  1
  H+  H66  1  0.38087568  0.89031982  0.83101309  1
  H+  H67  1  0.33222110  0.42101050  0.73796693  1
  H+  H68  1  0.34244082  0.37477033  0.49132670  1
  H+  H69  1  0.71442143  0.91971023  0.69159390  1
  H+  H70  1  0.61706463  0.22976153  0.83639200  1
  H+  H71  1  0.64838053  0.01773061  0.98802983  1
  H+  H72  1  0.85827406  0.72631890  0.14957999  1
  H+  H73  1  0.85718379  0.88472353  0.83293769  1
  H+  H74  1  0.88226901  0.91152658  0.01403134  1
  H+  H75  1  0.63555512  0.26468115  0.99283250  1
  H+  H76  1  0.89331160  0.62364723  0.98691249  1
  H+  H77  1  0.72763521  0.86807275  0.32948736  1
  H+  H78  1  0.50816910  0.36481361  -0.00179950  1
  H+  H79  1  0.23578059  0.90499050  0.02167547  1
  H+  H80  1  0.37171024  0.02817913  0.99942826  1
  H+  H81  1  0.24656953  0.85530853  0.18200151  1
  H+  H82  1  0.84915944  0.22435312  0.33761042  1
  H+  H83  1  0.36535768  0.13357492  0.15415285  1
  H+  H84  1  0.15467314  0.78298537  0.84721589  1
  H+  H85  1  0.63407120  0.48726745  0.50149928  1
  H+  H86  1  0.48355150  0.99075000  0.38705400  1
  H+  H87  1  0.21309671  0.35432172  0.49601241  1
  H+  H88  1  0.39943122  0.14837039  0.67476496  1
  H+  H89  1  0.38477846  0.35634803  0.99799943  1
  H+  H90  1  0.08351353  0.41684538  0.07261074  1
  H+  H91  1  0.38547865  0.85689116  1.02291800  1
  H+  H92  1  0.47854517  0.88470962  0.54160866  1
  H+  H93  1  0.61513268  0.13100055  0.83796045  1
  H+  H94  1  0.01190130  0.63529677  0.50080106  1
  H+  H95  1  0.08901719  0.41737107  0.75599264  1
  H+  H96  1  1.10716965  0.49389596  0.67435700  1
  H+  H97  1  0.99707031  0.13029802  0.99500951  1
  H+  H98  1  0.61111043  0.64258184  0.13815553  1
  H+  H99  1  0.88817769  0.51688153  0.31578474  1
  H+  H100  1  0.10126458  0.37769345  0.48921723  1
  H+  H101  1  0.01594938  0.38273899  0.16171372  1
  H+  H102  1  0.47571714  0.09904750  0.65258219  1
  H+  H103  1  0.84585966  0.87016375  0.33508025  1
  H+  H104  1  0.08298185  0.16238456  0.43748937  1
  H+  H105  1  0.14551376  0.62836594  1.00437634  1
  H+  H106  1  0.53558946  0.89198685  0.81570149  1
  H+  H107  1  0.36116705  0.22043370  0.14526289  1
  H+  H108  1  0.75688528  0.13928049  0.34333242  1
  H+  H109  1  0.25032856  0.62003768  0.80044092  1
  H+  H110  1  0.02615979  0.13626224  0.83214935  1
  H+  H111  1  0.47724110  0.61544312  0.16377289  1
  H+  H112  1  0.78786365  0.67993390  0.99294879  1
  H+  H113  1  0.11984183  0.14500615  1.00528685  1
  H+  H114  1  0.40950260  0.77976575  0.82213862  1
  H+  H115  1  0.46244786  0.00837141  0.40694300  1
  H+  H116  1  0.88517693  0.10080437  0.84514779  1
  H+  H117  1  0.24779168  0.41260816  0.64888435  1
  H+  H118  1  0.23351235  0.14414910  0.66299518  1
  H+  H119  1  -0.03486778  0.85427241  0.17075676  1
  H+  H120  1  0.63165816  0.77344441  0.17261465  1
  H+  H121  1  0.12875901  0.76937219  0.50867425  1
  H+  H122  1  0.88733014  0.53080540  0.16461344  1
  H+  H123  1  0.13607691  0.12320731  0.66762037  1
  H+  H124  1  0.90197439  0.32944591  0.22811518  1
  H+  H125  1  0.62028161  0.88724615  0.16288044  1
  H+  H126  1  0.13470979  0.60756436  0.16868812  1
  H+  H127  1  0.37808261  0.16753594  0.34615928  1
  H+  H128  1  0.98032678  0.94132014  0.86233091  1
  H+  H129  1  0.10251937  0.21955965  0.49694987  1
  H+  H130  1  0.87576554  0.86440579  0.50306174  1
  H+  H131  1  0.12397490  0.51383254  0.34682376  1
  H+  H132  1  0.60394122  0.72862397  0.83505868  1
  H+  H133  1  0.37890365  0.10826872  0.50321032  1
  H+  H134  1  0.79426988  0.91803284  0.02063904  1
  H+  H135  1  0.60116449  0.25741796  0.51944273  1
  H+  H136  1  0.78245557  0.38296998  0.32589952  1
  H+  H137  1  0.90588099  0.04328448  1.00042011  1
  H+  H138  1  0.34972549  0.86896578  0.34020197  1
  H+  H139  1  0.83501050  0.45008239  0.65287485  1
  H+  H140  1  0.51983046  0.13517704  0.83840871  1
  H+  H141  1  0.60428650  0.88497192  0.34532057  1
  H+  H142  1  0.12710745  0.42086525  0.65709449  1
  H+  H143  1  0.62932826  0.11677740  0.17409339  1
  H+  H144  1  0.01584785  0.63472926  0.33421193  1
  H+  H145  1  0.36219885  0.47147355  0.83582113  1
  H+  H146  1  0.61397636  0.39051517  0.83295428  1
  H+  H147  1  0.61707410  0.72878162  0.33887729  1
  H+  H148  1  0.23574272  0.12125483  0.83806539  1
  H+  H149  1  0.23459139  0.36178913  0.33015434  1
  H+  H150  1  0.51042945  0.87404347  0.34313447  1
  H+  H151  1  0.76532739  0.12795490  0.12428066  1
  H+  H152  1  0.76781709  0.89282433  0.48007840  1
  H+  H153  1  0.89985026  0.62328259  0.84842835  1
  H+  H154  1  0.61226157  0.91482975  0.06710606  1
  H+  H155  1  0.85996393  0.97342625  0.83641238  1
  H+  H156  1  0.33408632  0.49304642  0.51796838  1
  H+  H157  1  0.38094273  0.89662263  0.66777703  1
  H+  H158  1  0.11845061  0.38925600  0.81840136  1
  H+  H159  1  0.35635889  0.13428746  0.99880769  1
  H+  H160  1  0.15928954  0.00590774  0.68754423  1
  H+  H161  1  0.51064841  0.66068056  0.67770618  1
  H+  H162  1  0.43335576  0.75373929  -0.01950949  1
  H+  H163  1  1.00893265  0.87429642  0.48464704  1
  H+  H164  1  1.00794675  0.37246183  0.33257019  1
  H+  H165  1  0.12768307  0.65085321  0.81277241  1
  H+  H166  1  0.60226007  0.14072165  0.34218994  1
  H+  H167  1  0.38527880  0.38976922  0.36384962  1
  H+  H168  1  0.96463994  0.34553094  0.50467947  1
  H+  H169  1  0.12053042  0.60593267  0.48396232  1
  H+  H170  1  0.39242703  0.77117098  0.16895151  1
  H+  H171  1  0.81723931  0.92027275  0.73822140  1
  H+  H172  1  0.58925348  0.79858434  0.67664192  1
  H+  H173  1  0.48082839  0.61473425  0.32453881  1
  H+  H174  1  0.22362026  0.10572368  0.17038213  1
  H+  H175  1  0.26645476  0.13336342  0.49886286  1
  H+  H176  1  0.85733503  0.37697136  0.66806111  1
  H+  H177  1  0.39999539  0.79500736  0.63157829  1
  H+  H178  1  0.58245016  0.16174118  0.06356782  1
  H+  H179  1  0.02480643  0.63988129  0.00695276  1
  H+  H180  1  0.63421465  0.78913311  0.01609963  1
  H+  H181  1  0.61319022  0.22896110  0.15587440  1
  H+  H182  1  0.75542393  0.11029470  0.82381579  1
  H+  H183  1  0.77542254  0.63933064  0.50400769  1
  H+  H184  1  0.63485033  0.36455495  0.16139616  1
  H+  H185  1  0.51315459  0.12926022  0.48986374  1
  H+  H186  1  0.43090455  0.89184845  0.02861878  1
  H+  H187  1  0.10189243  0.85543635  0.98781023  1
  H+  H188  1  0.16208840  0.04213126  0.32695839  1
  H+  H189  1  0.72517803  0.36778031  0.16337947  1
  H+  H190  1  0.60869323  0.71658131  0.49124698  1
  H+  H191  1  0.52053705  0.13196546  1.00566156  1
  H+  H192  1  0.62884394  0.02471409  0.83501068  1
  H+  H193  1  0.14605374  0.27344059  0.33122177  1
  H+  H194  1  0.09596646  -0.02644174  0.15519429  1
  H+  H195  1  0.87560539  0.85187024  0.17382131  1
  H+  H196  1  0.99030507  0.37753746  0.82941911  1
  H+  H197  1  0.63484500  0.86079626  0.84362563  1
  H+  H198  1  0.47624973  0.12325958  0.32757961  1
  H+  H199  1  0.13105599  0.90374613  0.33260270  1
  H+  H200  1  0.42056567  0.33123775  0.20260788  1
  H+  H201  1  0.84625635  0.96722243  0.17140116  1
  H+  H202  1  0.17412355  0.60413128  0.72085616  1
  H+  H203  1  0.97029498  0.10864447  0.50530210  1
  H+  H204  1  0.34852807  0.96641510  0.48428005  1
  H+  H205  1  0.72889246  0.60572791  0.66615478  1
  H+  H206  1  0.93459695  0.35645173  0.93141567  1
  H+  H207  1  0.88324440  0.80199107  0.26481589  1
  H+  H208  1  0.12144552  0.51473722  0.48225206  1
  H+  H209  1  0.39378618  0.02419590  0.17590249  1
  H+  H210  1  0.61218623  0.48200161  0.13725875  1
  H+  H211  1  0.81254439  0.87846914  0.67207557  1
  H+  H212  1  0.22989719  0.85084588  0.32641434  1
  H+  H213  1  1.01643518  0.65767144  0.66989259  1
  H+  H214  1  0.64157744  0.51574945  0.66369219  1
  H+  H215  1  0.57698936  0.17645850  0.40008263  1
  H+  H216  1  0.71869241  0.85423154  0.84567401  1
  H+  H217  1  0.89068260  0.27588015  0.66325118  1
  H+  H218  1  0.97707394  0.36917420  0.65942014  1
  H+  H219  1  0.88661259  0.61905591  0.16270636  1
  H+  H220  1  0.85500128  0.21340654  0.49403153  1
  H+  H221  1  0.60625476  0.36584033  -0.00310800  1
  H+  H222  1  0.12249706  0.48547582  1.01833955  1
  H+  H223  1  0.89073021  0.25022273  1.00292962  1
  H+  H224  1  0.60500596  0.63980039  0.82820974  1
  H+  H225  1  0.24701418  0.13684477  0.32748813  1
  H+  H226  1  0.52355407  0.13889648  0.15943528  1
  H+  H227  1  0.52791660  0.83534104  0.97697932  1
  H+  H228  1  0.84994531  0.61362015  0.34201322  1
  H+  H229  1  0.98929638  0.38434503  0.99358674  1
  H+  H230  1  0.38962133  0.60765277  0.86052992  1
  H+  H231  1  0.36689513  0.62818847  0.01273263  1
  H+  H232  1  0.37759563  0.88475570  0.16060046  1
  H+  H233  1  0.63701205  0.28048756  0.32354299  1
  H+  H234  1  0.85732846  0.48011475  0.00055202  1
  H+  H235  1  0.15110767  0.02982277  0.83879312  1
  H+  H236  1  0.85937884  -0.02062600  0.48928674  1
  H+  H237  1  0.52532414  0.39117210  0.83450291  1
  H+  H238  1  0.37233715  0.22758062  0.83163368  1
  H+  H239  1  0.60239284  0.36968129  0.68154337  1
  H+  H240  1  0.38513765  0.36073681  0.84259674  1
  H+  H241  1  0.86448314  0.39516614  -0.00030882  1
  H+  H242  1  0.72747438  0.36194492  0.83732328  1
  H+  H243  1  0.90189291  0.29037102  0.83681386  1
  H+  H244  1  0.64415368  0.61490148  0.51427470  1
  H+  H245  1  0.86959092  0.37961535  0.32262372  1
  H+  H246  1  0.73593426  0.11376832  0.65283811  1
  H+  H247  1  0.36822561  0.26568587  0.50736025  1
  H+  H248  1  0.60603636  0.13592669  0.49015865  1
  H+  H249  1  0.09471124  -0.13141261  0.48494017  1
  H+  H250  1  0.40877770  0.66846792  0.77218589  1
  H+  H251  1  0.63923389  0.53137064  0.84237446  1
  H+  H252  1  0.13806290  0.36440265  0.17941660  1
  H+  H253  1  0.64792057  0.83016738  0.43280463  1
  H+  H254  1  0.88800936  0.76101784  0.99654748  1
  H+  H255  1  0.14208235  0.37007600  0.99631511  1
  H+  H256  1  0.12527812  0.23322166  0.15932462  1
  H+  H257  1  0.53555068  0.40136688  0.36316448  1
  H+  H258  1  0.60568309  0.98184376  0.49909378  1
  H+  H259  1  0.44784225  0.35906645  0.42563796  1
  H+  H260  1  0.72632887  0.62216428  0.84810620  1
  H+  H261  1  0.07670049  0.16361354  0.73349403  1
  H+  H262  1  0.13522346  0.27419741  0.84052462  1
  H+  H263  1  0.35921353  0.65278094  0.65307484  1
  H+  H264  1  0.61714284  0.97542423  0.16028834  1
  H+  H265  1  0.34824325  0.91544682  0.73166444  1
  H+  H266  1  0.85139714  0.48487221  0.48738280  1
  H+  H267  1  0.16114723  0.87486430  0.84629701  1
  H+  H268  1  0.11745381  0.14079962  0.82795122  1
  H+  H269  1  0.01682843  0.84916738  0.62218739  1
  H+  H270  1  0.33320954  0.58309709  0.51911619  1
  H+  H271  1  0.24124188  0.86778522  0.65608327  1
  H+  H272  1  0.13641762  0.11582789  0.51072581  1
  H+  H273  1  0.72243334  0.61369573  0.15244832  1
  H+  H274  1  0.86924981  0.13935724  0.66670102  1
  H+  H275  1  0.15971262  0.57992465  0.40038101  1
  H+  H276  1  0.90983274  0.56099137  0.68310749  1
  H+  H277  1  0.05276078  0.91877323  0.09517606  1
  H+  H278  1  0.60429106  0.11344964  0.66394072  1
  H+  H279  1  0.13210371  0.63595869  0.67233020  1
  H+  H280  1  0.38796808  0.25992541  0.36868390  1
  H+  H281  1  0.10071681  0.37707334  0.33874263  1
  H+  H282  1  0.27362760  0.38351491  1.00429355  1
  H+  H283  1  0.62875270  0.09617914  -0.00958519  1
  H+  H284  1  0.87657006  0.64863739  0.67497060  1
  H+  H285  1  0.29138462  0.88949840  0.83417159  1
  H+  H286  1  0.85571912  0.38948099  0.15457556  1
  H+  H287  1  0.37864887  0.26298946  0.99470521  1
  H+  H288  1  0.04170808  0.13674779  0.34305829  1
  H+  H289  1  0.89248364  0.53158210  0.83462269  1
  H+  H290  1  0.58122893  0.68779385  0.08818784  1
  H+  H291  1  0.92577872  0.08551294  0.90636211  1
  H+  H292  1  0.16644337  0.83677690  0.56437916  1
  H+  H293  1  0.14206035  0.28055573  0.99463087  1
  H+  H294  1  0.95235423  0.87565363  0.91905045  1
  H+  H295  1  0.84195671  0.67947232  0.73317624  1
  H+  H296  1  0.83741309  0.92126783  0.10806217  1
  H+  H297  1  0.39600916  0.02301222  0.84048343  1
  H+  H298  1  0.56740944  0.68856958  0.73833417  1
  H+  H299  1  0.67479676  0.58578516  0.57519805  1
  H+  H300  1  0.39107009  0.57559949  0.60637367  1
  H+  H301  1  0.14429112  0.78809277  0.65807765  1
  H+  H302  1  0.82960643  0.41919669  0.76157714  1
  H+  H303  1  0.57830149  0.41131732  0.73809642  1
  H+  H304  1  0.55718800  0.91385733  0.44649132  1
  H+  H305  1  0.24733477  0.46662063  0.59310037  1
  H+  H306  1  0.85990618  0.82545399  0.59857232  1
  H+  H307  1  0.25855929  0.87935480  0.48728849  1
  H+  H308  1  0.91234236  0.58456531  0.26122007  1
  H+  H309  1  0.92404604  0.58630091  0.93280538  1
  H+  H310  1  0.36708574  0.46848486  0.00977697  1
  H+  H311  1  0.33366729  0.91862039  0.10997788  1
  H+  H312  1  0.09773385  0.17863015  0.06784780  1
  H+  H313  1  0.41906241  0.08966061  0.23193842  1
  H+  H314  1  0.83717917  0.67438708  0.08670632  1
  H+  H315  1  0.93648625  0.08304870  0.27223059  1
  H+  H316  1  0.35769343  0.17380767  0.77118293  1
  H+  H317  1  0.46549927  0.31333692  0.27056775  1
  H+  H318  1  0.43484304  0.33000033  0.27604929  1
  H+  H319  1  0.70396833  0.33745143  0.66474451  1
  H+  H320  1  0.42349798  0.58179099  0.26344164  1
  H+  H321  1  0.59923983  0.19905766  0.67269000  1
  H+  H322  1  0.65709593  0.07696125  0.89984508  1
  H+  H323  1  0.65117529  0.57658756  0.20692128  1
  H+  H324  1  0.61108980  0.92303813  0.76411447  1
  H+  H325  1  0.32408074  0.15732894  0.05969601  1
  H+  H326  1  0.36495762  0.63655417  0.16134734  1
  H+  H327  1  0.12597904  0.93478574  0.77300978  1
  H+  H328  1  0.26563388  0.97899535  0.06949606  1
  H+  H329  1  0.81324534  0.04575849  0.23303758  1
  H+  H330  1  0.16050482  0.08278306  0.92891329  1
  H+  H331  1  0.46141457  0.23870256  0.70385055  1
  H+  H332  1  0.34054595  0.66985363  0.10154771  1
  H+  H333  1  0.58428673  0.65285862  0.43759474  1
  H+  H334  1  0.57964260  0.40837223  0.05711764  1
  H+  H335  1  0.83290135  0.43443592  0.42615363  1
  H+  H336  1  0.17346581  0.33688335  0.23775744  1
  H+  H337  1  0.90857671  0.31800933  0.56480335  1
  H+  H338  1  0.66307929  0.83487627  0.27257635  1
  H+  H339  1  0.40889805  0.33956142  0.55814181  1
  H+  H340  1  0.45064898  0.81821010  0.88698520  1
  H+  H341  1  0.17710079  0.82046675  0.25211467  1
  H+  H342  1  0.92186143  0.59443084  0.57922803  1
  H+  H343  1  0.04551587  0.50250773  0.90358061  1
  H+  H344  1  0.63036235  0.30713986  0.61178911  1
  H+  H345  1  0.35450325  0.69622455  0.73338062  1
  H+  H346  1  0.10696912  0.47162291  0.16244095  1
  H+  H347  1  0.55226749  0.72830102  -0.02153452  1
  H+  H348  1  0.31595631  0.90088667  0.39810428  1
  H+  H349  1  0.67132415  0.61910313  0.93630490  1
  H+  H350  1  0.91115384  0.07894378  0.59863210  1
  H+  H351  1  0.17070635  0.09341654  0.57055385  1
  H+  H352  1  0.16413994  0.33711106  0.89868904  1
  H+  H353  1  0.83270342  0.66135718  0.44367511  1
  H+  H354  1  0.61885239  0.43529307  0.44073773  1
  H+  H355  1  0.06438770  0.66746941  0.43696706  1
  H+  H356  1  0.05780687  0.54858921  0.89866583  1
  H+  H357  1  0.38531107  0.03573811  0.32698459  1
  H+  H358  1  0.87744604  0.77619964  0.50958518  1
  H+  H359  1  0.72351232  0.85851160  0.17493511  1
  H+  H360  1  0.84991698  0.17835628  0.08664994  1
  H+  H361  1  0.77717197  0.05044720  0.78665119  1
  H+  H362  1  0.32975975  0.16858536  0.43963807  1
  H+  H363  1  0.66741175  0.08354804  0.56019332  1
  H+  H364  1  0.83254887  0.91614984  0.39422864  1
  H+  H365  1  0.83185342  0.15883238  0.72674326  1
  H+  H366  1  0.41458321  0.33065156  0.90210692  1
  H+  H367  1  0.41435220  0.82076689  0.26678253  1
  H+  H368  1  0.33993770  0.65700330  0.43726086  1
  H+  H369  1  0.15983052  0.83956985  0.93858377  1
  H+  H370  1  0.54532386  0.52727408  0.27054501  1
  H+  H371  1  0.08581808  0.67359033  0.10153795  1
  H+  H372  1  0.32520898  0.41401994  0.09888915  1
  H+  H373  1  0.16250192  0.91699644  0.68186446  1
  H+  H374  1  0.67081121  0.33154147  0.89906326  1
  H+  H375  1  0.40947806  0.07524575  0.55993939  1
  H+  H376  1  0.09049769  0.92320523  0.38944792  1
  H+  H377  1  0.94231637  0.27908400  0.28078152  1
  H+  H378  1  0.27378702  0.66209247  0.65876868  1
  H+  H379  1  0.42554281  0.57660316  0.94536053  1
  H+  H380  1  0.17315461  0.08741052  0.23295120  1
  H+  H381  1  0.82952633  0.42114583  0.09398531  1
  H+  H382  1  0.63634734  0.06887119  0.27518372  1
  H+  H383  1  0.41332133  0.07733904  0.93575857  1
  O2-  O384  1  0.09711119  0.17622240  0.13912243  1
  O2-  O385  1  0.07392180  0.15857101  0.48270914  1
  O2-  O386  1  0.08560908  0.17075303  0.81551996  1
  O2-  O387  1  0.07689285  0.40952511  0.14819908  1
  O2-  O388  1  0.06830765  0.40619362  0.47560110  1
  O2-  O389  1  0.09057813  0.42137377  0.80179248  1
  O2-  O390  1  0.08663955  0.67233089  0.14682944  1
  O2-  O391  1  0.07148390  0.66464784  0.48142686  1
  O2-  O392  1  0.09727233  0.68413645  0.81167555  1
  O2-  O393  1  0.06111083  0.91435514  0.13895117  1
  O2-  O394  1  0.05756141  0.88193502  0.45927052  1
  O2-  O395  1  0.11543033  0.92725132  0.81991107  1
  O2-  O396  1  0.33143569  0.15808287  0.13532601  1
  O2-  O397  1  0.32899131  0.16302056  0.48500970  1
  O2-  O398  1  0.34494856  0.16724128  0.81584907  1
  O2-  O399  1  0.33192331  0.41783024  0.14417246  1
  O2-  O400  1  0.31223715  0.40636352  0.47617604  1
  O2-  O401  1  0.33246023  0.41277326  0.81811755  1
  O2-  O402  1  0.33594735  0.66853905  0.14686035  1
  O2-  O403  1  0.32857397  0.65505798  0.48136538  1
  O2-  O404  1  0.36630809  0.68669536  0.77757435  1
  O2-  O405  1  0.34493379  0.91666736  0.15374529  1
  O2-  O406  1  0.31621299  0.90763829  0.46710047  1
  O2-  O407  1  0.35071193  0.92083802  0.81655235  1
  O2-  O408  1  0.58388172  0.16691519  0.14310499  1
  O2-  O409  1  0.57411827  0.16440333  0.47502817  1
  O2-  O410  1  0.58363015  0.16589301  0.82535749  1
  O2-  O411  1  0.58256418  0.41944232  0.12414336  1
  O2-  O412  1  0.60518571  0.42805264  0.48422747  1
  O2-  O413  1  0.58605234  0.42341047  0.81961357  1
  O2-  O414  1  0.57916744  0.67429897  0.13208517  1
  O2-  O415  1  0.58529116  0.65510323  0.48241940  1
  O2-  O416  1  0.56931233  0.66674244  0.81916604  1
  O2-  O417  1  0.59093459  0.91671272  0.14327700  1
  O2-  O418  1  0.56720281  0.91803935  0.49096208  1
  O2-  O419  1  0.59889739  0.92869395  0.80753835  1
  O2-  O420  1  0.82703170  0.16342165  0.13136133  1
  O2-  O421  1  0.82317885  0.15241042  0.47735855  1
  O2-  O422  1  0.80426425  0.10927591  0.80218294  1
  O2-  O423  1  0.82803127  0.42304499  0.13925548  1
  O2-  O424  1  0.80635938  0.43600744  0.46466639  1
  O2-  O425  1  0.83248041  0.42272044  0.80695875  1
  O2-  O426  1  0.82908719  0.66616620  0.13105616  1
  O2-  O427  1  0.83690230  0.67067692  0.48815701  1
  O2-  O428  1  0.84920194  0.68534967  0.86516594  1
  O2-  O429  1  0.82609115  0.90974043  0.15262220  1
  O2-  O430  1  0.83036212  0.92018373  0.47090629  1
  O2-  O431  1  0.82618479  0.91398428  0.81891428  1
  O2-  O432  1  0.16507907  0.08034429  0.18761825  1
  O2-  O433  1  0.17216696  0.09161309  0.52573604  1
  O2-  O434  1  0.17470422  0.09130999  0.85194756  1
  O2-  O435  1  0.17428117  0.33935484  0.19193285  1
  O2-  O436  1  0.15329064  0.32607398  0.51476534  1
  O2-  O437  1  0.16540541  0.33632034  0.85320576  1
  O2-  O438  1  0.16148399  0.57313893  0.18054071  1
  O2-  O439  1  0.15589113  0.57827360  0.47489333  1
  O2-  O440  1  0.18745810  0.59596639  0.80004682  1
  O2-  O441  1  0.18522159  0.82472923  0.19663645  1
  O2-  O442  1  0.16023300  0.83173008  0.51920148  1
  O2-  O443  1  0.18730630  0.84188260  0.86527347  1
  O2-  O444  1  0.42050981  0.08656960  0.18624981  1
  O2-  O445  1  0.40950316  0.07609793  0.51460836  1
  O2-  O446  1  0.42434843  0.08344665  0.85742562  1
  O2-  O447  1  0.41555406  0.33369509  0.15832485  1
  O2-  O448  1  0.39252841  0.32870600  0.51492783  1
  O2-  O449  1  0.41819199  0.33252018  0.85690248  1
  O2-  O450  1  0.41944757  0.58482596  0.18353157  1
  O2-  O451  1  0.33218283  0.53610079  0.54593713  1
  O2-  O452  1  0.42109294  0.57775315  0.86944698  1
  O2-  O453  1  0.42355817  0.83213293  0.18447914  1
  O2-  O454  1  0.42217450  0.86884680  0.56140080  1
  O2-  O455  1  0.43745298  0.83390900  0.84625848  1
  O2-  O456  1  0.65620253  0.08361295  0.19219944  1
  O2-  O457  1  0.66193795  0.08355113  0.51504516  1
  O2-  O458  1  0.65735586  0.08456440  0.85305951  1
  O2-  O459  1  0.66369618  0.33416683  0.17783874  1
  O2-  O460  1  0.60394771  0.30163792  0.54766618  1
  O2-  O461  1  0.66736815  0.32926103  0.85360285  1
  O2-  O462  1  0.65916112  0.58195554  0.16178871  1
  O2-  O463  1  0.67944434  0.58968639  0.52932833  1
  O2-  O464  1  0.66378841  0.59261384  0.85516894  1
  O2-  O465  1  0.66305499  0.83174157  0.19126100  1
  O2-  O466  1  0.65611152  0.83644354  0.47670915  1
  O2-  O467  1  0.65750157  0.82389255  0.85827161  1
  O2-  O468  1  0.85958149  0.06134461  0.20359370  1
  O2-  O469  1  0.90971494  0.07776973  0.52130589  1
  O2-  O470  1  0.92130315  0.07744909  0.86046536  1
  O2-  O471  1  0.89968258  0.33364481  0.18076446  1
  O2-  O472  1  0.90524632  0.30894612  0.52050008  1
  O2-  O473  1  0.93040225  0.35119426  0.84728248  1
  O2-  O474  1  0.91797170  0.59114567  0.18015810  1
  O2-  O475  1  0.92040558  0.59091509  0.53355775  1
  O2-  O476  1  0.92908761  0.58906588  0.85368498  1
  O2-  O477  1  0.90344358  0.81743182  0.18429884  1
  O2-  O478  1  0.90354993  0.83635204  0.52530260  1
  O2-  O479  1  0.95160580  0.87962537  0.87028687  1
  O2-  O480  1  0.18798490  0.10256817  0.31000524  1
  O2-  O481  1  0.17508002  0.09990980  0.65330338  1
  O2-  O482  1  0.15281162  0.07510794  0.97410904  1
  O2-  O483  1  0.17426537  0.33382044  0.31470011  1
  O2-  O484  1  0.20760001  0.41768626  0.62013757  1
  O2-  O485  1  0.17204024  0.34121904  0.97812719  1
  O2-  O486  1  0.15823411  0.57734801  0.35434626  1
  O2-  O487  1  0.16568412  0.60430178  0.67616252  1
  O2-  O488  1  0.17819519  0.59832538  0.99241668  1
  O2-  O489  1  0.16878889  0.82086506  0.30559897  1
  O2-  O490  1  0.18164566  0.84799234  0.64167290  1
  O2-  O491  1  0.14565272  0.83730667  0.98324999  1
  O2-  O492  1  0.41659961  0.09381516  0.30934588  1
  O2-  O493  1  0.41359390  0.07913277  0.64008517  1
  O2-  O494  1  0.41351150  0.08438729  0.98086050  1
  O2-  O495  1  0.44471747  0.35545562  0.38116183  1
  O2-  O496  1  0.41758315  0.35042460  0.64363458  1
  O2-  O497  1  0.41477100  0.32540221  0.98196239  1
  O2-  O498  1  0.42106712  0.57807854  0.30863431  1
  O2-  O499  1  0.40734524  0.59345001  0.65022071  1
  O2-  O500  1  0.42196787  0.57403262  0.99108480  1
  O2-  O501  1  0.41055127  0.81833815  0.31185969  1
  O2-  O502  1  0.43662050  0.85867910  0.62544482  1
  O2-  O503  1  0.48321509  0.78682306  0.95299607  1
  O2-  O504  1  0.63999935  0.07397939  0.31983541  1
  O2-  O505  1  0.67580378  0.07569589  0.63828518  1
  O2-  O506  1  0.65912476  0.07143804  0.96810427  1
  O2-  O507  1  0.67103282  0.34007668  0.30683214  1
  O2-  O508  1  0.64122209  0.30785831  0.65849443  1
  O2-  O509  1  0.66209676  0.32571111  0.97739053  1
  O2-  O510  1  0.60630594  0.55226140  0.27994641  1
  O2-  O511  1  0.66989657  0.57562312  0.64909807  1
  O2-  O512  1  0.68545495  0.64025650  0.97863460  1
  O2-  O513  1  0.66410320  0.83610253  0.31789256  1
  O2-  O514  1  0.59767714  0.85363178  0.65610090  1
  O2-  O515  1  0.68551939  0.87988074  1.02374802  1
  O2-  O516  1  0.94843284  0.07607630  0.31456454  1
  O2-  O517  1  0.91215937  0.08268573  0.64432458  1
  O2-  O518  1  0.93622715  0.10004310  0.97892892  1
  O2-  O519  1  0.91972650  0.31510776  0.29496624  1
  O2-  O520  1  0.91495152  0.33613586  0.64804727  1
  O2-  O521  1  0.92966403  0.35613853  0.97624958  1
  O2-  O522  1  0.91233225  0.57983500  0.30635503  1
  O2-  O523  1  0.92729558  0.60923927  0.65561357  1
  O2-  O524  1  0.91961865  0.58750771  0.97814871  1
  O2-  O525  1  0.86905261  0.80038973  0.30841422  1
  O2-  O526  1  0.82994995  0.81440844  0.63857350  1
  O2-  O527  1  0.94704321  0.86832668  0.98474098  1
  O2-  O528  1  0.09601493  0.18076383  0.02117378  1
  O2-  O529  1  0.10086281  0.17349131  0.36113459  1
  O2-  O530  1  0.07933569  0.16150514  0.68859998  1
  O2-  O531  1  0.08890081  0.42301587  0.02677749  1
  O2-  O532  1  0.06709328  0.40351279  0.35343052  1
  O2-  O533  1  0.08459160  0.43081741  0.68036925  1
  O2-  O534  1  0.08534038  0.67272765  0.02217230  1
  O2-  O535  1  0.07481280  0.66768295  0.35232979  1
  O2-  O536  1  0.08327842  0.68991795  0.68322722  1
  O2-  O537  1  0.03646213  0.90462232  0.00895153  1
  O2-  O538  1  0.11061971  0.94191545  0.34672055  1
  O2-  O539  1  0.15776992  0.95762582  0.71059576  1
  O2-  O540  1  0.32248204  0.16096211  0.01407743  1
  O2-  O541  1  0.34605269  0.19323309  0.36424374  1
  O2-  O542  1  0.40010089  0.19821963  0.69828744  1
  O2-  O543  1  0.33293465  0.40667724  0.02206066  1
  O2-  O544  1  0.34188795  0.41222427  0.35759385  1
  O2-  O545  1  0.33573442  0.42952563  0.69315249  1
  O2-  O546  1  0.34848865  0.67050188  0.02338322  1
  O2-  O547  1  0.33327117  0.65549348  0.35156076  1
  O2-  O548  1  0.33805283  0.69403801  0.66241939  1
  O2-  O549  1  0.28753132  0.94847508  0.04537149  1
  O2-  O550  1  0.31768931  0.89900765  0.35094032  1
  O2-  O551  1  0.34381843  0.91711949  0.68688593  1
  O2-  O552  1  0.58229062  0.16177236  0.01810409  1
  O2-  O553  1  0.57722717  0.17736289  0.35405154  1
  O2-  O554  1  0.56801441  0.13588114  0.68031238  1
  O2-  O555  1  0.57320083  0.39643072  0.01028999  1
  O2-  O556  1  0.60230187  0.43980687  0.35219467  1
  O2-  O557  1  0.57383023  0.40381097  0.69327896  1
  O2-  O558  1  0.59077270  0.72155968  0.00702432  1
  O2-  O559  1  0.58468750  0.66736009  0.35221374  1
  O2-  O560  1  0.56609112  0.70494199  0.69564850  1
  O2-  O561  1  0.62405782  0.91262571  0.02262478  1
  O2-  O562  1  0.56941574  0.90983277  0.36105395  1
  O2-  O563  1  0.65918567  0.92373832  0.69434815  1
  O2-  O564  1  0.86515137  0.19149847  0.01999460  1
  O2-  O565  1  0.81694241  0.16631825  0.35720008  1
  O2-  O566  1  0.83908777  0.17057129  0.68257267  1
  O2-  O567  1  0.82707562  0.41864188  0.01377043  1
  O2-  O568  1  0.84469755  0.41472940  0.33637253  1
  O2-  O569  1  0.82143943  0.40360887  0.68170488  1
  O2-  O570  1  0.85054359  0.69598035  -0.00292423  1
  O2-  O571  1  0.81504469  0.63697623  0.36123879  1
  O2-  O572  1  0.83682530  0.67369202  0.68937703  1
  O2-  O573  1  0.85613548  0.94402402  0.03229871  1
  O2-  O574  1  0.82781587  0.91270952  0.34874195  1
  O2-  O575  1  0.80474629  0.92454333  0.69477747  1
