# generated using pymatgen
data_H2O
_symmetry_space_group_name_H-M   'P 1'
_cell_length_a   17.99233446
_cell_length_b   17.98170846
_cell_length_c   21.99734681
_cell_angle_alpha   90.01886216
_cell_angle_beta   89.95733977
_cell_angle_gamma   119.99107628
_symmetry_Int_Tables_number   1
_chemical_formula_structural   H2O
_chemical_formula_sum   'H384 O192'
_cell_volume   6163.93890719
_cell_formula_units_Z   192
loop_
 _symmetry_equiv_pos_site_id
 _symmetry_equiv_pos_as_xyz
  1  'x, y, z'
loop_
 _atom_type_symbol
 _atom_type_oxidation_number
  H+  1.0
  O2-  -2.0
loop_
 _atom_site_type_symbol
 _atom_site_label
 _atom_site_symmetry_multiplicity
 _atom_site_fract_x
 _atom_site_fract_y
 _atom_site_fract_z
 _atom_site_occupancy
  H+  H0  1  -0.02049681  0.12192891  0.32780902  1
  H+  H1  1  0.69922416  0.13570557  0.60779051  1
  H+  H2  1  0.87395756  0.01306324  0.13730263  1
  H+  H3  1  0.13058551  0.27006112  0.32114025  1
  H+  H4  1  0.11490987  0.88532418  0.83655384  1
  H+  H5  1  0.87101047  0.38655977  0.82210340  1
  H+  H6  1  0.57567894  0.43539636  0.52769867  1
  H+  H7  1  0.10581264  0.96669590  0.49314586  1
  H+  H8  1  0.52429301  0.89483599  0.16190220  1
  H+  H9  1  0.48046179  0.60875071  0.84027926  1
  H+  H10  1  0.34131953  0.12657547  0.00003323  1
  H+  H11  1  0.47688189  0.60961003  0.17311964  1
  H+  H12  1  0.88000203  0.48564342  0.48853028  1
  H+  H13  1  0.31859230  0.17290165  0.72610612  1
  H+  H14  1  0.30488528  0.41383266  0.77472305  1
  H+  H15  1  0.15754767  0.61877315  0.51003252  1
  H+  H16  1  -0.02137431  0.10665153  0.67131410  1
  H+  H17  1  0.43820442  0.35508458  0.53870101  1
  H+  H18  1  0.36444717  0.29124126  0.67656947  1
  H+  H19  1  0.19016638  0.80231045  0.33164997  1
  H+  H20  1  0.65543706  0.83055821  0.56523631  1
  H+  H21  1  0.62546980  0.12842054  0.53045686  1
  H+  H22  1  0.09999073  0.37392627  0.33954662  1
  H+  H23  1  0.83648664  0.42284519  0.43009849  1
  H+  H24  1  0.22871962  0.86033850  0.84407463  1
  H+  H25  1  0.39036514  0.52098529  -0.00221728  1
  H+  H26  1  0.21518327  0.85653397  1.01039908  1
  H+  H27  1  0.50796408  0.88822751  0.01545417  1
  H+  H28  1  0.83348565  0.78078950  0.10880208  1
  H+  H29  1  0.51386740  0.12957702  0.31355311  1
  H+  H30  1  0.57023739  0.91587159  0.41491810  1
  H+  H31  1  0.87301855  0.78989380  0.12662463  1
  H+  H32  1  0.61773140  0.35201411  0.67133951  1
  H+  H33  1  0.35609409  0.01179924  1.01096317  1
  H+  H34  1  0.13370082  0.50978610  0.85781302  1
  H+  H35  1  0.34196748  0.79579930  0.52329800  1
  H+  H36  1  0.83330064  0.17077250  0.09347061  1
  H+  H37  1  0.62954249  0.53636315  0.32534138  1
  H+  H38  1  0.35066667  0.37965897  0.17455168  1
  H+  H39  1  0.37163609  0.38166792  1.00454239  1
  H+  H40  1  0.49837430  0.88114116  0.50494596  1
  H+  H41  1  0.36703526  0.88847284  0.82061998  1
  H+  H42  1  0.72998977  0.11579970  0.17425990  1
  H+  H43  1  0.11404604  0.88195922  0.49308601  1
  H+  H44  1  0.15199941  0.32142177  0.56304177  1
  H+  H45  1  -0.02959521  0.60966481  -0.00945262  1
  H+  H46  1  0.52094646  0.32501498  0.67789137  1
  H+  H47  1  0.77097488  0.63189898  0.82963326  1
  H+  H48  1  0.65419566  0.27824447  0.82370343  1
  H+  H49  1  0.11432682  0.23183723  1.01695535  1
  H+  H50  1  0.93150673  0.13459898  0.27200601  1
  H+  H51  1  0.10056010  0.73480292  0.15876394  1
  H+  H52  1  0.38948234  0.50726136  0.51100629  1
  H+  H53  1  0.35981440  0.12800347  0.49039957  1
  H+  H54  1  0.09998693  0.63536906  0.67267656  1
  H+  H55  1  0.92013522  0.34150224  0.56007429  1
  H+  H56  1  0.87348042  0.01286403  0.51703730  1
  H+  H57  1  0.38953720  0.60727876  0.83882155  1
  H+  H58  1  0.84059956  0.88769480  0.08180009  1
  H+  H59  1  0.16924223  0.37632885  1.04618202  1
  H+  H60  1  0.38563224  0.11911575  0.15029880  1
  H+  H61  1  0.63205634  0.25292143  1.00378398  1
  H+  H62  1  0.21511438  0.10215477  0.50035060  1
  H+  H63  1  0.56923359  0.41299734  0.13698926  1
  H+  H64  1  0.90172868  0.62103941  0.50721951  1
  H+  H65  1  0.85196678  0.13031434  0.35044866  1
  H+  H66  1  0.20016838  0.61297980  0.69236690  1
  H+  H67  1  0.46943063  0.61497717  0.33601183  1
  H+  H68  1  0.97448949  0.12018522  0.98581581  1
  H+  H69  1  0.21656664  0.59838604  1.02066938  1
  H+  H70  1  0.85320874  0.71925159  0.00475206  1
  H+  H71  1  0.21186822  0.34532414  0.17285839  1
  H+  H72  1  0.73165598  0.62284580  0.66231542  1
  H+  H73  1  0.24984872  0.13673310  0.82054430  1
  H+  H74  1  0.85421597  0.97105977  0.82567717  1
  H+  H75  1  0.60940422  0.72260403  0.83555702  1
  H+  H76  1  0.68322508  0.63812422  0.50110609  1
  H+  H77  1  0.86328380  1.01040160  0.67428809  1
  H+  H78  1  0.20559041  0.98399166  0.71479066  1
  H+  H79  1  0.63285659  0.85941101  0.65715332  1
  H+  H80  1  0.51680027  0.13096549  0.15046837  1
  H+  H81  1  0.73213707  0.11966754  0.54324161  1
  H+  H82  1  0.65592654  0.36268428  0.16957826  1
  H+  H83  1  0.31582219  0.38526521  0.69693035  1
  H+  H84  1  0.43479398  0.10348739  0.86143334  1
  H+  H85  1  0.14602218  0.29374930  0.88703697  1
  H+  H86  1  0.10892806  0.88839393  1.01006682  1
  H+  H87  1  0.85745930  0.21744697  0.49693727  1
  H+  H88  1  0.64139581  0.79087624  0.32143387  1
  H+  H89  1  0.36933817  0.27320672  0.82535196  1
  H+  H90  1  0.25646948  0.13598918  -0.00395620  1
  H+  H91  1  0.27762162  0.62840214  0.34178065  1
  H+  H92  1  0.87278509  0.11281706  0.82113604  1
  H+  H93  1  0.36838321  0.48405477  0.83489391  1
  H+  H94  1  1.01048821  0.37394430  0.34540384  1
  H+  H95  1  0.34425560  0.87973663  0.04798112  1
  H+  H96  1  0.12246832  0.01828879  0.83898939  1
  H+  H97  1  0.15949177  0.36425582  0.70170726  1
  H+  H98  1  0.62524015  0.64405960  0.68326374  1
  H+  H99  1  0.53434280  0.89149596  0.66932771  1
  H+  H100  1  0.46481117  0.36065193  0.34942880  1
  H+  H101  1  0.60952182  0.63452443  0.00336185  1
  H+  H102  1  0.09385270  0.91490350  0.77425493  1
  H+  H103  1  0.39066482  0.85964031  0.32097931  1
  H+  H104  1  0.71962610  0.85558826  0.65635188  1
  H+  H105  1  0.87924350  0.63755941  0.34244521  1
  H+  H106  1  0.90800312  0.31897186  0.88623123  1
  H+  H107  1  0.72814970  0.11298172  0.33164893  1
  H+  H108  1  0.22918120  0.37843878  0.86811423  1
  H+  H109  1  0.72167437  0.85813932  0.84534070  1
  H+  H110  1  0.32953474  0.17586428  0.08029612  1
  H+  H111  1  0.97521862  0.86842644  0.66286215  1
  H+  H112  1  0.54349462  0.13778491  0.80676216  1
  H+  H113  1  0.33165020  0.36496352  0.49144837  1
  H+  H114  1  0.86323435  0.63767729  0.67344816  1
  H+  H115  1  0.54109244  0.39112239  0.04307290  1
  H+  H116  1  0.11992428  0.90096298  0.15905917  1
  H+  H117  1  0.37038590  0.89270724  0.67327716  1
  H+  H118  1  0.38772283  0.91548112  0.47902947  1
  H+  H119  1  1.00326001  0.36637173  0.49348636  1
  H+  H120  1  0.87327351  0.59294985  0.16399273  1
  H+  H121  1  0.37553561  0.35764995  0.35863029  1
  H+  H122  1  0.14507736  0.01713699  0.32168748  1
  H+  H123  1  0.27965556  0.88807077  0.66853425  1
  H+  H124  1  0.85957807  -0.01215824  0.32431848  1
  H+  H125  1  0.21155696  0.35117311  0.50303524  1
  H+  H126  1  0.12354680  0.11181984  0.99066426  1
  H+  H127  1  0.14693955  0.86290585  0.32713954  1
  H+  H128  1  0.00373168  0.11992396  0.49807068  1
  H+  H129  1  1.01500484  0.11942867  0.15934928  1
  H+  H130  1  0.14350950  0.02872220  0.17019312  1
  H+  H131  1  0.58853753  0.57903449  0.52543991  1
  H+  H132  1  0.84382827  0.37427151  0.34138347  1
  H+  H133  1  0.39241469  0.03636299  0.31007670  1
  H+  H134  1  0.36349172  0.75928984  1.01833626  1
  H+  H135  1  0.89062303  0.36318288  0.49719712  1
  H+  H136  1  0.86521872  0.14035120  0.15077197  1
  H+  H137  1  0.91099782  0.28249100  0.14392515  1
  H+  H138  1  0.12409492  0.10115501  0.50079996  1
  H+  H139  1  0.85759645  0.88280357  0.83069794  1
  H+  H140  1  0.88190736  1.03713363  -0.01092817  1
  H+  H141  1  0.88061861  0.35944536  0.97568023  1
  H+  H142  1  0.61546612  0.88387360  0.82551473  1
  H+  H143  1  0.10892785  0.72209704  0.01105524  1
  H+  H144  1  0.97070582  0.61569541  0.65682703  1
  H+  H145  1  0.85338300  0.12611301  0.50064274  1
  H+  H146  1  0.21505829  0.86003258  0.15761775  1
  H+  H147  1  0.63139238  0.77010696  0.16047228  1
  H+  H148  1  0.16637217  0.51068871  0.15936934  1
  H+  H149  1  0.40185728  0.78203842  0.16378821  1
  H+  H150  1  0.28975560  0.61824887  0.50054891  1
  H+  H151  1  0.13805107  0.77582016  0.65330442  1
  H+  H152  1  0.62715446  0.77415355  -0.00125316  1
  H+  H153  1  0.36630675  0.47567304  0.34262491  1
  H+  H154  1  0.88374721  0.52439577  0.65950411  1
  H+  H155  1  0.60146102  0.33085922  0.52733427  1
  H+  H156  1  0.62412474  0.26810326  0.31719375  1
  H+  H157  1  -0.00633120  0.12153028  0.81623240  1
  H+  H158  1  0.36096864  0.01152290  0.83982225  1
  H+  H159  1  0.37771083  0.99650607  0.49172135  1
  H+  H160  1  0.10696346  0.38719498  0.84094129  1
  H+  H161  1  0.52220489  0.38502036  0.81413043  1
  H+  H162  1  0.27975478  0.63307709  0.16224512  1
  H+  H163  1  0.03630518  0.89065314  0.34165133  1
  H+  H164  1  0.38619036  0.52226651  0.17737016  1
  H+  H165  1  0.61471007  0.71687073  0.51214793  1
  H+  H166  1  0.54999091  0.41505941  0.26883511  1
  H+  H167  1  0.66094714  0.83335055  0.90440644  1
  H+  H168  1  0.27709288  0.62869508  0.83396723  1
  H+  H169  1  0.60179345  0.46678941  -0.00431761  1
  H+  H170  1  0.88403681  0.26369334  0.82258120  1
  H+  H171  1  0.89041936  0.52203815  0.83574125  1
  H+  H172  1  0.85433177  0.63068057  0.99732291  1
  H+  H173  1  0.64728761  0.36293142  0.82614726  1
  H+  H174  1  0.89893578  0.79386384  0.32445408  1
  H+  H175  1  -0.03531068  0.85471119  -0.00065404  1
  H+  H176  1  0.62898173  0.35409459  -0.00420987  1
  H+  H177  1  0.09999456  0.36623971  0.49489727  1
  H+  H178  1  0.64012263  0.37296078  0.51844682  1
  H+  H179  1  0.26581822  0.15170790  0.66439145  1
  H+  H180  1  0.76723617  0.61988197  0.15464368  1
  H+  H181  1  0.60375183  0.38884202  0.31036907  1
  H+  H182  1  0.38393998  0.73827200  0.51353582  1
  H+  H183  1  0.61465797  0.89518275  0.15744279  1
  H+  H184  1  0.87882664  0.39055941  0.14386850  1
  H+  H185  1  1.01467007  0.37940120  0.82987965  1
  H+  H186  1  0.10116572  0.21410049  0.16245266  1
  H+  H187  1  0.14564416  0.59988334  0.87955805  1
  H+  H188  1  0.38043049  0.61800068  0.49917386  1
  H+  H189  1  0.14162324  0.03053155  0.65693123  1
  H+  H190  1  0.03750289  0.64143541  0.49327878  1
  H+  H191  1  0.67202946  0.08155480  0.93000747  1
  H+  H192  1  0.03613353  0.38833397  0.67898573  1
  H+  H193  1  0.71785877  0.61967622  0.34020636  1
  H+  H194  1  0.34739518  0.97810897  0.13219612  1
  H+  H195  1  0.13238184  0.59848603  0.31753911  1
  H+  H196  1  0.61354483  0.64252456  0.16059895  1
  H+  H197  1  0.88095265  0.27229995  0.98138496  1
  H+  H198  1  0.59533559  0.95407507  0.34987240  1
  H+  H199  1  0.64692811  0.54287520  0.18965232  1
  H+  H200  1  0.63239935  1.02445648  -0.00973139  1
  H+  H201  1  0.64054031  0.26604851  0.16551501  1
  H+  H202  1  0.15148980  0.90376379  0.67391856  1
  H+  H203  1  0.90598803  0.08749061  0.88487089  1
  H+  H204  1  0.28749563  0.38497740  0.02252143  1
  H+  H205  1  0.64892499  0.10826233  0.83779334  1
  H+  H206  1  0.01072446  0.63829584  0.82247493  1
  H+  H207  1  0.77389959  0.58903504  0.49074217  1
  H+  H208  1  0.88335595  0.60922843  0.83707822  1
  H+  H209  1  0.23050450  0.11101242  0.32110839  1
  H+  H210  1  0.42157316  0.09054460  0.56597040  1
  H+  H211  1  0.63342977  0.11180199  0.31977142  1
  H+  H212  1  0.89345071  0.51747391  0.16818138  1
  H+  H213  1  1.02313555  0.39909611  0.09183307  1
  H+  H214  1  0.35327974  0.62926764  0.01195462  1
  H+  H215  1  0.61994931  0.97512611  0.82366760  1
  H+  H216  1  0.73581776  0.10630765  0.83125193  1
  H+  H217  1  0.13029013  0.11535002  0.17648081  1
  H+  H218  1  0.59679425  -0.08052059  0.50898592  1
  H+  H219  1  0.76565628  0.35146395  0.51948696  1
  H+  H220  1  0.71819772  0.85934154  0.14897565  1
  H+  H221  1  0.98205920  0.36181356  0.18239822  1
  H+  H222  1  0.58274247  0.10352726  0.66662618  1
  H+  H223  1  0.63506831  0.52077375  0.83494438  1
  H+  H224  1  0.63440256  0.60942259  0.84018410  1
  H+  H225  1  0.88133596  0.76909751  0.84199147  1
  H+  H226  1  0.26884885  0.39425074  0.33698925  1
  H+  H227  1  0.15150276  0.77779837  0.49883774  1
  H+  H228  1  0.74344121  0.87867045  0.31038626  1
  H+  H229  1  0.56365828  0.43383931  0.59770675  1
  H+  H230  1  0.75561322  0.37617786  0.33733898  1
  H+  H231  1  0.77983721  0.16240998  0.71647423  1
  H+  H232  1  0.86795606  0.25719826  0.34271229  1
  H+  H233  1  0.13707410  0.77500188  0.84474430  1
  H+  H234  1  0.85731702  0.88471915  0.67660763  1
  H+  H235  1  0.37115366  0.76277413  0.31895356  1
  H+  H236  1  1.00737466  0.92084533  0.18453319  1
  H+  H237  1  0.29528011  0.17353090  0.14818607  1
  H+  H238  1  0.86545259  0.50676801  0.32156513  1
  H+  H239  1  0.71605769  0.60300981  0.99148213  1
  H+  H240  1  0.23785532  0.87071592  0.49985945  1
  H+  H241  1  0.40825198  0.60074106  0.66053151  1
  H+  H242  1  0.74412243  0.90208401  0.02003284  1
  H+  H243  1  0.30665002  0.62452159  0.66331877  1
  H+  H244  1  0.33513184  0.13179344  0.82259892  1
  H+  H245  1  0.61590046  0.67516253  0.36301765  1
  H+  H246  1  0.48767550  0.86433772  0.82253911  1
  H+  H247  1  0.85639523  0.47548397  -0.00331958  1
  H+  H248  1  0.09860300  0.47909984  0.04402606  1
  H+  H249  1  0.10733910  0.63101923  0.01870628  1
  H+  H250  1  0.77093126  0.13715787  0.00323490  1
  H+  H251  1  -0.02985429  0.85746662  0.84237325  1
  H+  H252  1  0.39042138  0.12368983  0.30810582  1
  H+  H253  1  0.29566269  0.91409527  0.33109554  1
  H+  H254  1  0.61482724  0.72766144  0.67930440  1
  H+  H255  1  0.35826897  0.22397011  0.34754512  1
  H+  H256  1  0.08245146  0.11206205  0.66196989  1
  H+  H257  1  0.08193142  0.69766084  0.32307611  1
  H+  H258  1  0.46844897  0.35053427  0.97099909  1
  H+  H259  1  0.35966571  0.38385766  0.82932643  1
  H+  H260  1  0.08299694  0.21012401  0.80350978  1
  H+  H261  1  0.38683510  0.03247384  0.65868452  1
  H+  H262  1  0.49505972  0.60337876  0.66328515  1
  H+  H263  1  0.11285664  0.10244429  0.83314138  1
  H+  H264  1  0.69116531  0.26189087  0.67268857  1
  H+  H265  1  0.68207721  0.25776442  0.52573331  1
  H+  H266  1  0.37541523  0.26444306  0.97670212  1
  H+  H267  1  0.78624458  0.38684793  0.67869048  1
  H+  H268  1  0.10552890  0.12436238  0.34026838  1
  H+  H269  1  0.58491956  0.66797638  0.77350196  1
  H+  H270  1  0.78487791  0.37954624  0.15386124  1
  H+  H271  1  0.60372458  0.12672285  0.15858223  1
  H+  H272  1  0.85761462  0.88420094  0.50538902  1
  H+  H273  1  0.72637014  0.36259192  0.99794067  1
  H+  H274  1  0.00471326  0.63571583  0.16072310  1
  H+  H275  1  0.39708008  0.77881562  0.66997548  1
  H+  H276  1  0.62442580  0.14277049  0.00045732  1
  H+  H277  1  0.42406449  0.29502814  0.11587899  1
  H+  H278  1  0.48842942  0.11734624  0.51080407  1
  H+  H279  1  0.09267141  0.93367118  0.09861703  1
  H+  H280  1  0.13120749  0.51123617  0.32582431  1
  H+  H281  1  0.90690094  0.39598099  0.65440345  1
  H+  H282  1  0.13194870  0.51582452  0.67763553  1
  H+  H283  1  0.43494436  0.38525306  0.09620528  1
  H+  H284  1  0.90812215  0.88262021  0.18490786  1
  H+  H285  1  0.88065031  0.76521962  0.51369752  1
  H+  H286  1  0.80981747  0.62659119  0.08859837  1
  H+  H287  1  0.78274611  0.39006876  0.82112237  1
  H+  H288  1  0.85093890  0.42726834  0.73515259  1
  H+  H289  1  0.82675260  0.65426144  0.43713520  1
  H+  H290  1  0.43300100  0.83577689  0.88176359  1
  H+  H291  1  0.61692981  0.14476270  0.46131274  1
  H+  H292  1  0.08852807  0.66224243  0.43112401  1
  H+  H293  1  0.41335149  0.57728621  0.93694434  1
  H+  H294  1  0.88542565  0.03298414  0.20630694  1
  H+  H295  1  0.07215507  0.67667651  0.72607865  1
  H+  H296  1  0.07149057  0.14965110  0.40017695  1
  H+  H297  1  0.36933326  0.05100005  0.94405308  1
  H+  H298  1  0.86274813  0.14341046  0.00056117  1
  H+  H299  1  0.34830073  0.29040289  0.56709368  1
  H+  H300  1  0.35002282  0.94662493  0.39253748  1
  H+  H301  1  0.16952528  0.83514477  0.22349915  1
  H+  H302  1  0.61624268  0.85844657  0.99740968  1
  H+  H303  1  0.33104200  0.65634489  0.07717090  1
  H+  H304  1  0.33186069  0.91676843  0.76384675  1
  H+  H305  1  0.90156579  0.56938289  0.26222954  1
  H+  H306  1  0.92342054  0.58532352  0.56629049  1
  H+  H307  1  0.55742712  0.14816528  0.37799526  1
  H+  H308  1  0.16977095  0.83185009  0.94411210  1
  H+  H309  1  0.07113698  0.39807328  0.43072124  1
  H+  H310  1  0.36564522  0.82310464  0.96862134  1
  H+  H311  1  0.36375853  0.71871949  0.82227134  1
  H+  H312  1  0.67273383  0.61708935  0.60620207  1
  H+  H313  1  0.66618660  0.32487324  0.25803722  1
  H+  H314  1  0.61419147  0.14954671  0.76056767  1
  H+  H315  1  0.30970648  0.40750927  0.43450501  1
  H+  H316  1  0.13318519  0.35201802  0.15286520  1
  H+  H317  1  0.57996738  0.66282237  0.09747148  1
  H+  H318  1  0.65744477  0.57462636  0.93206480  1
  H+  H319  1  0.90764461  0.82697362  0.94005955  1
  H+  H320  1  0.60703598  0.44155906  0.42998363  1
  H+  H321  1  0.58512404  0.41197998  0.75768271  1
  H+  H322  1  0.76932121  0.88470777  0.49977363  1
  H+  H323  1  0.91809542  0.83383458  0.60315648  1
  H+  H324  1  0.41599221  0.82467544  0.60691984  1
  H+  H325  1  0.43330021  0.56694458  0.56830568  1
  H+  H326  1  0.83190527  0.66382046  0.77076220  1
  H+  H327  1  0.07044566  0.66876155  0.09664973  1
  H+  H328  1  0.40583718  0.08204446  0.21004927  1
  H+  H329  1  0.83442657  0.41808306  0.05692900  1
  H+  H330  1  0.86463382  0.90214494  0.33452723  1
  H+  H331  1  0.67190749  0.61058406  0.24297424  1
  H+  H332  1  0.41718119  0.83641075  0.22259275  1
  H+  H333  1  0.09524741  0.91499002  0.40014986  1
  H+  H334  1  0.40526900  0.32915795  0.88599281  1
  H+  H335  1  0.94063527  0.87235203  0.27590097  1
  H+  H336  1  0.40349892  0.31434228  0.23427935  1
  H+  H337  1  0.33292103  0.40672521  0.10888620  1
  H+  H338  1  0.59576151  0.91890155  0.72608265  1
  H+  H339  1  0.09707155  0.63724962  0.80766050  1
  H+  H340  1  0.17912649  0.59092418  0.57238822  1
  H+  H341  1  0.64057684  0.02208972  0.17671264  1
  H+  H342  1  0.00234799  0.60841649  0.33474400  1
  H+  H343  1  0.58091484  0.39338358  0.42732206  1
  H+  H344  1  0.08288890  0.41347164  0.74427590  1
  H+  H345  1  0.59887948  0.73411017  0.40924880  1
  H+  H346  1  0.82150365  0.90581806  0.73755153  1
  H+  H347  1  0.89468492  0.31004106  0.28153683  1
  H+  H348  1  0.81505463  0.15111262  0.41235054  1
  H+  H349  1  0.52099000  0.63558664  0.00541810  1
  H+  H350  1  0.89897422  0.07679920  0.57455744  1
  H+  H351  1  0.33961120  0.65837600  0.39871671  1
  H+  H352  1  0.34842876  0.20952460  0.48658177  1
  H+  H353  1  0.43367630  0.57360016  0.27149938  1
  H+  H354  1  0.59083409  0.16607343  0.06303117  1
  H+  H355  1  0.93540828  0.71833371  0.38224047  1
  H+  H356  1  0.37072701  0.63764365  0.16475311  1
  H+  H357  1  0.40201014  0.35527042  0.23846585  1
  H+  H358  1  0.67644855  0.08677230  0.25749555  1
  H+  H359  1  0.15602098  0.55521653  0.96437060  1
  H+  H360  1  0.07355881  0.15809958  0.06586288  1
  H+  H361  1  0.15056044  0.32788612  0.26152639  1
  H+  H362  1  0.42418019  0.38781635  0.65037104  1
  H+  H363  1  0.15291496  0.08032846  0.59346089  1
  H+  H364  1  0.33849885  0.65247405  0.73250200  1
  H+  H365  1  0.86864824  0.10280786  0.68769238  1
  H+  H366  1  0.17037192  0.55730114  0.22290885  1
  H+  H367  1  0.70089475  0.31658684  0.61527086  1
  H+  H368  1  0.09246807  0.20799908  0.49347957  1
  H+  H369  1  0.17595891  0.36096003  0.97356448  1
  H+  H370  1  0.86679776  0.72841313  0.67767860  1
  H+  H371  1  0.16847261  0.08332776  0.23881226  1
  H+  H372  1  0.05554802  0.14101794  0.72717684  1
  H+  H373  1  0.10679256  0.97686915  0.00455648  1
  H+  H374  1  0.17430945  0.83631494  0.59387314  1
  H+  H375  1  0.98852581  0.44778122  0.61457732  1
  H+  H376  1  0.91734417  0.58293750  0.92792408  1
  H+  H377  1  0.57685688  0.92382529  0.06853349  1
  H+  H378  1  0.67021860  0.47642960  0.12322561  1
  H+  H379  1  0.38366045  0.11957747  0.65587144  1
  H+  H380  1  0.14855443  0.08032335  0.92956139  1
  H+  H381  1  0.97263851  0.85076473  0.50751112  1
  H+  H382  1  0.67393642  0.83297242  0.24838922  1
  H+  H383  1  0.32531980  0.14648357  0.39183977  1
  O2-  O384  1  0.07765669  0.15214920  0.14978728  1
  O2-  O385  1  0.06263025  0.14760489  0.47907733  1
  O2-  O386  1  0.05643081  0.14813094  0.79846843  1
  O2-  O387  1  0.14525086  0.42337385  0.09927530  1
  O2-  O388  1  0.06779555  0.39508330  0.47747199  1
  O2-  O389  1  0.07919382  0.41656506  0.82117594  1
  O2-  O390  1  0.06744849  0.67243619  0.14374530  1
  O2-  O391  1  0.09645463  0.67104348  0.47558260  1
  O2-  O392  1  0.07199625  0.67421974  0.80481394  1
  O2-  O393  1  0.09879464  0.94001566  0.14484781  1
  O2-  O394  1  0.07840403  0.90624557  0.47751756  1
  O2-  O395  1  0.08305801  0.91232121  0.81850255  1
  O2-  O396  1  0.34757087  0.18914967  0.12502911  1
  O2-  O397  1  0.32211158  0.14896779  0.47309684  1
  O2-  O398  1  0.31036768  0.16540234  0.80470519  1
  O2-  O399  1  0.32215411  0.40657416  0.15358371  1
  O2-  O400  1  0.30364801  0.39864309  0.48003687  1
  O2-  O401  1  0.32785215  0.41931223  0.82367871  1
  O2-  O402  1  0.34065466  0.66624971  0.14647053  1
  O2-  O403  1  0.34957877  0.64877663  0.48448827  1
  O2-  O404  1  0.33267130  0.65624459  0.81196427  1
  O2-  O405  1  0.30943013  0.91555155  0.12168356  1
  O2-  O406  1  0.34829927  0.93712954  0.47185874  1
  O2-  O407  1  0.33145891  0.91466531  0.80971288  1
  O2-  O408  1  0.57982407  0.16071003  0.14059309  1
  O2-  O409  1  0.59749389  0.15306933  0.50067805  1
  O2-  O410  1  0.60547295  0.16545165  0.80340916  1
  O2-  O411  1  0.62827036  0.44127027  0.15457010  1
  O2-  O412  1  0.53960057  0.44033764  0.55888654  1
  O2-  O413  1  0.58349887  0.41664930  0.80253947  1
  O2-  O414  1  0.57909564  0.66707317  0.14300973  1
  O2-  O415  1  0.59961019  0.75737723  0.49234733  1
  O2-  O416  1  0.57986660  0.66238818  0.81948046  1
  O2-  O417  1  0.58846478  0.93083546  0.14722119  1
  O2-  O418  1  0.55320820  0.93116876  0.49219647  1
  O2-  O419  1  0.58708777  0.91466255  0.80764417  1
  O2-  O420  1  0.83962521  0.17606963  0.13961281  1
  O2-  O421  1  0.82322492  0.15644212  0.48424414  1
  O2-  O422  1  0.83183384  0.16008270  0.79777498  1
  O2-  O423  1  0.84352783  0.41813662  0.13697104  1
  O2-  O424  1  0.85206038  0.42519933  0.47382086  1
  O2-  O425  1  0.84621391  0.42333793  0.80957486  1
  O2-  O426  1  0.79787200  0.59808252  0.12963165  1
  O2-  O427  1  0.81315111  0.64962472  0.48164919  1
  O2-  O428  1  0.83251315  0.66256300  0.81629112  1
  O2-  O429  1  0.81291159  0.92016752  0.09574391  1
  O2-  O430  1  0.83200744  0.91866087  0.49188468  1
  O2-  O431  1  0.82384810  0.90886231  0.81419296  1
  O2-  O432  1  0.16800043  0.08936140  0.19048982  1
  O2-  O433  1  0.15537599  0.07241958  0.51713253  1
  O2-  O434  1  0.14905623  0.08030182  0.85071860  1
  O2-  O435  1  0.14908984  0.31792307  0.18124654  1
  O2-  O436  1  0.14844508  0.31939913  0.51874802  1
  O2-  O437  1  0.17196722  0.35608892  0.88741582  1
  O2-  O438  1  0.17773579  0.56516317  0.17827467  1
  O2-  O439  1  0.18668426  0.59004313  0.52832082  1
  O2-  O440  1  0.17364750  0.56543207  0.87974741  1
  O2-  O441  1  0.15775840  0.83218850  0.17913051  1
  O2-  O442  1  0.17794119  0.83774852  0.51528260  1
  O2-  O443  1  0.17039845  0.83321174  0.86298589  1
  O2-  O444  1  0.40759174  0.08107554  0.16461092  1
  O2-  O445  1  0.42574305  0.09104459  0.51998681  1
  O2-  O446  1  0.37266293  0.06673491  0.86009199  1
  O2-  O447  1  0.46739468  0.35679418  0.10669193  1
  O2-  O448  1  0.37801111  0.30996072  0.52824756  1
  O2-  O449  1  0.40346636  0.33388481  0.84027265  1
  O2-  O450  1  0.41885105  0.58188981  0.19251025  1
  O2-  O451  1  0.43149395  0.56661579  0.52267516  1
  O2-  O452  1  0.41807139  0.57572261  0.85474646  1
  O2-  O453  1  0.43140214  0.84234405  0.17808507  1
  O2-  O454  1  0.39571631  0.79679705  0.53096574  1
  O2-  O455  1  0.42516621  0.83218136  0.83779478  1
  O2-  O456  1  0.67256587  0.08403330  0.19420719  1
  O2-  O457  1  0.68058707  0.10439973  0.56755356  1
  O2-  O458  1  0.67769212  0.07653047  0.85245171  1
  O2-  O459  1  0.67928828  0.32505043  0.18213267  1
  O2-  O460  1  0.72996951  0.30494853  0.54818156  1
  O2-  O461  1  0.68286653  0.33807543  0.83866989  1
  O2-  O462  1  0.67207575  0.60500633  0.19786167  1
  O2-  O463  1  0.64037240  0.63554532  0.52978362  1
  O2-  O464  1  0.66492662  0.57875452  0.85429555  1
  O2-  O465  1  0.66570118  0.83215375  0.17414193  1
  O2-  O466  1  0.66002514  0.84148353  0.51943574  1
  O2-  O467  1  0.66045043  0.82874942  0.85920308  1
  O2-  O468  1  0.90307706  0.06166616  0.16695605  1
  O2-  O469  1  0.90367580  0.07626317  0.52986009  1
  O2-  O470  1  0.90433498  0.08093471  0.83994097  1
  O2-  O471  1  0.94791779  0.34756166  0.14529333  1
  O2-  O472  1  0.91704120  0.32987914  0.51502435  1
  O2-  O473  1  0.91438616  0.32378904  0.84040916  1
  O2-  O474  1  0.91551586  0.57769833  0.18363074  1
  O2-  O475  1  0.93077416  0.58975729  0.52047425  1
  O2-  O476  1  0.91955923  0.58381946  0.85043507  1
  O2-  O477  1  0.95954681  0.91940827  0.20849524  1
  O2-  O478  1  0.91492957  0.82506084  0.52735528  1
  O2-  O479  1  0.90990705  0.82987937  0.85675952  1
  O2-  O480  1  0.16924604  0.07680727  0.30488189  1
  O2-  O481  1  0.15171485  0.08577091  0.63907186  1
  O2-  O482  1  0.15192658  0.07992740  0.97495001  1
  O2-  O483  1  0.15344187  0.32980938  0.30691284  1
  O2-  O484  1  0.19213764  0.33439719  0.71230972  1
  O2-  O485  1  0.18365627  0.34361104  1.01457949  1
  O2-  O486  1  0.16303090  0.56795449  0.30584878  1
  O2-  O487  1  0.15499105  0.57746822  0.66354972  1
  O2-  O488  1  0.15349604  0.56659739  1.00823713  1
  O2-  O489  1  0.17990202  0.83939147  0.30470793  1
  O2-  O490  1  0.17409803  0.83666634  0.63942855  1
  O2-  O491  1  0.15908298  0.82635023  0.98893228  1
  O2-  O492  1  0.41973825  0.09440190  0.28903555  1
  O2-  O493  1  0.41446672  0.09084226  0.64068999  1
  O2-  O494  1  0.37906601  0.06565213  0.98758195  1
  O2-  O495  1  0.40573745  0.32447356  0.36430008  1
  O2-  O496  1  0.38205821  0.35336013  0.68115114  1
  O2-  O497  1  0.40633132  0.32509370  0.96060273  1
  O2-  O498  1  0.44451166  0.56089519  0.31346020  1
  O2-  O499  1  0.43605319  0.56911163  0.64588607  1
  O2-  O500  1  0.41359517  0.58044384  0.98214261  1
  O2-  O501  1  0.37841253  0.81207832  0.29366937  1
  O2-  O502  1  0.42027133  0.83649097  0.65154665  1
  O2-  O503  1  0.38656314  0.82258498  1.00934945  1
  O2-  O504  1  0.67153966  0.08763020  0.30701883  1
  O2-  O505  1  0.70683129  0.17684677  0.67691395  1
  O2-  O506  1  0.66742150  0.08461225  0.97542084  1
  O2-  O507  1  0.65713015  0.32842037  0.30293693  1
  O2-  O508  1  0.68996224  0.31581195  0.66048229  1
  O2-  O509  1  0.66276647  0.32438705  0.98810339  1
  O2-  O510  1  0.66108273  0.60047139  0.32326820  1
  O2-  O511  1  0.67131898  0.59798651  0.64834234  1
  O2-  O512  1  0.65452355  0.57236102  0.97772977  1
  O2-  O513  1  0.67945785  0.84293884  0.29384325  1
  O2-  O514  1  0.65997712  0.82497931  0.64046296  1
  O2-  O515  1  0.65417930  0.83515132  0.98478230  1
  O2-  O516  1  0.92044052  0.10369578  0.31040703  1
  O2-  O517  1  0.89367231  0.07370809  0.66238740  1
  O2-  O518  1  0.91545006  0.09316529  0.96855167  1
  O2-  O519  1  0.89886332  0.31748067  0.32557197  1
  O2-  O520  1  0.95115385  0.38939703  0.62927042  1
  O2-  O521  1  0.90973146  0.32885439  0.96056969  1
  O2-  O522  1  0.90016683  0.56823261  0.30775918  1
  O2-  O523  1  0.91068829  0.58378429  0.64085549  1
  O2-  O524  1  0.91163488  0.58019055  0.97339577  1
  O2-  O525  1  0.93257267  0.85668992  0.32044930  1
  O2-  O526  1  0.91597250  0.83574482  0.64895725  1
  O2-  O527  1  0.90468029  0.82213267  0.98507811  1
  O2-  O528  1  0.07726466  0.16819286  0.02141069  1
  O2-  O529  1  0.07584709  0.15497961  0.35469523  1
  O2-  O530  1  0.04809947  0.13729893  0.68094884  1
  O2-  O531  1  0.07266487  0.41796264  0.06230222  1
  O2-  O532  1  0.07086685  0.40287788  0.35995531  1
  O2-  O533  1  0.09305224  0.41531212  0.69913462  1
  O2-  O534  1  0.07573066  0.66227166  0.02829122  1
  O2-  O535  1  0.06427721  0.64527529  0.34650434  1
  O2-  O536  1  0.07489870  0.67284244  0.68084227  1
  O2-  O537  1  0.08072287  0.92003774  0.02583637  1
  O2-  O538  1  0.09769991  0.91501814  0.35440280  1
  O2-  O539  1  0.14754913  0.94944836  0.69859904  1
  O2-  O540  1  0.31814065  0.16692790  0.00938261  1
  O2-  O541  1  0.32879207  0.15848601  0.34724782  1
  O2-  O542  1  0.32506301  0.18182474  0.68100727  1
  O2-  O543  1  0.35125590  0.41330034  0.03114965  1
  O2-  O544  1  0.32283713  0.41747714  0.36016633  1
  O2-  O545  1  0.27969572  0.40771937  0.71755893  1
  O2-  O546  1  0.32098577  0.65494239  0.03083157  1
  O2-  O547  1  0.33801835  0.66413443  0.35419052  1
  O2-  O548  1  0.35387570  0.66555709  0.68864267  1
  O2-  O549  1  0.31227256  0.91178215  0.05474412  1
  O2-  O550  1  0.35426357  0.94829629  0.34724740  1
  O2-  O551  1  0.33767898  0.92148240  0.68718966  1
  O2-  O552  1  0.59681444  0.17503281  0.01797508  1
  O2-  O553  1  0.57239448  0.15307493  0.33490883  1
  O2-  O554  1  0.62231410  0.10885204  0.69907698  1
  O2-  O555  1  0.57006279  0.40260841  0.00309696  1
  O2-  O556  1  0.57432114  0.42356571  0.30952458  1
  O2-  O557  1  0.57783394  0.37577179  0.67525597  1
  O2-  O558  1  0.58168062  0.66638495  0.02020041  1
  O2-  O559  1  0.59406645  0.71541998  0.36619019  1
  O2-  O560  1  0.59078446  0.67031424  0.69953755  1
  O2-  O561  1  0.57048288  0.91804890  0.02309436  1
  O2-  O562  1  0.58602100  0.90503199  0.37395823  1
  O2-  O563  1  0.59507472  0.91517185  0.68116017  1
  O2-  O564  1  0.83097639  0.17004339  0.01937864  1
  O2-  O565  1  0.81589448  0.15441430  0.36555419  1
  O2-  O566  1  0.82999025  0.15520134  0.73016280  1
  O2-  O567  1  0.82614397  0.41482126  0.01202754  1
  O2-  O568  1  0.81632905  0.40847301  0.35260202  1
  O2-  O569  1  0.84888258  0.42807779  0.68914736  1
  O2-  O570  1  0.82099405  0.65586221  0.01534485  1
  O2-  O571  1  0.87670793  0.68386315  0.36714211  1
  O2-  O572  1  0.83553039  0.66825975  0.69257627  1
  O2-  O573  1  0.79766250  0.95269979  0.03825617  1
  O2-  O574  1  0.82630076  0.92700028  0.33644363  1
  O2-  O575  1  0.82338491  0.91065818  0.69184789  1
