# generated using pymatgen
data_H2O
_symmetry_space_group_name_H-M   'P 1'
_cell_length_a   18.00295458
_cell_length_b   18.00179383
_cell_length_c   22.01988544
_cell_angle_alpha   89.99214128
_cell_angle_beta   90.01309371
_cell_angle_gamma   119.99561820
_symmetry_Int_Tables_number   1
_chemical_formula_structural   H2O
_chemical_formula_sum   'H384 O192'
_cell_volume   6180.51149654
_cell_formula_units_Z   192
loop_
 _symmetry_equiv_pos_site_id
 _symmetry_equiv_pos_as_xyz
  1  'x, y, z'
loop_
 _atom_type_symbol
 _atom_type_oxidation_number
  H+  1.0
  O2-  -2.0
loop_
 _atom_site_type_symbol
 _atom_site_label
 _atom_site_symmetry_multiplicity
 _atom_site_fract_x
 _atom_site_fract_y
 _atom_site_fract_z
 _atom_site_occupancy
  H+  H0  1  0.57004658  0.40052656  0.75238951  1
  H+  H1  1  0.71258703  0.83657389  0.17753361  1
  H+  H2  1  0.51003445  0.87816430  0.48979073  1
  H+  H3  1  0.62192732  0.51776185  0.18088993  1
  H+  H4  1  0.85900700  0.37516024  0.83135678  1
  H+  H5  1  0.86069419  0.47767920  0.17282878  1
  H+  H6  1  0.92996865  0.90400681  0.51148955  1
  H+  H7  1  0.61122542  0.85925060  0.34036093  1
  H+  H8  1  0.23078488  0.87601290  0.65423787  1
  H+  H9  1  0.52954269  0.63574142  0.82051435  1
  H+  H10  1  0.93543675  0.05994423  0.17151111  1
  H+  H11  1  0.54255005  0.11454192  0.00441460  1
  H+  H12  1  0.52219050  0.38791788  0.84182838  1
  H+  H13  1  0.94887020  0.86181674  0.85945867  1
  H+  H14  1  0.36111762  0.97474700  0.67132120  1
  H+  H15  1  0.26979420  0.38984825  0.00918110  1
  H+  H16  1  0.11691385  0.50199440  1.00587946  1
  H+  H17  1  0.59500590  0.62517742  0.16526644  1
  H+  H18  1  0.61547702  0.85261071  0.50643853  1
  H+  H19  1  0.71448642  0.86368995  0.83277576  1
  H+  H20  1  0.13612192  0.50839168  0.84205400  1
  H+  H21  1  0.85199475  0.46086641  0.83518799  1
  H+  H22  1  0.61506303  0.87847463  0.17580171  1
  H+  H23  1  0.76103095  0.62607974  0.32478902  1
  H+  H24  1  0.88091340  0.26385158  0.84057305  1
  H+  H25  1  0.52031783  0.13330259  0.84104948  1
  H+  H26  1  0.22430906  0.87519640  0.33137120  1
  H+  H27  1  0.39039146  0.51812632  0.82797254  1
  H+  H28  1  0.12509967  0.96263232  0.49984551  1
  H+  H29  1  0.77262052  0.13796461  0.66681100  1
  H+  H30  1  0.32408568  0.91818950  0.39853469  1
  H+  H31  1  0.61444898  0.48704139  0.49370562  1
  H+  H32  1  0.37277421  0.60244486  0.33386571  1
  H+  H33  1  0.34573263  0.62471289  0.49481790  1
  H+  H34  1  0.87590162  0.41220656  0.32762006  1
  H+  H35  1  0.85490109  0.92951226  0.67497688  1
  H+  H36  1  0.36333220  0.95591847  0.00838524  1
  H+  H37  1  0.12746996  0.74188300  0.34972175  1
  H+  H38  1  0.90741115  0.48968751  0.48509957  1
  H+  H39  1  0.03439310  0.14377439  0.67156284  1
  H+  H40  1  0.88082153  0.66487373  0.34853860  1
  H+  H41  1  0.00437461  0.10982532  -0.02847323  1
  H+  H42  1  0.63297118  0.36560764  0.17885413  1
  H+  H43  1  0.87355286  0.19512393  1.00135961  1
  H+  H44  1  0.36825427  0.36355157  0.33398631  1
  H+  H45  1  0.62687714  1.01417214  0.49495372  1
  H+  H46  1  0.70414407  0.85346783  0.50441238  1
  H+  H47  1  0.34734070  0.71329990  0.17916261  1
  H+  H48  1  0.34769068  0.70238647  0.33749038  1
  H+  H49  1  0.26590069  0.13901821  0.34363010  1
  H+  H50  1  0.12058821  0.13661046  0.67526139  1
  H+  H51  1  0.86738857  0.15087193  0.66967368  1
  H+  H52  1  0.41408513  0.07649286  0.59231682  1
  H+  H53  1  0.88083543  0.11176855  0.99652681  1
  H+  H54  1  0.73266380  0.07397239  0.00098112  1
  H+  H55  1  0.29344855  0.88743872  0.83101599  1
  H+  H56  1  0.14578973  0.04494031  0.17190477  1
  H+  H57  1  0.91417649  0.53478474  0.66116453  1
  H+  H58  1  0.47475862  0.12584474  0.32942995  1
  H+  H59  1  0.34083204  0.71440463  0.01804252  1
  H+  H60  1  0.07165980  0.64528202  0.80073756  1
  H+  H61  1  0.62240827  0.40231654  0.34609738  1
  H+  H62  1  0.66177350  0.39188380  0.65524993  1
  H+  H63  1  0.47503459  0.83842011  0.32315571  1
  H+  H64  1  0.23217161  0.10200923  0.50960933  1
  H+  H65  1  0.10720055  0.88510273  0.01118904  1
  H+  H66  1  0.09499869  0.37339582  0.49402234  1
  H+  H67  1  0.88486328  0.27764024  0.67530316  1
  H+  H68  1  0.16095040  0.55971844  0.59699441  1
  H+  H69  1  0.62197480  0.66603782  0.73603495  1
  H+  H70  1  0.45842735  0.60122448  0.17663955  1
  H+  H71  1  0.13801430  0.86926040  0.17542539  1
  H+  H72  1  0.61210154  0.22001872  0.16281185  1
  H+  H73  1  0.94133862  0.43102415  0.45818879  1
  H+  H74  1  0.37718797  0.27198277  0.19986561  1
  H+  H75  1  0.63982191  0.49929158  0.34489316  1
  H+  H76  1  0.38268970  0.89218776  0.82803540  1
  H+  H77  1  0.84594555  0.84032888  0.67060763  1
  H+  H78  1  0.11574719  0.89598590  0.34168808  1
  H+  H79  1  0.89225727  0.37071704  0.67136746  1
  H+  H80  1  0.03497961  0.90820433  0.16600585  1
  H+  H81  1  0.38282205  0.38629870  0.99962056  1
  H+  H82  1  0.35947242  0.38243700  0.16071950  1
  H+  H83  1  0.47605474  0.86944197  0.65440045  1
  H+  H84  1  0.39236281  0.08000679  0.99922378  1
  H+  H85  1  0.27029223  0.14207224  0.83789544  1
  H+  H86  1  0.64133078  0.62096534  0.84037300  1
  H+  H87  1  0.23756769  0.12759984  0.17269033  1
  H+  H88  1  0.11155796  0.38135605  0.82840949  1
  H+  H89  1  0.63055876  0.11003857  0.84108599  1
  H+  H90  1  0.60231269  0.70263592  0.35123560  1
  H+  H91  1  0.85766354  0.22491196  0.14965294  1
  H+  H92  1  0.52360909  0.89104395  0.82607561  1
  H+  H93  1  0.47073013  0.10487845  0.50307927  1
  H+  H94  1  0.26034516  0.86159508  0.48753845  1
  H+  H95  1  0.84747141  0.89585495  1.02251732  1
  H+  H96  1  0.11521301  0.12554769  0.50868474  1
  H+  H97  1  0.34684300  0.71338022  0.49182399  1
  H+  H98  1  0.11782805  0.50522536  0.50814781  1
  H+  H99  1  0.81904882  0.92444798  0.11160392  1
  H+  H100  1  0.09451855  0.40113709  0.06183477  1
  H+  H101  1  0.60261875  0.25815435  0.67796103  1
  H+  H102  1  0.74663845  0.60403965  0.15457654  1
  H+  H103  1  1.02319608  0.14188586  0.33575198  1
  H+  H104  1  0.61246166  0.89137504  0.82125614  1
  H+  H105  1  0.63707652  0.10282954  0.65184352  1
  H+  H106  1  0.32842106  0.41312832  0.76167566  1
  H+  H107  1  0.62097105  0.16499685  0.33725873  1
  H+  H108  1  0.87928572  0.43464775  0.02771509  1
  H+  H109  1  0.93060660  0.36429991  0.17041319  1
  H+  H110  1  0.77882618  0.39211485  0.01685653  1
  H+  H111  1  0.60804476  0.88355877  0.66862291  1
  H+  H112  1  0.02565006  0.12351041  0.50646530  1
  H+  H113  1  0.61661023  0.13736901  0.48968017  1
  H+  H114  1  0.61240196  0.72942577  0.82617119  1
  H+  H115  1  0.41754701  0.82715931  0.11821051  1
  H+  H116  1  0.63438450  0.27350465  0.85610006  1
  H+  H117  1  0.13377010  0.12259090  0.32668056  1
  H+  H118  1  0.11738251  0.98721058  0.34415841  1
  H+  H119  1  0.15167916  0.33811445  0.13247565  1
  H+  H120  1  0.13504924  0.36598748  0.66583481  1
  H+  H121  1  0.98390419  0.37845164  0.31875038  1
  H+  H122  1  0.51517705  0.38010566  0.17630927  1
  H+  H123  1  0.58468314  0.95708242  1.02490944  1
  H+  H124  1  0.36313544  0.17664081  0.00023246  1
  H+  H125  1  0.45385626  0.84022717  0.00873701  1
  H+  H126  1  0.62210911  0.39925070  0.48804555  1
  H+  H127  1  0.21694997  0.09783896  0.98900397  1
  H+  H128  1  0.13866710  0.26102215  0.98795765  1
  H+  H129  1  0.37817675  0.10329520  0.64970494  1
  H+  H130  1  0.90008980  0.54795418  0.33482428  1
  H+  H131  1  0.93377455  1.01429612  -0.05021551  1
  H+  H132  1  0.12314461  0.14886775  0.82758974  1
  H+  H133  1  0.38546978  0.27590144  0.84946519  1
  H+  H134  1  0.72438134  0.35741825  0.84472469  1
  H+  H135  1  0.85714465  0.20804029  0.50071482  1
  H+  H136  1  0.50403985  0.09880409  0.68026100  1
  H+  H137  1  0.52946026  0.04102863  0.71726375  1
  H+  H138  1  0.01993805  0.37508681  0.00932083  1
  H+  H139  1  0.28179786  0.63043270  0.83605034  1
  H+  H140  1  0.21047887  0.60172938  1.00939218  1
  H+  H141  1  0.88284326  0.79448279  0.00904020  1
  H+  H142  1  0.37507495  0.27812089  0.33572321  1
  H+  H143  1  0.89614748  0.79777724  0.18455112  1
  H+  H144  1  0.94456856  0.59781857  0.83802726  1
  H+  H145  1  0.13892987  0.27848118  0.66253777  1
  H+  H146  1  0.37390669  0.12710773  0.15840259  1
  H+  H147  1  0.75618911  0.38376795  0.17579222  1
  H+  H148  1  0.84007603  0.42548510  0.73771138  1
  H+  H149  1  0.11088534  0.97627498  0.00500433  1
  H+  H150  1  0.87384564  0.31917904  0.99994338  1
  H+  H151  1  1.00434149  0.15350121  0.18488001  1
  H+  H152  1  0.81495278  0.96319900  0.17667334  1
  H+  H153  1  0.86523427  0.89534359  0.34459224  1
  H+  H154  1  0.70387763  0.88219162  0.98921988  1
  H+  H155  1  0.11808541  0.60356976  0.00406614  1
  H+  H156  1  0.65638971  0.39580595  -0.00046440  1
  H+  H157  1  0.26172157  0.38066184  0.49553983  1
  H+  H158  1  0.17646849  0.07322773  0.57052572  1
  H+  H159  1  0.62602563  0.63802467  1.01402615  1
  H+  H160  1  0.08734878  0.80917665  0.49828562  1
  H+  H161  1  0.98720053  0.88240535  0.33878834  1
  H+  H162  1  0.76690582  0.62522849  0.51357872  1
  H+  H163  1  0.53400633  0.62621046  0.00502213  1
  H+  H164  1  0.73250167  0.38018186  0.32903734  1
  H+  H165  1  0.76262189  0.63189784  0.80403521  1
  H+  H166  1  0.61838353  0.22740260  0.49645446  1
  H+  H167  1  0.61213601  0.38770115  0.84131837  1
  H+  H168  1  0.10246106  0.54096721  0.34676104  1
  H+  H169  1  0.64074327  0.29270495  0.33337239  1
  H+  H170  1  0.16139733  0.84715581  0.83798676  1
  H+  H171  1  0.72367492  0.84783036  0.32966071  1
  H+  H172  1  0.86746041  1.01544095  0.82440875  1
  H+  H173  1  0.86052644  0.22132105  0.33223089  1
  H+  H174  1  0.64628594  0.56332602  0.56752572  1
  H+  H175  1  0.38340598  0.11024373  0.84772193  1
  H+  H176  1  0.84289181  0.87733977  0.83628822  1
  H+  H177  1  0.39343169  0.77141130  0.84538319  1
  H+  H178  1  0.36915135  0.51382556  0.50796594  1
  H+  H179  1  0.36280186  0.23665567  0.68204880  1
  H+  H180  1  0.56218627  0.24515186  0.65979739  1
  H+  H181  1  0.33068103  0.62316861  0.04035056  1
  H+  H182  1  0.36008724  0.88699521  0.16366723  1
  H+  H183  1  0.46462341  0.35880562  0.49065475  1
  H+  H184  1  0.38880525  0.52145032  -0.00850379  1
  H+  H185  1  0.14861370  0.78709814  0.64123405  1
  H+  H186  1  1.04322098  0.65625462  0.36291724  1
  H+  H187  1  0.66093826  0.93435422  0.96708579  1
  H+  H188  1  0.10713035  0.23266583  0.32691660  1
  H+  H189  1  0.91644340  0.08294319  0.87669528  1
  H+  H190  1  0.41374215  0.61743266  0.97183448  1
  H+  H191  1  0.98807117  0.63516713  0.50923867  1
  H+  H192  1  0.65556778  0.84813862  0.89145374  1
  H+  H193  1  0.73912171  0.54520542  0.28438884  1
  H+  H194  1  0.13059768  0.24776438  0.82468642  1
  H+  H195  1  0.15103165  0.60645436  0.65394761  1
  H+  H196  1  0.36568591  0.35612538  0.67028598  1
  H+  H197  1  0.64860219  0.08128321  0.99672783  1
  H+  H198  1  0.11866714  0.37595084  0.31895553  1
  H+  H199  1  0.13146903  1.03855479  0.84348579  1
  H+  H200  1  0.35346421  0.98503822  0.34371604  1
  H+  H201  1  0.32962799  0.42132390  0.07096002  1
  H+  H202  1  0.19986508  0.60321721  0.19812396  1
  H+  H203  1  0.36112239  0.22179771  0.49246190  1
  H+  H204  1  0.37259007  0.63444180  0.83376562  1
  H+  H205  1  0.13085734  0.11254621  0.98836975  1
  H+  H206  1  0.13455372  0.34856603  0.98689989  1
  H+  H207  1  0.32869817  0.15868081  0.43587808  1
  H+  H208  1  0.08885083  0.90433138  0.88268964  1
  H+  H209  1  0.38901707  0.02327137  0.84046725  1
  H+  H210  1  0.85346170  0.43087952  0.39225780  1
  H+  H211  1  0.87060285  0.74776620  0.34526916  1
  H+  H212  1  0.88496480  0.63202196  0.66135930  1
  H+  H213  1  0.81695637  0.88813530  0.76847627  1
  H+  H214  1  0.23390103  0.36518632  0.83573140  1
  H+  H215  1  0.13944166  1.01817394  0.66125395  1
  H+  H216  1  0.72667685  0.11162149  0.83155357  1
  H+  H217  1  0.63651980  0.52880929  0.83966696  1
  H+  H218  1  0.40278779  0.61227558  0.66918969  1
  H+  H219  1  0.87254950  0.71870810  0.65619510  1
  H+  H220  1  0.11759393  0.72288206  0.00983293  1
  H+  H221  1  0.38634973  1.02014180  0.17674997  1
  H+  H222  1  0.37912815  0.85408050  0.50324737  1
  H+  H223  1  0.73795130  0.37433018  0.49586260  1
  H+  H224  1  0.89142417  0.88273030  0.18264363  1
  H+  H225  1  0.88056615  0.55159272  0.99431244  1
  H+  H226  1  0.11876716  0.88200255  0.65151023  1
  H+  H227  1  0.64982789  0.59055475  0.66340393  1
  H+  H228  1  0.87399413  1.00776450  0.50969222  1
  H+  H229  1  0.13268310  0.26767896  0.51343090  1
  H+  H230  1  0.51567901  0.39580778  0.01680035  1
  H+  H231  1  0.15052459  0.35980540  0.25788266  1
  H+  H232  1  0.17052081  0.82460609  0.94264303  1
  H+  H233  1  0.84362024  0.30791017  0.28943910  1
  H+  H234  1  0.61165882  0.13126564  0.16610301  1
  H+  H235  1  0.38398732  0.10958448  0.50386054  1
  H+  H236  1  0.62894094  0.01400443  0.83183033  1
  H+  H237  1  0.02825768  0.38966157  0.68253932  1
  H+  H238  1  0.81716133  0.85013836  0.48008254  1
  H+  H239  1  0.88238328  0.11125073  0.32950256  1
  H+  H240  1  0.22989991  0.10436730  0.67034370  1
  H+  H241  1  0.85558336  0.70770492  0.49753723  1
  H+  H242  1  0.35951094  0.47732542  0.67432309  1
  H+  H243  1  0.85525566  0.97881431  0.34060360  1
  H+  H244  1  0.71277364  0.52159464  0.96257725  1
  H+  H245  1  0.79664018  0.42518032  0.67351544  1
  H+  H246  1  0.36148714  0.38543516  0.82284746  1
  H+  H247  1  0.16961293  0.76516948  0.84179321  1
  H+  H248  1  0.08909367  0.92973933  0.10485712  1
  H+  H249  1  0.56993532  0.65380356  0.10382285  1
  H+  H250  1  0.34103246  -0.04150970  0.49742077  1
  H+  H251  1  0.22340305  0.85518076  0.00403570  1
  H+  H252  1  0.89698074  0.64520541  -0.00697109  1
  H+  H253  1  0.61956081  -0.02774172  0.17508650  1
  H+  H254  1  0.57507514  0.15464965  0.78095357  1
  H+  H255  1  0.84352550  0.62083748  0.80917803  1
  H+  H256  1  0.45813398  0.60170031  0.51059961  1
  H+  H257  1  0.72191161  0.11622236  0.17111054  1
  H+  H258  1  0.62232490  0.60546312  0.51019525  1
  H+  H259  1  0.60217974  0.48914864  0.65913253  1
  H+  H260  1  0.09966794  0.63355715  0.17348074  1
  H+  H261  1  0.13035707  0.77626301  0.17695684  1
  H+  H262  1  0.89684779  0.05484016  0.66113451  1
  H+  H263  1  0.70807151  0.84321265  0.65882813  1
  H+  H264  1  0.06559080  0.13838220  0.04307403  1
  H+  H265  1  0.36573869  0.83675293  1.00025704  1
  H+  H266  1  0.97193999  0.88138229  1.00887063  1
  H+  H267  1  0.97195968  0.35201831  0.84194029  1
  H+  H268  1  0.37251925  0.68584957  0.74438338  1
  H+  H269  1  0.78626857  0.64973688  -0.00026813  1
  H+  H270  1  0.50958365  0.62041595  0.35176636  1
  H+  H271  1  0.37666142  0.29705095  1.00333189  1
  H+  H272  1  0.42026598  0.82957382  0.90413329  1
  H+  H273  1  0.64916690  0.82186653  0.59991685  1
  H+  H274  1  0.76983406  0.12248027  0.48707042  1
  H+  H275  1  0.02432579  0.63993661  0.00670550  1
  H+  H276  1  0.61882777  0.75184880  0.17536344  1
  H+  H277  1  0.04980341  0.65070896  0.66282564  1
  H+  H278  1  0.64372090  0.01982945  0.64991907  1
  H+  H279  1  0.63501138  0.06365301  0.35686457  1
  H+  H280  1  0.47843027  0.10855574  0.17439722  1
  H+  H281  1  0.36767264  0.59716491  0.18405755  1
  H+  H282  1  0.25646053  0.39019977  0.33845511  1
  H+  H283  1  0.00517712  0.36219138  0.50914033  1
  H+  H284  1  0.87695893  0.59522028  0.17491825  1
  H+  H285  1  0.59505234  0.71177802  0.50006246  1
  H+  H286  1  0.48088239  0.86128140  0.17115538  1
  H+  H287  1  0.97472441  0.84765727  0.64527763  1
  H+  H288  1  0.08328007  0.41520492  0.77012961  1
  H+  H289  1  0.55776265  0.90596688  0.08664178  1
  H+  H290  1  0.89456251  0.84352994  0.91869522  1
  H+  H291  1  0.67118115  0.08439898  0.23549810  1
  H+  H292  1  0.97148279  0.60469452  0.17528605  1
  H+  H293  1  0.68739227  0.58060756  0.92421776  1
  H+  H294  1  0.87390300  0.33880705  0.52387733  1
  H+  H295  1  0.39331109  0.21720634  0.13084458  1
  H+  H296  1  0.54818745  0.32537049  0.70598306  1
  H+  H297  1  0.09289178  0.91546307  0.43546802  1
  H+  H298  1  0.40236749  0.18175266  0.71134750  1
  H+  H299  1  0.39663132  0.73830678  0.68238717  1
  H+  H300  1  0.57047764  0.41255801  0.11406802  1
  H+  H301  1  0.11362311  0.20711155  0.11132322  1
  H+  H302  1  0.09533393  0.17767250  0.76141503  1
  H+  H303  1  0.73328021  0.10804022  0.33493658  1
  H+  H304  1  0.32746839  0.90707656  0.07203505  1
  H+  H305  1  0.89940770  0.58498635  0.90077446  1
  H+  H306  1  0.42257273  0.06328762  0.93657132  1
  H+  H307  1  0.69144220  0.37803896  0.93776932  1
  H+  H308  1  0.56746319  0.64980148  0.44137631  1
  H+  H309  1  0.63067579  0.70677103  0.67167799  1
  H+  H310  1  0.83779268  0.16828769  0.39783477  1
  H+  H311  1  0.40966963  0.82317149  0.27040698  1
  H+  H312  1  0.82284190  0.15619502  0.09629433  1
  H+  H313  1  0.20604037  0.59440768  0.50622806  1
  H+  H314  1  0.59999191  0.15082347  0.06191639  1
  H+  H315  1  0.83076319  0.66958871  0.06448836  1
  H+  H316  1  0.58354396  0.92144571  0.72619794  1
  H+  H317  1  0.93786840  0.58564198  0.59671180  1
  H+  H318  1  0.16150335  0.56879377  0.90137737  1
  H+  H319  1  0.35623343  0.14095076  0.34078556  1
  H+  H320  1  0.84796057  0.12522251  0.82197078  1
  H+  H321  1  0.11956632  0.47854109  0.67672271  1
  H+  H322  1  0.14953832  0.63490658  0.82010478  1
  H+  H323  1  0.57162381  0.90069220  0.43071738  1
  H+  H324  1  0.41220733  0.33998277  0.25293758  1
  H+  H325  1  0.82236443  0.40332166  0.11475599  1
  H+  H326  1  0.66606777  0.34090712  0.23957648  1
  H+  H327  1  0.34891870  0.47478616  0.34314722  1
  H+  H328  1  0.13475253  0.72574927  0.44136016  1
  H+  H329  1  0.07637022  0.66181447  0.10995023  1
  H+  H330  1  0.93545982  0.60656911  0.27782615  1
  H+  H331  1  0.38384260  0.86198396  0.65773298  1
  H+  H332  1  0.84099342  0.97989244  0.02098460  1
  H+  H333  1  0.71045518  0.48266236  0.63028206  1
  H+  H334  1  0.31699452  0.41233185  0.43466386  1
  H+  H335  1  0.07139246  0.89425382  0.70951107  1
  H+  H336  1  0.26980390  0.88601909  0.16690569  1
  H+  H337  1  0.99390207  0.86990890  0.50044876  1
  H+  H338  1  0.92913915  0.85663126  0.27887327  1
  H+  H339  1  0.91403188  0.31396232  0.93643373  1
  H+  H340  1  0.26662057  0.38790860  0.67527007  1
  H+  H341  1  0.37482787  0.35487117  0.49553148  1
  H+  H342  1  0.33014913  0.17130638  0.77951918  1
  H+  H343  1  0.60643400  0.48042952  0.01820168  1
  H+  H344  1  0.35384329  0.46738469  0.16211937  1
  H+  H345  1  0.59048696  0.18233735  0.40160740  1
  H+  H346  1  0.11769460  0.55085703  0.24050934  1
  H+  H347  1  0.12321072  0.68794130  0.71372170  1
  H+  H348  1  0.40717244  0.57303118  0.27603650  1
  H+  H349  1  0.69541704  0.37590506  0.55795034  1
  H+  H350  1  0.91381363  0.82005074  0.58768624  1
  H+  H351  1  0.91971572  0.08761490  0.27121974  1
  H+  H352  1  0.92285432  0.09379411  0.59525687  1
  H+  H353  1  0.66025506  0.80762880  0.27235603  1
  H+  H354  1  0.16206284  0.33607477  0.56648583  1
  H+  H355  1  0.41115556  0.82698430  0.56246806  1
  H+  H356  1  0.16275760  0.83846886  0.27274802  1
  H+  H357  1  0.90410553  0.31510532  0.58552548  1
  H+  H358  1  0.87993204  0.09902092  0.50373222  1
  H+  H359  1  0.33678429  0.91824081  0.73262369  1
  H+  H360  1  0.32627000  0.13073755  0.06316030  1
  H+  H361  1  0.29855616  0.65191311  0.12582103  1
  H+  H362  1  0.14170911  0.17843411  0.16913232  1
  H+  H363  1  0.81505085  0.90917173  0.42786092  1
  H+  H364  1  0.41179504  0.34216971  0.90521936  1
  H+  H365  1  0.82015827  0.16280358  0.76561034  1
  H+  H366  1  0.67190930  0.58683628  0.23293380  1
  H+  H367  1  0.45440342  0.35639322  0.67291877  1
  H+  H368  1  0.40081282  0.56980927  0.60455724  1
  H+  H369  1  0.41755450  0.09027115  0.26967932  1
  H+  H370  1  0.16888532  0.09278275  0.27059136  1
  H+  H371  1  0.42870390  0.57055446  0.88914916  1
  H+  H372  1  0.17379678  0.32890108  0.89689081  1
  H+  H373  1  0.61663169  0.94978378  0.33338977  1
  H+  H374  1  0.16299265  0.09363372  0.90326540  1
  H+  H375  1  0.07470478  0.89405839  0.81227347  1
  H+  H376  1  0.76914030  0.54986323  0.11098735  1
  H+  H377  1  0.88942605  0.60385338  0.51365195  1
  H+  H378  1  0.31418576  0.64660372  0.39730613  1
  H+  H379  1  0.66367139  0.07530149  0.55325561  1
  H+  H380  1  0.04816834  0.36523705  0.18101089  1
  H+  H381  1  0.59775502  0.43667939  0.41488902  1
  H+  H382  1  0.83360566  0.65376850  0.72050053  1
  H+  H383  1  0.92415165  0.31185007  0.23121700  1
  O2-  O384  1  0.11430235  0.21206197  0.15538821  1
  O2-  O385  1  0.08810408  0.16131508  0.50433218  1
  O2-  O386  1  0.09828233  0.18353085  0.80808988  1
  O2-  O387  1  0.11330650  0.39773353  0.18425036  1
  O2-  O388  1  0.05701401  0.39756688  0.48480796  1
  O2-  O389  1  0.07968938  0.41105251  0.81658690  1
  O2-  O390  1  0.06998231  0.66409605  0.15429549  1
  O2-  O391  1  0.15670624  0.75651777  0.48202795  1
  O2-  O392  1  0.13407152  0.67672816  0.80077657  1
  O2-  O393  1  0.09440015  0.93518188  0.15001042  1
  O2-  O394  1  0.08991003  0.90463415  0.48048670  1
  O2-  O395  1  0.07044919  0.92428952  0.84759425  1
  O2-  O396  1  0.34630424  0.15865853  0.13695356  1
  O2-  O397  1  0.33318357  0.15850149  0.48133359  1
  O2-  O398  1  0.33173299  0.16959445  0.82475686  1
  O2-  O399  1  0.33083964  0.41073331  0.14104676  1
  O2-  O400  1  0.32222689  0.41165216  0.47991307  1
  O2-  O401  1  0.32931025  0.41381726  0.80864993  1
  O2-  O402  1  0.30955699  0.65179295  0.16957931  1
  O2-  O403  1  0.31464852  0.65308290  0.47757754  1
  O2-  O404  1  0.34283318  0.66787875  0.82537152  1
  O2-  O405  1  0.33011179  0.91818134  0.15060269  1
  O2-  O406  1  0.32153211  0.90183800  0.47856823  1
  O2-  O407  1  0.35139681  0.92181834  0.81289938  1
  O2-  O408  1  0.58079580  0.16009877  0.14870749  1
  O2-  O409  1  0.58765320  0.17045640  0.47689326  1
  O2-  O410  1  0.58134303  0.16205079  0.82568549  1
  O2-  O411  1  0.57535746  0.41143932  0.15927184  1
  O2-  O412  1  0.59004051  0.42723425  0.47245818  1
  O2-  O413  1  0.58229968  0.41796899  0.82545836  1
  O2-  O414  1  0.56379947  0.65369069  0.14924629  1
  O2-  O415  1  0.56807333  0.65054538  0.48790172  1
  O2-  O416  1  0.59254033  0.66944692  0.81244417  1
  O2-  O417  1  0.58542762  0.91036561  0.16331460  1
  O2-  O418  1  0.57189730  0.90924156  0.47556367  1
  O2-  O419  1  0.58246835  0.92454236  0.80799984  1
  O2-  O420  1  0.80480466  0.17923583  0.13009333  1
  O2-  O421  1  0.83235803  0.15337708  0.47706482  1
  O2-  O422  1  0.81759774  0.15948149  0.81111139  1
  O2-  O423  1  0.82165121  0.41264475  0.16028060  1
  O2-  O424  1  0.88817880  0.43221478  0.46556668  1
  O2-  O425  1  0.82645424  0.40328023  0.81605851  1
  O2-  O426  1  0.79646943  0.60559866  0.13125157  1
  O2-  O427  1  0.83018885  0.65050304  0.51537546  1
  O2-  O428  1  0.81957041  0.64993912  0.78496230  1
  O2-  O429  1  0.82279058  0.91885710  0.15723012  1
  O2-  O430  1  0.80980053  0.89989066  0.47391568  1
  O2-  O431  1  0.81622668  0.90513064  0.81119173  1
  O2-  O432  1  0.17822087  0.10549889  0.18674025  1
  O2-  O433  1  0.17224447  0.06577017  0.52587267  1
  O2-  O434  1  0.16465168  0.09919860  0.85658821  1
  O2-  O435  1  0.14143595  0.38607910  0.12415958  1
  O2-  O436  1  0.15926063  0.33078548  0.52151137  1
  O2-  O437  1  0.17216694  0.33151405  0.85121710  1
  O2-  O438  1  0.13729356  0.57990428  0.20098374  1
  O2-  O439  1  0.14874547  0.56391767  0.52583293  1
  O2-  O440  1  0.17019535  0.57008483  0.85731623  1
  O2-  O441  1  0.16600188  0.83696451  0.19034108  1
  O2-  O442  1  0.07904564  0.75114072  0.50795953  1
  O2-  O443  1  0.18960025  0.82268235  0.86170883  1
  O2-  O444  1  0.41762684  0.08208554  0.18963695  1
  O2-  O445  1  0.41166780  0.07587617  0.51942877  1
  O2-  O446  1  0.41617365  0.08144887  0.85994899  1
  O2-  O447  1  0.41510619  0.33351676  0.20520631  1
  O2-  O448  1  0.40595927  0.32343885  0.50560598  1
  O2-  O449  1  0.41589603  0.33822581  0.86041436  1
  O2-  O450  1  0.39966441  0.56699713  0.19405340  1
  O2-  O451  1  0.39729864  0.57397700  0.52421820  1
  O2-  O452  1  0.42470007  0.57782189  0.84484550  1
  O2-  O453  1  0.41693145  0.83018637  0.16253820  1
  O2-  O454  1  0.41145787  0.82544297  0.51702202  1
  O2-  O455  1  0.42340859  0.83313393  0.85918402  1
  O2-  O456  1  0.66371791  0.07966525  0.19110127  1
  O2-  O457  1  0.66151585  0.07612197  0.50801553  1
  O2-  O458  1  0.66303726  0.07760926  0.84751510  1
  O2-  O459  1  0.66843073  0.33985403  0.19385945  1
  O2-  O460  1  0.68226567  0.35249377  0.51569621  1
  O2-  O461  1  0.66760433  0.33576931  0.86551356  1
  O2-  O462  1  0.65748796  0.58102868  0.18859467  1
  O2-  O463  1  0.65345534  0.57349629  0.52246769  1
  O2-  O464  1  0.67309206  0.58984221  0.85228529  1
  O2-  O465  1  0.65384139  0.81090492  0.19397887  1
  O2-  O466  1  0.64593230  0.82281757  0.52261853  1
  O2-  O467  1  0.65297346  0.83689822  0.84631382  1
  O2-  O468  1  0.94393678  0.10991980  0.19423007  1
  O2-  O469  1  0.90694846  0.06797188  0.52369721  1
  O2-  O470  1  0.89805068  0.07804067  0.83384028  1
  O2-  O471  1  0.94232054  0.31992006  0.18456338  1
  O2-  O472  1  0.89442741  0.30186933  0.54077494  1
  O2-  O473  1  0.91206225  0.32293167  0.85839274  1
  O2-  O474  1  0.91016453  0.56935605  0.19153631  1
  O2-  O475  1  0.93250431  0.58415802  0.52000865  1
  O2-  O476  1  0.88828519  0.56765764  0.85702853  1
  O2-  O477  1  0.92731403  0.85798987  0.19645546  1
  O2-  O478  1  0.93280815  0.85138282  0.51468728  1
  O2-  O479  1  0.88958257  0.83413169  0.87407678  1
  O2-  O480  1  0.16414351  0.08930523  0.31537616  1
  O2-  O481  1  0.17202469  0.08137852  0.65325804  1
  O2-  O482  1  0.15820939  0.07397639  0.97274959  1
  O2-  O483  1  0.15100574  0.34961258  0.30179464  1
  O2-  O484  1  0.16635095  0.33817807  0.64753871  1
  O2-  O485  1  0.16998915  0.32372242  0.97416755  1
  O2-  O486  1  0.06408474  0.50374987  0.31458975  1
  O2-  O487  1  0.16674367  0.56304963  0.64322683  1
  O2-  O488  1  0.14877504  0.56880881  0.99184787  1
  O2-  O489  1  0.16148375  0.84145646  0.31765397  1
  O2-  O490  1  0.17421518  0.84981911  0.63336384  1
  O2-  O491  1  0.16285614  0.82450965  0.98722858  1
  O2-  O492  1  0.41501886  0.09417090  0.31467559  1
  O2-  O493  1  0.41199787  0.07609140  0.63868772  1
  O2-  O494  1  0.42538816  0.05512390  0.98121285  1
  O2-  O495  1  0.40329568  0.33775677  0.31964079  1
  O2-  O496  1  0.39434017  0.32149816  0.65988680  1
  O2-  O497  1  0.41302367  0.35354039  0.98558060  1
  O2-  O498  1  0.40751764  0.57379845  0.32108740  1
  O2-  O499  1  0.40856130  0.56570701  0.64894400  1
  O2-  O500  1  0.43202750  0.57496669  0.96926868  1
  O2-  O501  1  0.41366476  0.80621355  0.31148453  1
  O2-  O502  1  0.41554528  0.83470118  0.64058339  1
  O2-  O503  1  0.39539578  0.80410420  0.98866874  1
  O2-  O504  1  0.67027210  0.07475423  0.32074612  1
  O2-  O505  1  0.67230354  0.08049699  0.63377917  1
  O2-  O506  1  0.67160540  0.04172655  0.98865707  1
  O2-  O507  1  0.67100225  0.35257707  0.31604809  1
  O2-  O508  1  0.71288591  0.42865902  0.63079628  1
  O2-  O509  1  0.70982642  0.41149263  0.97681755  1
  O2-  O510  1  0.71052463  0.57466318  0.30106683  1
  O2-  O511  1  0.64934233  0.54093456  0.64093716  1
  O2-  O512  1  0.69877821  0.56790958  0.96737610  1
  O2-  O513  1  0.66242407  0.81021786  0.31764442  1
  O2-  O514  1  0.64846635  0.82161442  0.64546981  1
  O2-  O515  1  0.65871669  0.87882862  0.96243638  1
  O2-  O516  1  0.91114299  0.07850894  0.31591268  1
  O2-  O517  1  0.93142076  0.10917181  0.64033946  1
  O2-  O518  1  0.94080404  0.07120599  0.95532505  1
  O2-  O519  1  0.89661975  0.30688076  0.29506467  1
  O2-  O520  1  0.92001056  0.33707476  0.65887084  1
  O2-  O521  1  0.91787912  0.30907117  0.98176607  1
  O2-  O522  1  0.93265813  0.60906709  0.32237804  1
  O2-  O523  1  0.94066539  0.59313953  0.64231891  1
  O2-  O524  1  0.92023229  0.60764358  0.97695323  1
  O2-  O525  1  0.92567073  0.85360760  0.32370591  1
  O2-  O526  1  0.91268495  0.81200978  0.63313049  1
  O2-  O527  1  0.90996864  0.85650135  0.99811065  1
  O2-  O528  1  0.08888689  0.15842856  0.00262621  1
  O2-  O529  1  0.08601009  0.17417548  0.34249955  1
  O2-  O530  1  0.09205990  0.16855034  0.69092007  1
  O2-  O531  1  0.08235647  0.41351041  0.01951544  1
  O2-  O532  1  0.04521487  0.41841977  0.33567604  1
  O2-  O533  1  0.08832554  0.41845310  0.69771160  1
  O2-  O534  1  0.08332919  0.66020232  0.02244052  1
  O2-  O535  1  0.10464076  0.68723510  0.37328764  1
  O2-  O536  1  0.11283245  0.68524739  0.66980616  1
  O2-  O537  1  0.07963696  0.91805758  0.02500270  1
  O2-  O538  1  0.08708881  0.92684871  0.36007518  1
  O2-  O539  1  0.07860340  0.90678523  0.66625065  1
  O2-  O540  1  0.32186911  0.12151886  0.01783723  1
  O2-  O541  1  0.32632750  0.16923527  0.35940462  1
  O2-  O542  1  0.34670402  0.17431577  0.69957486  1
  O2-  O543  1  0.32976674  0.42672088  0.02428002  1
  O2-  O544  1  0.31402743  0.41286133  0.35689242  1
  O2-  O545  1  0.32641861  0.41482224  0.69193420  1
  O2-  O546  1  0.30013684  0.65509775  0.03805502  1
  O2-  O547  1  0.31607058  0.64217989  0.35227646  1
  O2-  O548  1  0.40436636  0.69611852  0.70609682  1
  O2-  O549  1  0.32401349  0.89805113  0.02695332  1
  O2-  O550  1  0.31934864  0.92357987  0.35409568  1
  O2-  O551  1  0.33137890  0.91503293  0.68757548  1
  O2-  O552  1  0.60299537  0.14378183  0.01774155  1
  O2-  O553  1  0.58962972  0.19053411  0.35609817  1
  O2-  O554  1  0.55128249  0.10065439  0.70544366  1
  O2-  O555  1  0.57428981  0.42182869  0.03504433  1
  O2-  O556  1  0.60091679  0.44029632  0.36300123  1
  O2-  O557  1  0.56150939  0.38497961  0.70760752  1
  O2-  O558  1  0.58763392  0.65730256  0.02899299  1
  O2-  O559  1  0.56839593  0.64503980  0.36945075  1
  O2-  O560  1  0.64613837  0.66979236  0.69487077  1
  O2-  O561  1  0.53477310  0.91012751  0.04665354  1
  O2-  O562  1  0.58228064  0.89300606  0.35224086  1
  O2-  O563  1  0.58499976  0.92230939  0.68102706  1
  O2-  O564  1  0.84765194  0.13533677  0.01620158  1
  O2-  O565  1  0.83051335  0.16171327  0.35289078  1
  O2-  O566  1  0.82917925  0.16960706  0.68842922  1
  O2-  O567  1  0.82412759  0.38761722  0.04137469  1
  O2-  O568  1  0.84170799  0.43374544  0.34794870  1
  O2-  O569  1  0.85071489  0.43539772  0.69308846  1
  O2-  O570  1  0.84249715  0.68723423  0.02106537  1
  O2-  O571  1  0.84082023  0.68632151  0.35804078  1
  O2-  O572  1  0.84651041  0.65734140  0.67305957  1
  O2-  O573  1  0.81213144  0.92140481  0.03722682  1
  O2-  O574  1  0.82594939  0.91773028  0.35610856  1
  O2-  O575  1  0.81778076  0.87106937  0.68880694  1
