# generated using pymatgen
data_H2O
_symmetry_space_group_name_H-M   'P 1'
_cell_length_a   17.98304897
_cell_length_b   17.99073434
_cell_length_c   22.00024875
_cell_angle_alpha   90.01708193
_cell_angle_beta   90.00883324
_cell_angle_gamma   120.03711603
_symmetry_Int_Tables_number   1
_chemical_formula_structural   H2O
_chemical_formula_sum   'H384 O192'
_cell_volume   6161.80349382
_cell_formula_units_Z   192
loop_
 _symmetry_equiv_pos_site_id
 _symmetry_equiv_pos_as_xyz
  1  'x, y, z'
loop_
 _atom_type_symbol
 _atom_type_oxidation_number
  H+  1.0
  O2-  -2.0
loop_
 _atom_site_type_symbol
 _atom_site_label
 _atom_site_symmetry_multiplicity
 _atom_site_fract_x
 _atom_site_fract_y
 _atom_site_fract_z
 _atom_site_occupancy
  H+  H0  1  0.82690201  0.83440633  0.16931324  1
  H+  H1  1  0.63714364  0.75961762  -0.01461655  1
  H+  H2  1  0.09055247  0.15968715  0.44462889  1
  H+  H3  1  -0.02783459  0.86320212  0.85214496  1
  H+  H4  1  0.86886723  0.63248051  0.65957019  1
  H+  H5  1  0.43509087  0.09828216  0.94134388  1
  H+  H6  1  0.53696444  0.65582209  0.16501566  1
  H+  H7  1  0.87641324  0.53285236  1.00157868  1
  H+  H8  1  0.48399270  0.60205983  0.50744933  1
  H+  H9  1  0.05949157  0.03995582  0.19503527  1
  H+  H10  1  0.39762560  0.01353920  0.32533168  1
  H+  H11  1  0.22030454  0.60334370  0.50972081  1
  H+  H12  1  0.14538322  0.22856912  0.34896514  1
  H+  H13  1  0.15624183  0.59162034  0.35219159  1
  H+  H14  1  0.26991620  0.38433265  0.83540245  1
  H+  H15  1  0.14448546  0.73260028  0.16841733  1
  H+  H16  1  0.63693819  0.85844121  0.66513479  1
  H+  H17  1  0.65199735  1.01719616  0.31246471  1
  H+  H18  1  0.40477095  0.02648819  0.99278381  1
  H+  H19  1  0.48742963  0.12194700  0.65559175  1
  H+  H20  1  0.76058267  0.96039863  0.44834873  1
  H+  H21  1  0.30082436  0.61263802  0.35625939  1
  H+  H22  1  0.76074831  0.65587073  0.34877618  1
  H+  H23  1  0.42909419  0.85297471  0.91541252  1
  H+  H24  1  0.71658402  0.60211228  0.99985351  1
  H+  H25  1  0.86863738  0.72847784  0.66678396  1
  H+  H26  1  0.65321002  0.35652478  -0.05527756  1
  H+  H27  1  0.17213161  0.33295226  0.23623543  1
  H+  H28  1  0.61373466  0.71732431  0.48793860  1
  H+  H29  1  0.13469271  0.37177863  -0.00163215  1
  H+  H30  1  0.64164453  0.53358860  0.15614887  1
  H+  H31  1  0.66154763  0.33704491  0.22849605  1
  H+  H32  1  0.91036046  0.08589117  0.72680408  1
  H+  H33  1  -0.03688045  0.35580131  0.33055735  1
  H+  H34  1  0.83179345  0.91126169  0.77539280  1
  H+  H35  1  0.41263548  0.73055139  0.79953649  1
  H+  H36  1  0.16014629  0.58244007  0.60121622  1
  H+  H37  1  0.86173657  0.13732385  0.33372277  1
  H+  H38  1  1.01677975  0.14667289  1.00847888  1
  H+  H39  1  0.85912532  0.96570143  0.67891639  1
  H+  H40  1  0.77202272  0.39744372  0.35418013  1
  H+  H41  1  0.84472450  0.75689964  0.16089128  1
  H+  H42  1  0.36750698  0.11910376  0.02106015  1
  H+  H43  1  0.10040938  0.47737461  0.50069357  1
  H+  H44  1  0.12375012  0.00954492  0.84536366  1
  H+  H45  1  0.85730999  0.47863528  0.67726404  1
  H+  H46  1  0.89490622  0.28706865  1.00616550  1
  H+  H47  1  0.52500263  0.88210524  0.67906206  1
  H+  H48  1  0.76874121  0.88163563  0.83251856  1
  H+  H49  1  0.28560606  0.13838391  0.67275106  1
  H+  H50  1  0.51153638  0.84695683  0.16676638  1
  H+  H51  1  0.37156397  0.70324703  0.15847739  1
  H+  H52  1  0.01582427  0.63285459  0.49411910  1
  H+  H53  1  0.14017329  0.83441736  0.32016844  1
  H+  H54  1  0.63121633  0.11149650  0.50738871  1
  H+  H55  1  0.53137244  0.39685545  0.14825215  1
  H+  H56  1  0.39355678  0.82996886  0.51217214  1
  H+  H57  1  0.18855942  0.64986251  0.99476086  1
  H+  H58  1  0.49780445  0.36117825  0.64759774  1
  H+  H59  1  0.36098125  0.61250002  0.50749826  1
  H+  H60  1  0.33785541  0.34279321  0.71137581  1
  H+  H61  1  0.89454318  0.37042542  0.84871735  1
  H+  H62  1  0.72334989  0.89234721  0.15711410  1
  H+  H63  1  0.20193771  0.20389297  0.38811793  1
  H+  H64  1  0.13939511  0.28112689  0.48070985  1
  H+  H65  1  0.99776358  0.64371727  1.00323336  1
  H+  H66  1  0.11191179  0.60455860  0.12957507  1
  H+  H67  1  0.85401018  0.22091399  0.34068598  1
  H+  H68  1  0.11684064  0.79726914  0.18897070  1
  H+  H69  1  0.16947166  0.58173831  0.83171194  1
  H+  H70  1  0.85685657  0.63560516  0.83889397  1
  H+  H71  1  0.87977928  0.36498528  0.33822568  1
  H+  H72  1  0.36263627  0.47583526  0.83862471  1
  H+  H73  1  0.38015417  0.27033538  0.82988316  1
  H+  H74  1  0.85888688  0.39244579  0.67114437  1
  H+  H75  1  0.37098563  0.61750221  0.16842032  1
  H+  H76  1  0.77357740  0.63471249  0.66102127  1
  H+  H77  1  0.65624819  0.97212893  0.16424745  1
  H+  H78  1  0.36384730  0.63473736  0.66436872  1
  H+  H79  1  -0.00656010  0.82333976  0.15439241  1
  H+  H80  1  0.28409556  0.40446227  0.15365071  1
  H+  H81  1  0.57496749  0.65434713  0.42974246  1
  H+  H82  1  0.39237587  0.36884471  0.16354275  1
  H+  H83  1  0.10328707  0.72371482  0.49444272  1
  H+  H84  1  0.85983833  0.84787481  0.51369246  1
  H+  H85  1  0.40912730  0.78423377  0.00345033  1
  H+  H86  1  0.52669663  0.14275792  0.49769078  1
  H+  H87  1  0.61708724  0.22917655  0.49919625  1
  H+  H88  1  0.25035312  0.07209505  0.35525194  1
  H+  H89  1  0.33255215  0.36437130  0.68351410  1
  H+  H90  1  0.12669816  0.33839426  0.33205891  1
  H+  H91  1  0.14369199  0.99694068  0.14795047  1
  H+  H92  1  0.87076154  0.40170577  0.00733854  1
  H+  H93  1  0.35149414  0.65081276  0.41664936  1
  H+  H94  1  0.67251160  0.63255556  0.48986543  1
  H+  H95  1  0.64763791  0.86979719  0.32142566  1
  H+  H96  1  0.52610271  0.89288230  0.83529575  1
  H+  H97  1  0.84660471  0.23072325  0.49800672  1
  H+  H98  1  0.67691308  0.85747103  0.25613727  1
  H+  H99  1  0.39559783  0.86691292  0.00524016  1
  H+  H100  1  0.61537885  0.74751765  0.14904663  1
  H+  H101  1  0.97110834  0.10597137  0.33187872  1
  H+  H102  1  0.64632398  0.61855007  0.65303788  1
  H+  H103  1  0.33316299  0.15670141  0.10899787  1
  H+  H104  1  0.11316273  0.85772543  0.50414769  1
  H+  H105  1  0.86266732  0.89030517  0.33213791  1
  H+  H106  1  0.36813055  0.97326988  0.67320709  1
  H+  H107  1  0.39499414  0.51327585  0.50436306  1
  H+  H108  1  0.77134910  0.88910476  0.32701706  1
  H+  H109  1  0.28137332  0.87607296  0.34072800  1
  H+  H110  1  0.72374141  0.36446002  0.50201671  1
  H+  H111  1  0.86179372  0.60353094  0.50256839  1
  H+  H112  1  0.85392822  0.72189016  0.84154854  1
  H+  H113  1  0.10670766  0.72573827  0.67712832  1
  H+  H114  1  0.79616523  0.65784723  0.43502487  1
  H+  H115  1  0.93050144  0.32164007  0.18209885  1
  H+  H116  1  0.13613560  0.12213355  0.99167407  1
  H+  H117  1  0.73633525  0.10929869  0.31536302  1
  H+  H118  1  0.13389887  0.61229481  0.50764465  1
  H+  H119  1  0.37918510  0.22432462  0.66336991  1
  H+  H120  1  0.76323302  0.13562050  0.85702723  1
  H+  H121  1  0.32749246  0.22470409  0.32970898  1
  H+  H122  1  0.61544773  0.71779762  0.82485123  1
  H+  H123  1  0.22104675  0.61005764  0.65949124  1
  H+  H124  1  0.09013585  0.17841275  0.61843010  1
  H+  H125  1  0.75093452  0.12949795  0.50839580  1
  H+  H126  1  0.63860012  0.51611218  0.84073164  1
  H+  H127  1  0.34893878  0.18069304  0.76501916  1
  H+  H128  1  0.07134128  0.62918876  -0.01853213  1
  H+  H129  1  0.49030512  0.37105821  0.48924537  1
  H+  H130  1  0.36633006  0.70261079  0.51096579  1
  H+  H131  1  0.02438768  0.88830747  0.68148646  1
  H+  H132  1  0.25852427  0.88134288  0.15812349  1
  H+  H133  1  0.61499274  -0.02195263  0.83460094  1
  H+  H134  1  0.33288717  0.90170416  0.49842663  1
  H+  H135  1  0.37697653  0.11703234  0.18505967  1
  H+  H136  1  0.44480399  0.65863120  0.34553323  1
  H+  H137  1  0.97511827  0.62062761  0.84863075  1
  H+  H138  1  0.47806228  0.60969359  0.66111054  1
  H+  H139  1  0.33222993  0.50137277  0.68853275  1
  H+  H140  1  0.13810921  0.86103055  0.67917560  1
  H+  H141  1  0.71684269  0.85251678  0.50730485  1
  H+  H142  1  0.38668008  0.76869220  0.66444742  1
  H+  H143  1  0.88312608  0.85447001  0.66595790  1
  H+  H144  1  -0.03284647  0.37586389  0.64305857  1
  H+  H145  1  0.66543495  0.82075669  0.89705213  1
  H+  H146  1  0.42029974  0.33392195  0.32358201  1
  H+  H147  1  0.27932794  0.14874647  0.16935432  1
  H+  H148  1  0.12630068  0.24325787  0.15983176  1
  H+  H149  1  0.20443257  0.86991453  0.49087069  1
  H+  H150  1  0.64894027  0.55256164  0.31634928  1
  H+  H151  1  0.14176759  0.26484756  0.83885780  1
  H+  H152  1  0.00814386  0.85902858  0.31759907  1
  H+  H153  1  0.02815958  0.89436407  0.00367358  1
  H+  H154  1  0.28205582  0.38839301  0.47180751  1
  H+  H155  1  0.03421842  0.40469298  0.00556774  1
  H+  H156  1  0.86615248  0.97008393  0.15721402  1
  H+  H157  1  0.99390342  0.10019749  0.17384499  1
  H+  H158  1  0.87953804  0.10724340  0.85325578  1
  H+  H159  1  0.78890364  0.38239104  0.84641622  1
  H+  H160  1  0.10011789  0.47738875  0.66789425  1
  H+  H161  1  0.58650731  0.42106131  0.72548463  1
  H+  H162  1  0.38374166  0.63856751  0.82760842  1
  H+  H163  1  0.28122156  0.12526767  1.01554330  1
  H+  H164  1  0.48719566  0.16032078  0.84669432  1
  H+  H165  1  0.10804176  0.44594260  0.82248263  1
  H+  H166  1  0.55314756  0.42671789  0.32906556  1
  H+  H167  1  0.11397343  0.97753322  0.68391349  1
  H+  H168  1  0.10618289  0.34811741  0.68743800  1
  H+  H169  1  0.13646549  0.08746160  0.33667182  1
  H+  H170  1  0.48365290  0.60963456  0.83879173  1
  H+  H171  1  0.38203887  0.79350631  0.85945692  1
  H+  H172  1  0.07835170  0.43470396  0.15212500  1
  H+  H173  1  0.20002828  0.37177053  0.70393165  1
  H+  H174  1  0.96161944  0.92851735  0.26442965  1
  H+  H175  1  0.12395974  0.66924020  0.82509924  1
  H+  H176  1  0.85088477  0.64256883  1.02565056  1
  H+  H177  1  0.13327735  0.02601642  0.51947043  1
  H+  H178  1  0.13208719  0.77809130  0.98470272  1
  H+  H179  1  0.13295041  0.34519717  0.82668594  1
  H+  H180  1  0.88123437  0.28626573  0.63418743  1
  H+  H181  1  0.10345352  0.63475900  0.67432609  1
  H+  H182  1  0.53298651  0.15638481  0.33906938  1
  H+  H183  1  0.58367989  0.35540449  0.80854279  1
  H+  H184  1  0.81888572  0.92909612  0.41957302  1
  H+  H185  1  0.37834082  0.91620269  0.83645026  1
  H+  H186  1  0.42082912  0.57625191  0.60075188  1
  H+  H187  1  0.87978645  0.01744600  0.84822679  1
  H+  H188  1  0.72218059  0.85214370  0.98670497  1
  H+  H189  1  0.60397396  0.13539414  0.67363631  1
  H+  H190  1  0.34811349  0.21020299  0.30609295  1
  H+  H191  1  0.39041299  0.11711489  0.65715113  1
  H+  H192  1  0.13697654  0.70333886  0.34856776  1
  H+  H193  1  0.63988619  0.36487504  0.65887357  1
  H+  H194  1  0.86225522  0.14821924  0.66754731  1
  H+  H195  1  0.11456667  0.98861668  0.33087840  1
  H+  H196  1  0.37220000  0.15659674  0.82998969  1
  H+  H197  1  0.60869320  0.20178906  0.16136603  1
  H+  H198  1  0.76659680  0.14993256  0.01383214  1
  H+  H199  1  0.55852068  0.12004432  1.00029655  1
  H+  H200  1  0.60766250  0.62137484  1.00632352  1
  H+  H201  1  0.27462487  0.14373823  0.50492035  1
  H+  H202  1  0.14919498  0.11791939  0.66893222  1
  H+  H203  1  0.12210320  0.10379198  0.84194489  1
  H+  H204  1  0.42859436  0.84967843  0.15034125  1
  H+  H205  1  0.17964744  0.80144534  0.26930964  1
  H+  H206  1  0.61459940  0.62770953  0.82766905  1
  H+  H207  1  -0.05013558  0.36055656  0.49053233  1
  H+  H208  1  -0.02024873  0.12293667  0.67442893  1
  H+  H209  1  0.41050942  0.06009500  0.84184692  1
  H+  H210  1  0.06640364  0.38801604  0.53257867  1
  H+  H211  1  0.88034515  0.54439450  0.34345959  1
  H+  H212  1  0.30238350  0.64515139  0.00575426  1
  H+  H213  1  0.12336593  0.26811581  0.00138750  1
  H+  H214  1  0.61411609  0.97064651  0.49534455  1
  H+  H215  1  0.88483382  0.27656726  0.85647230  1
  H+  H216  1  0.38728960  0.35666590  0.97799532  1
  H+  H217  1  0.22434337  0.36189491  0.99298924  1
  H+  H218  1  0.36820565  0.42117558  0.32302388  1
  H+  H219  1  0.65880556  0.39038099  0.32390004  1
  H+  H220  1  1.01962944  0.13530212  0.49758967  1
  H+  H221  1  0.62181706  0.48213238  0.66537587  1
  H+  H222  1  0.84676314  0.38804897  0.45398919  1
  H+  H223  1  0.11809304  0.89622375  0.83399259  1
  H+  H224  1  0.53032670  0.87757842  0.49780666  1
  H+  H225  1  0.47792477  0.35566276  -0.02330532  1
  H+  H226  1  0.18460117  0.55873546  0.29512777  1
  H+  H227  1  0.01115060  0.37197406  0.82702971  1
  H+  H228  1  0.51742076  0.38680325  0.81510097  1
  H+  H229  1  0.88367976  0.86357095  0.85165158  1
  H+  H230  1  0.76723651  0.63539859  0.12285754  1
  H+  H231  1  0.39611276  0.60639122  0.99143856  1
  H+  H232  1  0.53776810  0.90907660  0.01696743  1
  H+  H233  1  0.42502364  0.58389598  0.89999275  1
  H+  H234  1  0.72591052  0.60766360  0.84500473  1
  H+  H235  1  0.14502709  0.37115042  0.47260388  1
  H+  H236  1  0.35997429  1.01769986  0.17894760  1
  H+  H237  1  0.63652936  0.85552066  0.83933197  1
  H+  H238  1  0.86516554  0.89452353  0.00897324  1
  H+  H239  1  0.43575008  0.54169464  0.22502462  1
  H+  H240  1  0.87213822  0.02941760  0.50033951  1
  H+  H241  1  0.29031473  0.91540878  0.82835034  1
  H+  H242  1  0.64563072  0.62500670  0.15693077  1
  H+  H243  1  0.35752321  0.46644344  -0.00777249  1
  H+  H244  1  0.76955050  0.87758121  0.67627139  1
  H+  H245  1  0.72730285  0.36286287  0.66373861  1
  H+  H246  1  0.63291938  0.28002601  0.84715103  1
  H+  H247  1  0.26360977  0.65650769  0.83504998  1
  H+  H248  1  0.80700058  0.18570591  0.17719493  1
  H+  H249  1  0.90525060  0.59539182  0.28183108  1
  H+  H250  1  0.37123734  0.38686687  0.47943213  1
  H+  H251  1  0.38299817  0.03587372  0.50693142  1
  H+  H252  1  0.58036611  0.62820546  0.32965344  1
  H+  H253  1  1.01145964  0.12421954  0.83121043  1
  H+  H254  1  0.13034245  0.35624192  0.18080411  1
  H+  H255  1  0.37638115  0.08583820  0.33529566  1
  H+  H256  1  0.62919740  0.84932999  0.51032457  1
  H+  H257  1  0.59277504  0.23489445  0.78080182  1
  H+  H258  1  0.62716143  1.01554211  0.66288868  1
  H+  H259  1  0.63633618  0.12009684  0.85013259  1
  H+  H260  1  0.60787202  0.45760158  -0.00662727  1
  H+  H261  1  0.62468793  0.39728307  0.48727624  1
  H+  H262  1  0.85355752  0.75685397  0.51126726  1
  H+  H263  1  0.48306373  0.94254353  0.27313796  1
  H+  H264  1  0.97422164  0.61497975  0.65403822  1
  H+  H265  1  -0.00135233  0.88473370  0.50198975  1
  H+  H266  1  0.88740938  0.78290996  1.00982607  1
  H+  H267  1  0.88384807  0.01715381  0.32503771  1
  H+  H268  1  0.22486109  0.85755201  0.67638729  1
  H+  H269  1  0.83960764  0.37012804  0.16119427  1
  H+  H270  1  0.53703582  0.89254213  0.33676723  1
  H+  H271  1  0.88546019  0.51817973  0.18537307  1
  H+  H272  1  0.22473014  0.36047190  0.32648699  1
  H+  H273  1  0.22119855  0.57019318  0.13392132  1
  H+  H274  1  0.10274501  0.89853333  0.13962195  1
  H+  H275  1  0.27812116  0.88668042  0.00086857  1
  H+  H276  1  1.01332705  0.81309516  0.18125251  1
  H+  H277  1  0.38513643  0.12597481  0.51281163  1
  H+  H278  1  0.14586678  0.79512180  0.83142438  1
  H+  H279  1  0.61641428  0.72032792  0.67434218  1
  H+  H280  1  0.10868407  0.45126993  0.35212508  1
  H+  H281  1  0.13478334  0.03167092  0.98875456  1
  H+  H282  1  0.85340389  0.13940998  0.50834942  1
  H+  H283  1  0.12493586  0.15404839  0.15500726  1
  H+  H284  1  0.09772585  0.65098917  0.40942810  1
  H+  H285  1  0.60990251  0.22758319  0.66871294  1
  H+  H286  1  0.84351159  0.64370760  0.35580794  1
  H+  H287  1  0.89140418  0.52694917  0.84992678  1
  H+  H288  1  0.82654696  0.20044325  0.70231827  1
  H+  H289  1  0.35706314  0.66073549  0.06658312  1
  H+  H290  1  0.41968421  0.08989093  0.58907231  1
  H+  H291  1  0.62772844  0.04048687  1.00868511  1
  H+  H292  1  0.33270446  0.65634010  0.72536180  1
  H+  H293  1  0.89253627  0.34370220  0.54806513  1
  H+  H294  1  0.63711724  0.49104727  0.48504950  1
  H+  H295  1  0.17676407  0.84668334  0.89396522  1
  H+  H296  1  0.82427726  0.41341735  0.10224368  1
  H+  H297  1  0.03345302  0.35253823  0.11213705  1
  H+  H298  1  0.78616390  0.40327252  -0.01002625  1
  H+  H299  1  0.67669543  0.61318707  0.25852279  1
  H+  H300  1  0.07692497  0.67632763  0.76612611  1
  H+  H301  1  0.61663433  0.39244347  0.15176680  1
  H+  H302  1  0.89522498  0.83311825  0.24725028  1
  H+  H303  1  0.14169460  0.87114648  0.98376703  1
  H+  H304  1  0.44266707  0.84812785  0.25257650  1
  H+  H305  1  0.58881411  0.65661219  0.73119187  1
  H+  H306  1  0.15958128  0.08364666  0.90664420  1
  H+  H307  1  0.81670995  0.15868492  0.79774808  1
  H+  H308  1  0.91117165  0.82757133  0.60467824  1
  H+  H309  1  0.13666756  0.05618738  0.23806852  1
  H+  H310  1  0.39056099  0.86066016  0.66588041  1
  H+  H311  1  0.13074443  0.60842768  0.23575939  1
  H+  H312  1  0.87680472  0.30939082  0.24100878  1
  H+  H313  1  0.58923241  0.91233396  0.39957687  1
  H+  H314  1  0.44179907  0.37171389  0.25753990  1
  H+  H315  1  0.87214482  0.52386136  0.48697807  1
  H+  H316  1  0.18177202  0.37001169  0.58254737  1
  H+  H317  1  0.41565382  0.33418095  0.89865227  1
  H+  H318  1  0.40580980  0.35092357  0.64358123  1
  H+  H319  1  0.91132000  0.08915703  0.94315631  1
  H+  H320  1  0.66404790  0.82621021  0.60510692  1
  H+  H321  1  0.91098430  0.57932673  0.59430175  1
  H+  H322  1  0.91423707  0.83315863  0.94572502  1
  H+  H323  1  0.13707045  0.11554754  0.52078106  1
  H+  H324  1  0.83781438  0.41818130  0.78008866  1
  H+  H325  1  0.12522109  0.48969518  0.99087985  1
  H+  H326  1  0.15178972  0.51203367  0.08376962  1
  H+  H327  1  0.57870261  0.39427495  0.04775497  1
  H+  H328  1  0.39474079  0.28203129  0.17287815  1
  H+  H329  1  0.46468078  0.62979953  0.25525733  1
  H+  H330  1  0.58761785  0.18460559  0.39958867  1
  H+  H331  1  0.40427592  0.07383883  0.24799622  1
  H+  H332  1  0.90025758  0.59203816  0.94249049  1
  H+  H333  1  0.36613432  0.23089080  0.48968891  1
  H+  H334  1  0.05902671  0.92500164  0.44503212  1
  H+  H335  1  0.71360179  0.10636148  0.65327500  1
  H+  H336  1  0.64874597  0.29656484  0.33030572  1
  H+  H337  1  0.81282015  0.15780885  0.07570906  1
  H+  H338  1  0.62805049  0.12665244  0.15785516  1
  H+  H339  1  0.94355982  0.06049742  0.23585745  1
  H+  H340  1  0.32915393  0.40625415  0.05062906  1
  H+  H341  1  0.69511844  0.07679568  0.22789005  1
  H+  H342  1  0.10865122  0.93678284  0.05047921  1
  H+  H343  1  0.05632923  0.41350232  0.72433699  1
  H+  H344  1  0.31248713  0.11646097  0.41258884  1
  H+  H345  1  0.07622110  0.65176661  0.08774349  1
  H+  H346  1  0.90378476  0.07112914  0.56589752  1
  H+  H347  1  0.37600668  0.48434514  0.13673712  1
  H+  H348  1  0.58012830  0.66202093  0.06175789  1
  H+  H349  1  0.07148650  0.15066615  0.77143479  1
  H+  H350  1  0.85888063  0.98096008  0.00702828  1
  H+  H351  1  0.20100464  0.61973478  0.92951567  1
  H+  H352  1  0.06139244  0.38396794  0.40430123  1
  H+  H353  1  0.42726330  0.82312715  0.57759937  1
  H+  H354  1  0.34899572  0.92827136  0.73801993  1
  H+  H355  1  0.66556250  0.57436517  0.93582467  1
  H+  H356  1  0.92435450  0.34105599  0.94413467  1
  H+  H357  1  0.71490970  0.35948444  0.16844825  1
  H+  H358  1  0.60963087  0.93582333  0.06852211  1
  H+  H359  1  0.33564595  0.43278192  0.38627659  1
  H+  H360  1  0.68291763  0.59646894  0.59184956  1
  H+  H361  1  0.47960360  0.59764983  0.99123766  1
  H+  H362  1  0.37538252  0.88743637  0.33933541  1
  H+  H363  1  -0.02146003  0.59690730  0.18306206  1
  H+  H364  1  0.58597121  0.91683201  0.73778228  1
  H+  H365  1  0.67306978  0.33948852  0.56642218  1
  H+  H366  1  0.32706766  0.92226418  0.06308157  1
  H+  H367  1  0.65304338  0.09210960  0.91497790  1
  H+  H368  1  0.65326539  0.07513777  0.56847059  1
  H+  H369  1  0.07956338  0.92207919  0.77704215  1
  H+  H370  1  0.37802688  0.36660940  0.83560414  1
  H+  H371  1  0.43590825  0.33705376  0.54991822  1
  H+  H372  1  0.24729804  0.95211258  0.12752349  1
  H+  H373  1  0.13366852  0.34112541  0.58054583  1
  H+  H374  1  0.17769420  0.62781349  0.22829676  1
  H+  H375  1  0.60906880  0.44639845  0.38957614  1
  H+  H376  1  0.33398473  0.93090190  0.43032318  1
  H+  H377  1  0.08372584  0.17835942  0.06540553  1
  H+  H378  1  0.03214516  0.82202473  0.37432192  1
  H+  H379  1  0.31057901  0.45278351  0.75180852  1
  H+  H380  1  0.82310578  0.92112703  0.09338504  1
  H+  H381  1  0.17398885  0.08265872  0.61183806  1
  H+  H382  1  0.87907337  0.11885526  1.00226923  1
  H+  H383  1  0.11285401  0.23864343  0.67822591  1
  O2-  O384  1  0.09581105  0.18468113  0.14021249  1
  O2-  O385  1  0.08198219  0.16224484  0.48926089  1
  O2-  O386  1  0.07251900  0.14953675  0.81576243  1
  O2-  O387  1  0.04439118  0.37092459  0.15454934  1
  O2-  O388  1  0.06536935  0.41257226  0.49314460  1
  O2-  O389  1  0.06561648  0.39409201  0.80193463  1
  O2-  O390  1  0.08778244  0.64357151  0.13056279  1
  O2-  O391  1  0.07794159  0.66083560  0.48519896  1
  O2-  O392  1  0.08369758  0.68763250  0.81124461  1
  O2-  O393  1  0.14950412  0.95280321  0.12344840  1
  O2-  O394  1  0.05977690  0.92194620  0.48934257  1
  O2-  O395  1  0.08218328  0.92339077  0.82294001  1
  O2-  O396  1  0.33816449  0.17101369  0.15514125  1
  O2-  O397  1  0.33229510  0.16654589  0.48582139  1
  O2-  O398  1  0.34394701  0.18609987  0.80940121  1
  O2-  O399  1  0.33843802  0.42264101  0.13083004  1
  O2-  O400  1  0.34586744  0.42231369  0.46632714  1
  O2-  O401  1  0.33233688  0.41617085  0.82190591  1
  O2-  O402  1  0.34195687  0.64254286  0.14463613  1
  O2-  O403  1  0.32956856  0.64349126  0.49562949  1
  O2-  O404  1  0.36106315  0.67622685  0.80900185  1
  O2-  O405  1  0.29283731  0.93768959  0.13716314  1
  O2-  O406  1  0.32373604  0.94135649  0.47389438  1
  O2-  O407  1  0.35184919  0.94603252  0.81539594  1
  O2-  O408  1  0.58119417  0.13956353  0.15526225  1
  O2-  O409  1  0.58742146  0.16802666  0.48496882  1
  O2-  O410  1  0.57746784  0.25234531  0.81872515  1
  O2-  O411  1  0.59050477  0.42448679  0.13179368  1
  O2-  O412  1  0.60020689  0.43160350  0.46989687  1
  O2-  O413  1  0.57638550  0.40602211  0.80027947  1
  O2-  O414  1  0.58918830  0.68559164  0.13938886  1
  O2-  O415  1  0.59175670  0.65755033  0.47329157  1
  O2-  O416  1  0.58421467  0.65687998  0.80997736  1
  O2-  O417  1  0.62001765  0.90950117  0.14923305  1
  O2-  O418  1  0.58965561  0.91058126  0.48067839  1
  O2-  O419  1  0.58470896  0.91924670  0.81737046  1
  O2-  O420  1  0.78719287  0.12772025  0.15894777  1
  O2-  O421  1  0.81699565  0.16473749  0.49523059  1
  O2-  O422  1  0.82472089  0.16309867  0.84161879  1
  O2-  O423  1  0.82024207  0.41026370  0.14716741  1
  O2-  O424  1  0.81845566  0.42079111  0.44081148  1
  O2-  O425  1  0.84771004  0.42206812  0.82444973  1
  O2-  O426  1  0.82832887  0.66948020  0.10710922  1
  O2-  O427  1  0.79527974  0.65543558  0.48664133  1
  O2-  O428  1  0.82364803  0.66287524  0.82494354  1
  O2-  O429  1  0.81623772  0.91854613  0.13923227  1
  O2-  O430  1  0.80215751  0.94320855  0.46066219  1
  O2-  O431  1  0.83161526  0.91605884  0.82034002  1
  O2-  O432  1  0.12180716  0.05787348  0.19425364  1
  O2-  O433  1  0.16860265  0.08592160  0.53473305  1
  O2-  O434  1  0.15362421  0.07499732  0.85969502  1
  O2-  O435  1  0.17534628  0.34136770  0.19085121  1
  O2-  O436  1  0.17420856  0.33887442  0.46300939  1
  O2-  O437  1  0.16761789  0.32603080  0.84940454  1
  O2-  O438  1  0.15888751  0.53795516  0.12437598  1
  O2-  O439  1  0.15864939  0.57632108  0.52242040  1
  O2-  O440  1  0.20492478  0.63633770  0.85234088  1
  O2-  O441  1  0.16719623  0.79001874  0.18998368  1
  O2-  O442  1  0.14726955  0.82884659  0.50671657  1
  O2-  O443  1  0.17903870  0.85453777  0.84871195  1
  O2-  O444  1  0.39671422  0.07555961  0.19947638  1
  O2-  O445  1  0.41615494  0.09417916  0.52670961  1
  O2-  O446  1  0.42914055  0.11605601  0.86205472  1
  O2-  O447  1  0.42498095  0.34439655  0.18303757  1
  O2-  O448  1  0.43014440  0.33706312  0.50488014  1
  O2-  O449  1  0.41124365  0.33533843  0.84757669  1
  O2-  O450  1  0.44528442  0.59847371  0.21456151  1
  O2-  O451  1  0.42479689  0.57155114  0.52443179  1
  O2-  O452  1  0.42283829  0.58460892  0.85418190  1
  O2-  O453  1  0.44820137  0.81811299  0.17546501  1
  O2-  O454  1  0.43193804  0.81442211  0.53233603  1
  O2-  O455  1  0.42295662  0.85324697  0.86947723  1
  O2-  O456  1  0.69628188  0.07512617  0.17836232  1
  O2-  O457  1  0.66132146  0.08001293  0.52286847  1
  O2-  O458  1  0.66015891  0.08754008  0.86910885  1
  O2-  O459  1  0.65449775  0.33164890  0.18390645  1
  O2-  O460  1  0.66647367  0.33566049  0.52094792  1
  O2-  O461  1  0.71142617  0.32209145  0.88428195  1
  O2-  O462  1  0.67720567  0.59518200  0.16861372  1
  O2-  O463  1  0.70450915  0.60488831  0.50811932  1
  O2-  O464  1  0.66291467  0.57422168  0.85834063  1
  O2-  O465  1  0.66083702  0.86208814  0.17354062  1
  O2-  O466  1  0.65902193  0.81828297  0.52522760  1
  O2-  O467  1  0.66649427  0.82381612  0.85022090  1
  O2-  O468  1  0.96051223  0.04538065  0.19624834  1
  O2-  O469  1  0.90607767  0.08576881  0.52288042  1
  O2-  O470  1  0.91396863  0.07903788  0.86232499  1
  O2-  O471  1  0.87082653  0.29848794  0.19621466  1
  O2-  O472  1  0.88838740  0.33107650  0.50311296  1
  O2-  O473  1  0.92326757  0.33828654  0.86584718  1
  O2-  O474  1  0.92321307  0.57524367  0.20368523  1
  O2-  O475  1  0.89662427  0.57627367  0.51245459  1
  O2-  O476  1  0.91659321  0.58708695  0.86585765  1
  O2-  O477  1  0.83649221  0.79192246  0.19170035  1
  O2-  O478  1  0.89087773  0.81859193  0.52560926  1
  O2-  O479  1  0.91304606  0.83363371  0.86891224  1
  O2-  O480  1  0.15005543  0.04723311  0.31462077  1
  O2-  O481  1  0.17795807  0.08515861  0.65747584  1
  O2-  O482  1  0.16665629  0.09341303  0.97494116  1
  O2-  O483  1  0.16318319  0.31646656  0.31429698  1
  O2-  O484  1  0.13957590  0.32122596  0.70180294  1
  O2-  O485  1  0.15881817  0.33314958  0.98671840  1
  O2-  O486  1  0.18116888  0.55342450  0.33928655  1
  O2-  O487  1  0.15963453  0.58203630  0.64674288  1
  O2-  O488  1  0.19683618  0.60641341  0.97413478  1
  O2-  O489  1  0.18094850  0.81348835  0.31360644  1
  O2-  O490  1  0.16352366  0.82645786  0.66513338  1
  O2-  O491  1  0.17079165  0.83831322  0.97144569  1
  O2-  O492  1  0.41735047  0.07342526  0.31106401  1
  O2-  O493  1  0.42334657  0.08853904  0.63877677  1
  O2-  O494  1  0.43875415  0.08925274  0.98566238  1
  O2-  O495  1  0.44943305  0.38841268  0.30170231  1
  O2-  O496  1  0.43841447  0.32394476  0.62929466  1
  O2-  O497  1  0.41798960  0.33022753  0.95833751  1
  O2-  O498  1  0.49977475  0.67205081  0.32210777  1
  O2-  O499  1  0.41833154  0.58498093  0.64558744  1
  O2-  O500  1  0.41849740  0.56962316  0.97474790  1
  O2-  O501  1  0.45216141  0.88416208  0.28938645  1
  O2-  O502  1  0.42111543  0.83033720  0.65093220  1
  O2-  O503  1  0.43313112  0.84457675  0.98950198  1
  O2-  O504  1  0.68135980  0.07340684  0.29164576  1
  O2-  O505  1  0.65121048  0.07441162  0.64418004  1
  O2-  O506  1  0.65651743  0.10040821  0.98614069  1
  O2-  O507  1  0.68791638  0.35668751  0.31500817  1
  O2-  O508  1  0.66828603  0.33196426  0.64504729  1
  O2-  O509  1  0.71173839  0.38508140  0.92810642  1
  O2-  O510  1  0.66710177  0.61259023  0.30289850  1
  O2-  O511  1  0.67992075  0.59125146  0.63688402  1
  O2-  O512  1  0.65892412  0.56930820  0.98129701  1
  O2-  O513  1  0.68320933  0.84979341  0.29983439  1
  O2-  O514  1  0.66764740  0.82836496  0.65047521  1
  O2-  O515  1  0.66525575  0.81789313  0.96725341  1
  O2-  O516  1  0.91871412  0.07746141  0.30773125  1
  O2-  O517  1  0.91528779  0.09137311  0.68253358  1
  O2-  O518  1  0.91344211  0.09206087  0.98836871  1
  O2-  O519  1  0.90174296  0.33041951  0.31842175  1
  O2-  O520  1  0.90745277  0.34805078  0.62454540  1
  O2-  O521  1  0.92909082  0.34631627  0.98962977  1
  O2-  O522  1  0.89634723  0.60074497  0.32586532  1
  O2-  O523  1  0.91236862  0.58470169  0.63948164  1
  O2-  O524  1  0.89977241  0.59423754  0.98814002  1
  O2-  O525  1  0.93300195  0.87135244  0.28256877  1
  O2-  O526  1  0.91547398  0.82647107  0.64985749  1
  O2-  O527  1  0.92065285  0.84079589  0.99111884  1
  O2-  O528  1  0.08006640  0.17871746  0.01961218  1
  O2-  O529  1  0.14301353  0.17866361  0.37308513  1
  O2-  O530  1  0.08462825  0.17301344  0.66264975  1
  O2-  O531  1  0.09811437  0.43582022  0.01479272  1
  O2-  O532  1  0.06770467  0.38814746  0.35994158  1
  O2-  O533  1  0.05945330  0.41575549  0.67911432  1
  O2-  O534  1  0.06290229  0.66763046  0.00822439  1
  O2-  O535  1  0.11242010  0.64572480  0.36666245  1
  O2-  O536  1  0.07024176  0.66228166  0.68834776  1
  O2-  O537  1  0.09276415  0.92856922  0.00661884  1
  O2-  O538  1  0.05809629  0.86714255  0.34364908  1
  O2-  O539  1  0.08156724  0.91863730  0.70144098  1
  O2-  O540  1  0.32296658  0.12503276  0.04416804  1
  O2-  O541  1  0.30017356  0.07724062  0.37770971  1
  O2-  O542  1  0.34864228  0.16592115  0.68259104  1
  O2-  O543  1  0.32309088  0.40417123  0.00560250  1
  O2-  O544  1  0.32338041  0.42971524  0.34200211  1
  O2-  O545  1  0.28480443  0.46741641  0.71736687  1
  O2-  O546  1  0.36177975  0.67183706  0.02179334  1
  O2-  O547  1  0.35913663  0.65158050  0.37191892  1
  O2-  O548  1  0.33127139  0.66266300  0.68086999  1
  O2-  O549  1  0.33644625  0.91485412  0.01954411  1
  O2-  O550  1  0.34122329  0.91136392  0.35735452  1
  O2-  O551  1  0.34321014  0.91684376  0.69305859  1
  O2-  O552  1  0.62059204  0.15163890  0.01140528  1
  O2-  O553  1  0.58965512  0.19714324  0.35595451  1
  O2-  O554  1  0.57309675  0.16692613  0.68369746  1
  O2-  O555  1  0.57581310  0.39494745  0.00268271  1
  O2-  O556  1  0.61311879  0.45178785  0.34445158  1
  O2-  O557  1  0.59093321  0.42149566  0.67957967  1
  O2-  O558  1  0.57649048  0.65285545  0.01687708  1
  O2-  O559  1  0.53099657  0.62133891  0.35504574  1
  O2-  O560  1  0.58926840  0.65839477  0.68555521  1
  O2-  O561  1  0.59793719  0.95124707  0.02815735  1
  O2-  O562  1  0.59505427  0.91559344  0.35463413  1
  O2-  O563  1  0.58654551  0.91503901  0.69228092  1
  O2-  O564  1  0.82478572  0.17099830  0.03172618  1
  O2-  O565  1  0.82661454  0.15934213  0.35215129  1
  O2-  O566  1  0.82755915  0.17745026  0.66232632  1
  O2-  O567  1  0.83585775  0.42840270  0.01860456  1
  O2-  O568  1  0.83328797  0.42735509  0.37397065  1
  O2-  O569  1  0.82927424  0.41890200  0.69294142  1
  O2-  O570  1  0.82040895  0.67349478  0.04040152  1
  O2-  O571  1  0.81189629  0.67146953  0.37493473  1
  O2-  O572  1  0.83654278  0.66358100  0.67569604  1
  O2-  O573  1  0.82872692  0.91984172  0.02030308  1
  O2-  O574  1  0.83096807  0.91790067  0.34866837  1
  O2-  O575  1  0.83038795  0.90531396  0.69214646  1
