# generated using pymatgen
data_H2O
_symmetry_space_group_name_H-M   'P 1'
_cell_length_a   17.98018623
_cell_length_b   17.99004435
_cell_length_c   21.99037481
_cell_angle_alpha   89.97362738
_cell_angle_beta   90.01401116
_cell_angle_gamma   120.00231636
_symmetry_Int_Tables_number   1
_chemical_formula_structural   H2O
_chemical_formula_sum   'H384 O192'
_cell_volume   6159.98279909
_cell_formula_units_Z   192
loop_
 _symmetry_equiv_pos_site_id
 _symmetry_equiv_pos_as_xyz
  1  'x, y, z'
loop_
 _atom_type_symbol
 _atom_type_oxidation_number
  H+  1.0
  O2-  -2.0
loop_
 _atom_site_type_symbol
 _atom_site_label
 _atom_site_symmetry_multiplicity
 _atom_site_fract_x
 _atom_site_fract_y
 _atom_site_fract_z
 _atom_site_occupancy
  H+  H0  1  0.11971628  0.65291959  0.49453277  1
  H+  H1  1  0.80331781  0.68389137  0.07929304  1
  H+  H2  1  0.38967721  0.01659049  0.98356130  1
  H+  H3  1  0.86542466  -0.01385954  0.50056230  1
  H+  H4  1  0.12122946  0.00718301  0.99512844  1
  H+  H5  1  0.89163273  0.78326297  0.64872357  1
  H+  H6  1  0.86100440  0.14176071  0.15207448  1
  H+  H7  1  0.53107231  0.88500984  0.34007839  1
  H+  H8  1  0.56372585  0.47596266  0.81203593  1
  H+  H9  1  0.77104037  0.89455633  0.17522054  1
  H+  H10  1  0.03214831  0.16826143  0.34788235  1
  H+  H11  1  0.39120653  0.52455913  0.65402625  1
  H+  H12  1  0.37285885  0.88190499  0.98663864  1
  H+  H13  1  0.86499024  0.47946135  0.00078694  1
  H+  H14  1  0.74254231  0.87729974  0.32634325  1
  H+  H15  1  0.72640834  0.11748722  0.17385770  1
  H+  H16  1  0.92400591  0.11042158  0.24782793  1
  H+  H17  1  0.86602479  0.64431273  0.00024068  1
  H+  H18  1  0.38745325  0.26451988  0.17326072  1
  H+  H19  1  0.11258613  0.46405296  0.66520161  1
  H+  H20  1  0.88813144  0.65027674  0.81690091  1
  H+  H21  1  0.02156349  0.87460096  0.48634551  1
  H+  H22  1  0.88425036  0.35985364  0.17461641  1
  H+  H23  1  0.85802499  0.12163315  0.66906400  1
  H+  H24  1  0.52409136  0.14273460  0.33568735  1
  H+  H25  1  0.32617564  0.16466182  0.72361156  1
  H+  H26  1  0.52832315  0.13765121  1.00314989  1
  H+  H27  1  0.38125823  0.74360411  0.66389440  1
  H+  H28  1  0.11589378  0.25978787  0.14845631  1
  H+  H29  1  -0.12469465  0.35805941  0.33071179  1
  H+  H30  1  0.25991155  0.11920046  0.01061537  1
  H+  H31  1  0.22048770  0.62342786  0.00331817  1
  H+  H32  1  0.12658383  0.29845336  0.85868159  1
  H+  H33  1  0.29081322  0.65629497  0.66327830  1
  H+  H34  1  0.49416220  0.33039996  0.97624871  1
  H+  H35  1  0.34723617  0.11580891  0.01544321  1
  H+  H36  1  0.09952707  0.37980908  0.14233028  1
  H+  H37  1  0.84795105  0.23016764  0.34455415  1
  H+  H38  1  0.80812723  0.71489925  0.48408047  1
  H+  H39  1  0.39010757  0.36675942  0.32815573  1
  H+  H40  1  0.60865278  0.63602581  0.33513217  1
  H+  H41  1  0.10460850  0.72655188  1.01679891  1
  H+  H42  1  0.11623978  0.22118194  1.01679725  1
  H+  H43  1  0.39745586  0.61565479  0.65070499  1
  H+  H44  1  0.38360574  0.35047023  0.16992112  1
  H+  H45  1  0.89247333  0.38616352  0.84183710  1
  H+  H46  1  0.22463155  0.09817370  0.83785554  1
  H+  H47  1  0.78505049  0.65065949  0.66425336  1
  H+  H48  1  0.10835945  0.45933014  0.34225478  1
  H+  H49  1  0.07829675  0.66336257  0.07678702  1
  H+  H50  1  0.63261984  0.63526118  0.81698567  1
  H+  H51  1  0.72976225  -0.07024148  0.70186644  1
  H+  H52  1  0.35589297  0.66676677  0.75138814  1
  H+  H53  1  0.85393290  0.20235398  0.50073980  1
  H+  H54  1  0.64054244  0.11867350  0.65905425  1
  H+  H55  1  0.84618237  0.92441274  0.43605043  1
  H+  H56  1  0.06852246  0.13881149  0.10555464  1
  H+  H57  1  0.52673507  0.88066946  0.49922760  1
  H+  H58  1  0.40000682  0.56874596  0.99647112  1
  H+  H59  1  0.62455440  0.89430729  0.34310443  1
  H+  H60  1  0.40489188  0.24280490  0.98087916  1
  H+  H61  1  0.40580860  0.32641894  0.58606190  1
  H+  H62  1  0.69860669  0.70667575  0.06630729  1
  H+  H63  1  0.21881491  0.11941089  0.65725695  1
  H+  H64  1  0.37512934  0.74623585  0.82637464  1
  H+  H65  1  0.61870879  0.47585258  -0.00151866  1
  H+  H66  1  0.63532012  0.65032006  0.48452508  1
  H+  H67  1  0.74382773  0.61303157  0.33266267  1
  H+  H68  1  0.58958409  0.92127117  0.10183074  1
  H+  H69  1  0.97623307  0.37749097  0.83944407  1
  H+  H70  1  0.48590159  0.13176476  0.65582375  1
  H+  H71  1  0.98075898  0.57805138  0.28169098  1
  H+  H72  1  0.37960248  0.63214057  0.81223476  1
  H+  H73  1  0.68983612  0.56343438  0.48728058  1
  H+  H74  1  0.94993195  0.82807573  0.31897203  1
  H+  H75  1  0.91259694  0.81323644  0.55367899  1
  H+  H76  1  0.11653519  0.85637240  -0.00038282  1
  H+  H77  1  0.11907905  0.88616665  0.31204085  1
  H+  H78  1  0.62282363  0.51806059  0.16637007  1
  H+  H79  1  0.49502302  0.86096344  1.00049199  1
  H+  H80  1  0.89465775  0.63275030  0.65335716  1
  H+  H81  1  0.77198984  0.88288902  0.83304082  1
  H+  H82  1  0.62146511  0.23757997  0.67436002  1
  H+  H83  1  0.89621995  0.33550366  0.51789394  1
  H+  H84  1  0.35574708  0.45223296  0.17495278  1
  H+  H85  1  0.67855015  0.53755201  0.84331019  1
  H+  H86  1  0.63462107  1.02244885  0.33249912  1
  H+  H87  1  1.05003197  0.61603445  0.22816761  1
  H+  H88  1  0.61771147  0.22643948  1.00269409  1
  H+  H89  1  0.26421940  0.42307039  0.01989602  1
  H+  H90  1  0.38918127  0.77624137  0.32728433  1
  H+  H91  1  0.35541807  0.12755161  0.16400318  1
  H+  H92  1  0.64915532  0.77179254  0.50080345  1
  H+  H93  1  0.00347745  0.86736262  0.15607408  1
  H+  H94  1  0.35363915  0.11679449  0.80309828  1
  H+  H95  1  0.13782219  0.35342408  0.36664582  1
  H+  H96  1  0.86039165  0.97883872  0.18872884  1
  H+  H97  1  0.12421748  0.57892748  0.30179546  1
  H+  H98  1  0.94028608  0.03510547  0.26890774  1
  H+  H99  1  0.74308067  0.86789411  0.98967970  1
  H+  H100  1  0.86976707  -0.03308129  0.99178675  1
  H+  H101  1  0.47934383  0.12159663  0.50104646  1
  H+  H102  1  0.83332682  0.69941099  0.33492657  1
  H+  H103  1  0.87249205  0.74191339  0.99271347  1
  H+  H104  1  0.11857488  0.72051329  0.16680623  1
  H+  H105  1  0.72843240  0.08734260  0.83406418  1
  H+  H106  1  0.63068826  0.11220726  0.32981446  1
  H+  H107  1  0.86464621  0.87307281  0.34427364  1
  H+  H108  1  0.49917973  0.62923676  0.99012779  1
  H+  H109  1  0.11700431  0.96707373  0.82450906  1
  H+  H110  1  0.28707113  0.39628740  0.35649787  1
  H+  H111  1  0.78427248  0.41772756  0.82676906  1
  H+  H112  1  0.59565513  0.11893501  0.15879157  1
  H+  H113  1  0.11255344  -0.02055535  0.67012757  1
  H+  H114  1  0.27393405  0.37963201  0.67333895  1
  H+  H115  1  0.77737824  0.14128666  -0.00250540  1
  H+  H116  1  -0.00210775  0.06529824  0.35808884  1
  H+  H117  1  0.59233919  0.43201487  0.72570399  1
  H+  H118  1  0.13110311  0.63688387  0.15957321  1
  H+  H119  1  0.11887409  0.37805562  0.66735303  1
  H+  H120  1  0.85550721  0.59601431  0.33052441  1
  H+  H121  1  0.65729948  0.26116558  0.50758192  1
  H+  H122  1  0.58855274  0.17390385  0.73105582  1
  H+  H123  1  0.11367084  0.47443405  0.15530700  1
  H+  H124  1  0.11891728  0.84940581  0.84145685  1
  H+  H125  1  0.35897510  0.43012500  0.40441980  1
  H+  H126  1  0.38561956  0.11785809  0.32832844  1
  H+  H127  1  0.89050475  0.86418356  0.83131149  1
  H+  H128  1  0.76095637  0.11696399  0.49509496  1
  H+  H129  1  0.50220400  0.37634689  0.81733166  1
  H+  H130  1  0.73979729  0.64954703  0.13844660  1
  H+  H131  1  0.58982749  0.42548709  0.49668325  1
  H+  H132  1  0.32848426  0.16684304  0.43757077  1
  H+  H133  1  0.76886832  0.88448614  0.49422625  1
  H+  H134  1  0.38788181  0.36304349  0.50957123  1
  H+  H135  1  0.69275333  0.68722785  0.63163000  1
  H+  H136  1  0.87635626  0.86698609  0.18082707  1
  H+  H137  1  0.66584673  0.50017009  0.68490171  1
  H+  H138  1  0.62938129  0.37959397  0.83767440  1
  H+  H139  1  0.51029487  0.63793941  0.15802431  1
  H+  H140  1  0.98845367  0.63552041  0.65517436  1
  H+  H141  1  0.12329996  0.62316195  1.00685910  1
  H+  H142  1  0.37939250  0.36038724  0.65732126  1
  H+  H143  1  0.51995124  0.37830490  0.34267943  1
  H+  H144  1  0.08443686  0.59921772  0.84411664  1
  H+  H145  1  0.86534845  0.23204251  0.15971827  1
  H+  H146  1  1.02320727  0.13207441  0.50492770  1
  H+  H147  1  0.02355372  0.88377906  0.81971023  1
  H+  H148  1  0.13171530  0.10601482  0.50613596  1
  H+  H149  1  0.35202232  0.72067753  1.00488819  1
  H+  H150  1  0.86470128  0.47393161  0.15473331  1
  H+  H151  1  0.62350894  0.97699075  0.00572720  1
  H+  H152  1  0.15928984  0.07632613  0.56563900  1
  H+  H153  1  0.63921408  0.37064177  0.17288873  1
  H+  H154  1  0.94766317  0.61697825  0.35171482  1
  H+  H155  1  0.90975309  0.59840055  0.17153541  1
  H+  H156  1  0.88615705  0.34919786  0.66799339  1
  H+  H157  1  0.62885945  0.84966984  0.84066785  1
  H+  H158  1  0.13807793  0.03749025  0.32834166  1
  H+  H159  1  0.89013882  0.56718047  0.50509775  1
  H+  H160  1  0.63930104  0.76723128  0.83580112  1
  H+  H161  1  0.86308226  -0.02838650  0.82904530  1
  H+  H162  1  0.97699585  0.61302161  -0.00873043  1
  H+  H163  1  0.62464621  0.98234316  0.67767871  1
  H+  H164  1  0.63112276  0.86530048  0.17846636  1
  H+  H165  1  0.37326224  0.73208320  0.49587987  1
  H+  H166  1  0.65462928  0.61901901  0.99055565  1
  H+  H167  1  0.61036949  0.38103298  0.33697989  1
  H+  H168  1  0.36834280  0.34254718  0.01064168  1
  H+  H169  1  0.35659923  0.43721799  0.01508326  1
  H+  H170  1  0.36154497  0.64251818  0.34146686  1
  H+  H171  1  0.33644427  0.54960934  0.19508511  1
  H+  H172  1  1.02738565  0.35590277  0.50384359  1
  H+  H173  1  0.15357303  0.27409524  0.37268548  1
  H+  H174  1  0.61670760  0.98071859  0.16179851  1
  H+  H175  1  0.59242139  0.67419267  0.42998663  1
  H+  H176  1  0.72728535  0.82266536  0.66396537  1
  H+  H177  1  0.11498622  0.79980145  0.32908399  1
  H+  H178  1  -0.00857668  0.64195996  0.50672764  1
  H+  H179  1  0.21949443  0.60245617  0.32564777  1
  H+  H180  1  0.64544688  0.85844461  0.51065388  1
  H+  H181  1  0.89768377  0.77916238  0.82789719  1
  H+  H182  1  0.50118423  0.12394266  0.81096515  1
  H+  H183  1  0.46831983  0.98779486  0.38727963  1
  H+  H184  1  0.61595772  0.60393298  0.17474358  1
  H+  H185  1  0.04050934  0.19909006  0.70165468  1
  H+  H186  1  0.27737261  0.39003090  0.83171370  1
  H+  H187  1  0.86227264  0.21288001  0.67560641  1
  H+  H188  1  -0.02328771  0.34876581  0.66475631  1
  H+  H189  1  0.61586154  0.22893029  0.33514565  1
  H+  H190  1  0.13850435  0.11807406  0.17743407  1
  H+  H191  1  0.48192679  0.87681712  0.17218276  1
  H+  H192  1  0.63150437  0.01309814  0.50806017  1
  H+  H193  1  0.38800893  0.11952503  0.50395811  1
  H+  H194  1  0.33576177  0.86256114  0.84567252  1
  H+  H195  1  0.38605365  0.01860308  0.75665801  1
  H+  H196  1  0.35967742  0.20899257  0.81713904  1
  H+  H197  1  0.27414517  0.14347048  0.34403195  1
  H+  H198  1  0.60238111  0.95795859  0.83187558  1
  H+  H199  1  0.87803893  0.50406953  0.82356791  1
  H+  H200  1  0.24693366  0.86445227  0.85418639  1
  H+  H201  1  0.63964891  0.11191201  -0.01200030  1
  H+  H202  1  0.37772258  0.34340830  0.84085785  1
  H+  H203  1  0.79695945  0.64875373  0.82097554  1
  H+  H204  1  0.13982504  0.26284077  0.65754536  1
  H+  H205  1  0.40632098  1.00512512  0.34743419  1
  H+  H206  1  0.01731338  0.95413520  0.34624935  1
  H+  H207  1  0.73265067  0.36491937  0.98976898  1
  H+  H208  1  0.74256153  0.61955796  0.98434083  1
  H+  H209  1  0.58242642  0.15602307  0.85337930  1
  H+  H210  1  0.88351690  0.45011155  0.49256316  1
  H+  H211  1  0.62874774  0.88993863  1.00922845  1
  H+  H212  1  0.72533355  0.36648868  0.17403313  1
  H+  H213  1  0.07140477  0.66900683  0.33554674  1
  H+  H214  1  0.13094884  0.37598288  1.00201994  1
  H+  H215  1  0.48122724  0.62435871  0.32987447  1
  H+  H216  1  0.23221391  0.87325423  0.50773280  1
  H+  H217  1  0.51141059  0.86964703  0.82930082  1
  H+  H218  1  0.42606106  0.58553662  0.56223150  1
  H+  H219  1  0.36165192  0.14266382  0.66324298  1
  H+  H220  1  0.35203927  0.92774019  0.44198710  1
  H+  H221  1  0.97953633  0.11429882  0.99353947  1
  H+  H222  1  0.85583470  0.47430340  0.34163799  1
  H+  H223  1  0.64882218  0.37596768  0.66066888  1
  H+  H224  1  0.37551368  0.26597393  0.65551207  1
  H+  H225  1  0.37872006  -0.00237347  0.66383520  1
  H+  H226  1  0.10455808  -0.02911750  0.49176176  1
  H+  H227  1  0.14225591  0.87194343  0.50468673  1
  H+  H228  1  0.85664835  0.77455756  0.16419852  1
  H+  H229  1  0.78166437  0.37855713  0.67710004  1
  H+  H230  1  0.14296175  0.39040741  0.84409018  1
  H+  H231  1  0.17641742  0.84017770  0.60684058  1
  H+  H232  1  0.72725545  0.11281036  0.65771251  1
  H+  H233  1  0.08033423  0.39820668  0.44379116  1
  H+  H234  1  0.61010750  0.69288305  0.71691949  1
  H+  H235  1  0.01607655  0.37428376  0.34561022  1
  H+  H236  1  0.97782987  0.86991838  0.64354644  1
  H+  H237  1  0.96671200  0.09265189  0.66273888  1
  H+  H238  1  0.39351336  0.86818716  0.51186253  1
  H+  H239  1  0.72176930  0.35987640  0.32579873  1
  H+  H240  1  0.15047736  0.26900243  0.50826467  1
  H+  H241  1  0.37361073  0.74839574  0.16008932  1
  H+  H242  1  0.14554890  0.87271096  0.66293375  1
  H+  H243  1  0.85850502  0.11006426  0.82444744  1
  H+  H244  1  0.13425430  0.12266192  0.33159871  1
  H+  H245  1  0.49498662  0.87749135  0.66322993  1
  H+  H246  1  0.17852247  0.58396851  0.71590341  1
  H+  H247  1  0.78291097  0.40438157  0.49809386  1
  H+  H248  1  0.73491825  0.28105476  0.54940525  1
  H+  H249  1  0.28672756  0.38945241  0.49552535  1
  H+  H250  1  0.40863162  0.88472125  0.66461972  1
  H+  H251  1  0.37780061  0.26701877  0.51065940  1
  H+  H252  1  0.62251498  0.73213168  0.33781699  1
  H+  H253  1  0.29357946  0.90894401  0.67776930  1
  H+  H254  1  0.11521191  0.74008458  0.68233182  1
  H+  H255  1  0.00470507  0.87015028  -0.00072799  1
  H+  H256  1  0.21460566  0.85560466  0.17492934  1
  H+  H257  1  0.88000705  0.10058672  0.51182284  1
  H+  H258  1  0.88844494  0.61589866  0.15100511  1
  H+  H259  1  0.26681904  0.13122024  0.49649516  1
  H+  H260  1  0.60948868  0.12851248  0.48824503  1
  H+  H261  1  0.89196953  0.11638468  -0.01182195  1
  H+  H262  1  0.65751847  0.74820124  0.02149784  1
  H+  H263  1  0.36182365  0.88923465  0.16125880  1
  H+  H264  1  0.02016076  0.11227885  0.17251658  1
  H+  H265  1  0.23909449  0.12424189  0.17879590  1
  H+  H266  1  0.64312808  0.09240844  0.82361909  1
  H+  H267  1  0.32554434  0.90368250  -0.06442604  1
  H+  H268  1  0.75025689  0.13214427  0.34430912  1
  H+  H269  1  0.97376183  0.36263432  0.17604342  1
  H+  H270  1  0.12041563  0.74272955  0.49800748  1
  H+  H271  1  0.20565244  0.34582104  0.14750078  1
  H+  H272  1  0.37133586  0.47099959  0.82931110  1
  H+  H273  1  0.20752181  0.85524014  -0.00652104  1
  H+  H274  1  0.12789617  0.11620210  0.65890939  1
  H+  H275  1  0.48588490  0.61597957  0.50263760  1
  H+  H276  1  -0.01533178  0.10168205  0.83551040  1
  H+  H277  1  0.12937465  0.19935077  0.81011506  1
  H+  H278  1  0.09263547  0.86918920  0.15471327  1
  H+  H279  1  0.36429534  0.22997332  0.34339153  1
  H+  H280  1  0.39403247  0.53278221  0.33345945  1
  H+  H281  1  0.38152987  0.66374097  0.15917881  1
  H+  H282  1  0.12160159  0.52526700  1.00248370  1
  H+  H283  1  0.36891823  0.98308592  0.50092265  1
  H+  H284  1  0.10585052  0.48836454  0.82337541  1
  H+  H285  1  0.13352377  0.09203254  0.83496312  1
  H+  H286  1  0.36390541  0.35422460  0.97822067  1
  H+  H287  1  0.23607631  0.63021660  0.50460283  1
  H+  H288  1  0.14809379  0.35597216  0.50825399  1
  H+  H289  1  0.41525125  0.09628436  0.94017504  1
  H+  H290  1  0.42089344  0.30415982  0.88880099  1
  H+  H291  1  0.17500233  0.32420937  0.59831325  1
  H+  H292  1  0.40909640  0.87423752  0.33067802  1
  H+  H293  1  0.62394646  0.38999397  0.00277910  1
  H+  H294  1  0.08908199  0.42416712  0.76580025  1
  H+  H295  1  0.06984503  0.93016023  0.39594455  1
  H+  H296  1  0.41228667  0.08677700  0.26691878  1
  H+  H297  1  0.92802514  0.08132160  0.89719604  1
  H+  H298  1  0.13459798  0.81483340  0.90584805  1
  H+  H299  1  0.41517204  0.33080786  0.26877711  1
  H+  H300  1  0.17890543  0.32492675  0.25581652  1
  H+  H301  1  0.79841143  0.91851255  0.74204109  1
  H+  H302  1  0.56978542  0.14869358  0.09817498  1
  H+  H303  1  0.81876713  0.16225039  0.40751235  1
  H+  H304  1  0.33198810  0.67256535  0.39987188  1
  H+  H305  1  0.93002863  0.59383949  0.92629581  1
  H+  H306  1  0.07471252  0.69233515  0.40710714  1
  H+  H307  1  0.67050307  0.33910272  0.93141743  1
  H+  H308  1  0.15887711  0.35286363  0.25451896  1
  H+  H309  1  0.92240316  0.82842766  0.93188022  1
  H+  H310  1  0.82419730  0.41605359  0.39918205  1
  H+  H311  1  0.66761127  0.82690321  0.93897761  1
  H+  H312  1  0.13396735  0.62266049  0.67755116  1
  H+  H313  1  0.36623330  -0.00320376  0.82485700  1
  H+  H314  1  0.64426857  0.56930786  0.26228562  1
  H+  H315  1  0.61571405  0.51026042  0.32314149  1
  H+  H316  1  0.90780802  0.06748550  0.57296131  1
  H+  H317  1  0.17251736  0.35676277  0.94562904  1
  H+  H318  1  0.18247665  0.57185239  0.22603230  1
  H+  H319  1  0.35453762  0.77290286  0.88898476  1
  H+  H320  1  0.32066047  0.15418613  0.10376499  1
  H+  H321  1  0.07088174  0.42802011  0.06498209  1
  H+  H322  1  0.93278475  0.61444264  0.58395738  1
  H+  H323  1  0.24330719  0.61720571  0.16797766  1
  H+  H324  1  0.37206518  0.64230031  0.49250080  1
  H+  H325  1  0.05939217  0.70536454  0.83919363  1
  H+  H326  1  0.91946716  0.34681568  0.92869373  1
  H+  H327  1  0.62943688  0.29287693  0.83262271  1
  H+  H328  1  0.58607180  0.90993478  0.43948257  1
  H+  H329  1  0.42663942  0.84114889  0.57067067  1
  H+  H330  1  0.88984877  0.81028986  0.26142947  1
  H+  H331  1  0.13392081  0.58397972  0.89801675  1
  H+  H332  1  0.17529827  0.59876384  0.56188284  1
  H+  H333  1  0.11263323  0.13018537  1.00883948  1
  H+  H334  1  0.42779834  0.10140520  0.59470557  1
  H+  H335  1  0.67649170  0.33580200  0.60496285  1
  H+  H336  1  0.67579210  0.84424495  0.27064874  1
  H+  H337  1  0.62847963  0.77493329  0.18205913  1
  H+  H338  1  0.84404140  0.67355919  0.72563579  1
  H+  H339  1  0.66412643  0.33363547  0.26469041  1
  H+  H340  1  0.46492772  0.10477724  0.17105515  1
  H+  H341  1  0.84406170  0.41520726  0.73392641  1
  H+  H342  1  0.91349692  0.30506378  0.58197342  1
  H+  H343  1  0.08318857  0.91541995  0.72713973  1
  H+  H344  1  0.86912918  0.87548846  -0.00841211  1
  H+  H345  1  0.33504350  0.41068938  0.73229450  1
  H+  H346  1  0.07084211  0.15244178  0.44178813  1
  H+  H347  1  0.06490340  0.90174510  0.06207867  1
  H+  H348  1  0.37591464  0.48075471  0.49739541  1
  H+  H349  1  0.15093099  0.83116021  0.23220993  1
  H+  H350  1  0.01622989  0.40016859  0.00143833  1
  H+  H351  1  0.32908145  0.42472047  0.10703222  1
  H+  H352  1  0.48874787  0.60590828  0.83268688  1
  H+  H353  1  0.89061672  0.28218752  -0.01291714  1
  H+  H354  1  0.86731602  0.00922284  0.66422217  1
  H+  H355  1  0.58839160  0.67576650  0.10896838  1
  H+  H356  1  0.07543832  0.14487112  0.75063757  1
  H+  H357  1  0.83462442  0.17391009  0.05711139  1
  H+  H358  1  0.59162692  0.91734351  0.73472526  1
  H+  H359  1  0.32048568  0.67186829  0.06764991  1
  H+  H360  1  0.66730134  0.07806403  0.92903134  1
  H+  H361  1  0.67451927  0.78986514  0.60325666  1
  H+  H362  1  0.66074549  0.07826073  0.56526554  1
  H+  H363  1  0.66908252  0.08539668  0.23442132  1
  H+  H364  1  0.52083635  0.38174859  0.15359501  1
  H+  H365  1  0.70625526  0.62080694  0.54693895  1
  H+  H366  1  0.44998692  0.82588901  0.93753555  1
  H+  H367  1  0.58673311  0.16799441  0.42958753  1
  H+  H368  1  0.83664937  0.41684718  0.09528147  1
  H+  H369  1  0.86635022  0.39110600  0.00194679  1
  H+  H370  1  0.32694834  0.91457544  0.10296113  1
  H+  H371  1  0.42308374  0.84423299  0.23269125  1
  H+  H372  1  0.58095904  0.41470232  0.09369124  1
  H+  H373  1  0.43524663  0.59043724  0.89373566  1
  H+  H374  1  0.06135228  0.67336355  0.73726310  1
  H+  H375  1  0.63472973  0.58667656  0.63750498  1
  H+  H376  1  0.68553075  0.59519573  0.90006395  1
  H+  H377  1  0.61668587  0.44025190  0.42808703  1
  H+  H378  1  0.15847867  0.06930988  0.93709267  1
  H+  H379  1  0.90409703  0.32393118  0.27206186  1
  H+  H380  1  0.82338625  0.13636252  0.76560870  1
  H+  H381  1  0.41068256  0.58593641  0.24411190  1
  H+  H382  1  0.37360424  0.01988072  0.17631066  1
  H+  H383  1  0.17628912  0.10239475  0.24526768  1
  O2-  O384  1  0.07601847  0.14370750  0.15088779  1
  O2-  O385  1  0.08153300  0.16051241  0.48669806  1
  O2-  O386  1  0.08556329  0.14091088  0.80009789  1
  O2-  O387  1  0.07147177  0.41645865  0.13923830  1
  O2-  O388  1  0.08587502  0.39219879  0.48810606  1
  O2-  O389  1  0.08870600  0.42785064  0.81074400  1
  O2-  O390  1  0.09060244  0.65869409  0.15265825  1
  O2-  O391  1  0.08695871  0.68235240  0.48183100  1
  O2-  O392  1  0.02710806  0.64746965  0.81934517  1
  O2-  O393  1  0.06180400  0.89721132  0.13781380  1
  O2-  O394  1  0.08120044  0.91405151  0.47097273  1
  O2-  O395  1  0.08535575  0.90848478  0.80583649  1
  O2-  O396  1  0.32403715  0.15845346  0.14970122  1
  O2-  O397  1  0.32849878  0.16588184  0.48315650  1
  O2-  O398  1  0.32376772  0.15057811  0.79882707  1
  O2-  O399  1  0.32563432  0.40116491  0.14905103  1
  O2-  O400  1  0.34843278  0.41967660  0.48244753  1
  O2-  O401  1  0.33592636  0.40960695  0.81586071  1
  O2-  O402  1  0.34625296  0.68760148  0.14389596  1
  O2-  O403  1  0.34178729  0.67309670  0.47826331  1
  O2-  O404  1  0.34973995  0.66198305  0.79642438  1
  O2-  O405  1  0.32595910  0.91469437  0.14728268  1
  O2-  O406  1  0.34047982  0.92216342  0.48641439  1
  O2-  O407  1  0.31142330  0.89861202  0.85960559  1
  O2-  O408  1  0.55501346  0.13513939  0.14160131  1
  O2-  O409  1  0.58623519  0.16634229  0.47524964  1
  O2-  O410  1  0.56400099  0.16803754  0.81471730  1
  O2-  O411  1  0.58125852  0.41678443  0.13916169  1
  O2-  O412  1  0.63967936  0.45650851  0.47038105  1
  O2-  O413  1  0.56247102  0.42202758  0.80356044  1
  O2-  O414  1  0.57293734  0.66939012  0.15343357  1
  O2-  O415  1  0.59650217  0.67436569  0.47543413  1
  O2-  O416  1  0.59622386  0.65982398  0.80255176  1
  O2-  O417  1  0.58379028  0.91980381  0.14725488  1
  O2-  O418  1  0.58810144  0.90982619  0.48479062  1
  O2-  O419  1  0.57166903  0.89755786  0.81588160  1
  O2-  O420  1  0.83122443  0.17268267  0.14127959  1
  O2-  O421  1  0.82184138  0.14603164  0.47858961  1
  O2-  O422  1  0.81717442  0.12802648  0.81035766  1
  O2-  O423  1  0.83748408  0.41430856  0.14117796  1
  O2-  O424  1  0.83379326  0.45207742  0.47713998  1
  O2-  O425  1  0.84331539  0.44126025  0.81150901  1
  O2-  O426  1  0.77776480  0.70075298  0.11350952  1
  O2-  O427  1  0.85300355  0.77490910  0.47273742  1
  O2-  O428  1  0.85328423  0.67709069  0.80008633  1
  O2-  O429  1  0.83298941  0.92537264  0.16507303  1
  O2-  O430  1  0.83321084  0.92453930  0.48052766  1
  O2-  O431  1  0.82851576  0.91222621  0.81165783  1
  O2-  O432  1  0.17776869  0.09902027  0.19836391  1
  O2-  O433  1  0.16168706  0.07465078  0.52020987  1
  O2-  O434  1  0.16597797  0.06737957  0.85593460  1
  O2-  O435  1  0.14430258  0.32112547  0.13754756  1
  O2-  O436  1  0.18285631  0.32914241  0.52343787  1
  O2-  O437  1  0.17022452  0.35851737  0.86402663  1
  O2-  O438  1  0.18257648  0.57848845  0.18080325  1
  O2-  O439  1  0.17576907  0.60814942  0.51831684  1
  O2-  O440  1  0.12708645  0.58079549  0.85375587  1
  O2-  O441  1  0.15371180  0.82060768  0.18699909  1
  O2-  O442  1  0.17224394  0.84357613  0.52368745  1
  O2-  O443  1  0.13888978  0.81121841  0.86072041  1
  O2-  O444  1  0.40515651  0.08081306  0.18997098  1
  O2-  O445  1  0.42051926  0.09114795  0.51899954  1
  O2-  O446  1  0.39644353  0.04740322  0.79689350  1
  O2-  O447  1  0.41772053  0.32557812  0.18703826  1
  O2-  O448  1  0.41064625  0.32660852  0.52833199  1
  O2-  O449  1  0.41025221  0.31199325  0.84451434  1
  O2-  O450  1  0.39889179  0.57784490  0.19815399  1
  O2-  O451  1  0.42482829  0.58594952  0.51594266  1
  O2-  O452  1  0.42946406  0.57805460  0.84908247  1
  O2-  O453  1  0.42070326  0.84673235  0.18721956  1
  O2-  O454  1  0.42419997  0.83746069  0.52512987  1
  O2-  O455  1  0.38888286  0.80024378  0.85274476  1
  O2-  O456  1  0.66670225  0.08290813  0.18945795  1
  O2-  O457  1  0.66070465  0.07573283  0.51945886  1
  O2-  O458  1  0.66487011  0.06323090  0.84928931  1
  O2-  O459  1  0.66809802  0.34219729  0.19266378  1
  O2-  O460  1  0.70501442  0.30873454  0.53192589  1
  O2-  O461  1  0.66146639  0.35076954  0.85040756  1
  O2-  O462  1  0.65076500  0.57670770  0.18525007  1
  O2-  O463  1  0.71037396  0.62358043  0.50184510  1
  O2-  O464  1  0.69011341  0.59525827  0.85313797  1
  O2-  O465  1  0.66018455  0.83546740  0.19664310  1
  O2-  O466  1  0.68102464  0.83141613  0.51990123  1
  O2-  O467  1  0.66385589  0.82411139  0.85529655  1
  O2-  O468  1  0.93992137  0.06981220  0.23198562  1
  O2-  O469  1  0.91113429  0.07102359  0.52634535  1
  O2-  O470  1  0.92500322  0.07447133  0.85178494  1
  O2-  O471  1  0.91328540  0.32941209  0.19187572  1
  O2-  O472  1  0.91356713  0.29687701  0.53540951  1
  O2-  O473  1  0.91876336  0.35298221  0.85811378  1
  O2-  O474  1  1.04051093  0.59379804  0.27048498  1
  O2-  O475  1  0.93203881  0.62119238  0.52496619  1
  O2-  O476  1  0.93804878  0.60751041  0.84608211  1
  O2-  O477  1  0.89671733  0.82462275  0.18971320  1
  O2-  O478  1  0.92473087  0.79384124  0.51313110  1
  O2-  O479  1  0.92599082  0.83880072  0.84450679  1
  O2-  O480  1  0.17040983  0.09972899  0.31468951  1
  O2-  O481  1  0.15769202  0.08634794  0.64367948  1
  O2-  O482  1  0.15584194  0.06983313  0.98237664  1
  O2-  O483  1  0.18195277  0.33631833  0.37323442  1
  O2-  O484  1  0.17182815  0.32432019  0.64437545  1
  O2-  O485  1  0.16833764  0.35189124  0.99070279  1
  O2-  O486  1  0.16649786  0.55884312  0.30434627  1
  O2-  O487  1  0.16679158  0.59135841  0.67362829  1
  O2-  O488  1  0.15457998  0.59084542  0.98888438  1
  O2-  O489  1  0.14670983  0.85203636  0.30337826  1
  O2-  O490  1  0.17727113  0.84152727  0.65214331  1
  O2-  O491  1  0.14555551  0.82125615  0.98535305  1
  O2-  O492  1  0.41908920  0.09121735  0.31240865  1
  O2-  O493  1  0.42554491  0.10256527  0.64035248  1
  O2-  O494  1  0.41659549  0.08113026  0.98256186  1
  O2-  O495  1  0.41481554  0.33052271  0.31415775  1
  O2-  O496  1  0.40595288  0.32706278  0.63858122  1
  O2-  O497  1  0.45078706  0.28066682  0.95237942  1
  O2-  O498  1  0.41946572  0.59247605  0.31628275  1
  O2-  O499  1  0.42379964  0.58219368  0.63571493  1
  O2-  O500  1  0.44461400  0.61407230  0.97074401  1
  O2-  O501  1  0.42697832  0.83579560  0.31089174  1
  O2-  O502  1  0.43429712  0.85077896  0.64830023  1
  O2-  O503  1  0.43634526  0.82817885  0.98039327  1
  O2-  O504  1  0.66561992  0.08421408  0.31817163  1
  O2-  O505  1  0.66637698  0.08508418  0.64247182  1
  O2-  O506  1  0.67051076  0.08139717  0.97426143  1
  O2-  O507  1  0.66121232  0.32796438  0.31105023  1
  O2-  O508  1  0.67294915  0.33787884  0.64974185  1
  O2-  O509  1  0.67104770  0.33327484  0.97634064  1
  O2-  O510  1  0.64107899  0.57058499  0.30775128  1
  O2-  O511  1  0.69239870  0.63077754  0.62549235  1
  O2-  O512  1  0.67874270  0.58650347  0.97007370  1
  O2-  O513  1  0.68082044  0.84621980  0.31654102  1
  O2-  O514  1  0.68329037  0.76952112  0.64288981  1
  O2-  O515  1  0.67614712  0.83626927  0.98344313  1
  O2-  O516  1  0.94874472  -0.01064503  0.33085806  1
  O2-  O517  1  0.90668493  0.06527660  0.64406866  1
  O2-  O518  1  0.92227184  0.08624549  0.97360503  1
  O2-  O519  1  0.90029080  0.32107140  0.31756729  1
  O2-  O520  1  0.91535544  0.31657631  0.65154377  1
  O2-  O521  1  0.91994597  0.34415021  0.97549496  1
  O2-  O522  1  0.89846478  0.57379813  0.32724382  1
  O2-  O523  1  0.92991905  0.60741855  0.63494290  1
  O2-  O524  1  0.92000178  0.58344923  0.97121500  1
  O2-  O525  1  0.88966036  0.80583780  0.30791030  1
  O2-  O526  1  0.91884301  0.83860221  0.62659232  1
  O2-  O527  1  0.91830058  0.82570023  0.97652973  1
  O2-  O528  1  0.08325407  0.15976690  0.02770954  1
  O2-  O529  1  0.05074524  0.13203188  0.36804921  1
  O2-  O530  1  0.06188951  0.16034144  0.69113800  1
  O2-  O531  1  0.07665902  0.43467450  0.01918003  1
  O2-  O532  1  0.07487112  0.40223649  0.36243774  1
  O2-  O533  1  0.08573423  0.40574425  0.68242481  1
  O2-  O534  1  0.07856818  0.66462909  0.03078422  1
  O2-  O535  1  0.05709549  0.70071884  0.36557226  1
  O2-  O536  1  0.07795774  0.67763704  0.69373148  1
  O2-  O537  1  0.06981846  0.90405318  0.01629443  1
  O2-  O538  1  0.06512547  0.94029427  0.35138488  1
  O2-  O539  1  0.08520224  0.91774477  0.68159424  1
  O2-  O540  1  0.31956299  0.14916772  0.02818552  1
  O2-  O541  1  0.33428694  0.16929492  0.35910143  1
  O2-  O542  1  0.32754847  0.16951120  0.67791047  1
  O2-  O543  1  0.32476493  0.46074951  0.03592716  1
  O2-  O544  1  0.35142923  0.42955063  0.35916248  1
  O2-  O545  1  0.33542763  0.41069759  0.68700594  1
  O2-  O546  1  0.30802158  0.66570670  0.02315542  1
  O2-  O547  1  0.32904579  0.67148999  0.35425415  1
  O2-  O548  1  0.35190401  0.68078072  0.67371325  1
  O2-  O549  1  0.33707510  0.90934221  -0.01930066  1
  O2-  O550  1  0.40985739  0.95872686  0.37131212  1
  O2-  O551  1  0.35559122  0.94355324  0.68828327  1
  O2-  O552  1  0.58924694  0.16515583  0.01611497  1
  O2-  O553  1  0.58444248  0.16756324  0.35114211  1
  O2-  O554  1  0.58983796  0.17497487  0.68628738  1
  O2-  O555  1  0.58807883  0.41604269  0.01449145  1
  O2-  O556  1  0.58181889  0.41215689  0.35415712  1
  O2-  O557  1  0.61487158  0.44340171  0.68339602  1
  O2-  O558  1  0.64498349  0.69387744  0.04373292  1
  O2-  O559  1  0.58528376  0.67231846  0.35225969  1
  O2-  O560  1  0.58337331  0.63661630  0.73760347  1
  O2-  O561  1  0.59534984  0.91813741  0.02384928  1
  O2-  O562  1  0.59002224  0.92062768  0.35784179  1
  O2-  O563  1  0.60218244  0.92160126  0.69024885  1
  O2-  O564  1  0.83819502  0.17409058  0.01217868  1
  O2-  O565  1  0.81431607  0.16769311  0.36120583  1
  O2-  O566  1  0.82704027  0.15041796  0.68584748  1
  O2-  O567  1  0.83510984  0.42020119  0.01857050  1
  O2-  O568  1  0.82705140  0.41132454  0.35443963  1
  O2-  O569  1  0.84165593  0.40006283  0.69020367  1
  O2-  O570  1  0.83343787  0.67382862  0.00876497  1
  O2-  O571  1  0.80353388  0.63884137  0.34864956  1
  O2-  O572  1  0.84468493  0.67415227  0.67967965  1
  O2-  O573  1  0.83538353  0.90583213  0.00259401  1
  O2-  O574  1  0.86446546  0.92665910  0.35878980  1
  O2-  O575  1  0.78011526  0.92205354  0.69895552  1
