# generated using pymatgen
data_H2O
_symmetry_space_group_name_H-M   'P 1'
_cell_length_a   17.99346465
_cell_length_b   17.99277123
_cell_length_c   22.00570634
_cell_angle_alpha   89.98542841
_cell_angle_beta   90.00526481
_cell_angle_gamma   119.96459530
_symmetry_Int_Tables_number   1
_chemical_formula_structural   H2O
_chemical_formula_sum   'H384 O192'
_cell_volume   6172.10936206
_cell_formula_units_Z   192
loop_
 _symmetry_equiv_pos_site_id
 _symmetry_equiv_pos_as_xyz
  1  'x, y, z'
loop_
 _atom_type_symbol
 _atom_type_oxidation_number
  H+  1.0
  O2-  -2.0
loop_
 _atom_site_type_symbol
 _atom_site_label
 _atom_site_symmetry_multiplicity
 _atom_site_fract_x
 _atom_site_fract_y
 _atom_site_fract_z
 _atom_site_occupancy
  H+  H0  1  0.60912825  0.39375456  0.00607750  1
  H+  H1  1  0.97872031  0.86895387  0.32354014  1
  H+  H2  1  0.41136745  0.58166980  0.92199260  1
  H+  H3  1  0.62709962  0.90765027  0.82927563  1
  H+  H4  1  0.39897694  0.46230208  0.97269518  1
  H+  H5  1  0.09258567  0.39318962  0.49839941  1
  H+  H6  1  0.39712258  1.04376139  0.11850129  1
  H+  H7  1  0.99790655  0.86881210  0.66079563  1
  H+  H8  1  0.15442577  0.95181986  0.84462028  1
  H+  H9  1  0.86159238  0.72194276  0.01350900  1
  H+  H10  1  0.12398123  0.00475876  0.16893460  1
  H+  H11  1  0.20537031  0.82943600  0.13773958  1
  H+  H12  1  0.62912903  0.27903379  0.17182105  1
  H+  H13  1  0.98044576  0.61289224  1.00882540  1
  H+  H14  1  0.89464348  0.03792083  0.82816237  1
  H+  H15  1  0.78519918  0.11433806  0.50200945  1
  H+  H16  1  0.39538685  0.34204256  0.18250594  1
  H+  H17  1  0.97162528  0.10929248  0.66386724  1
  H+  H18  1  -0.01376833  0.42864101  0.05098663  1
  H+  H19  1  0.85200286  0.37312056  0.81464913  1
  H+  H20  1  0.68148732  0.09304005  0.51203427  1
  H+  H21  1  0.11290851  0.12846132  0.15916890  1
  H+  H22  1  0.86514856  0.97900123  0.49399426  1
  H+  H23  1  0.38991411  0.88798168  0.98734848  1
  H+  H24  1  0.32893630  0.68528356  -0.00043154  1
  H+  H25  1  0.86007307  0.88663855  0.16062875  1
  H+  H26  1  0.60030811  0.37696050  0.34857946  1
  H+  H27  1  0.15727470  0.31891757  0.52436247  1
  H+  H28  1  0.98829097  0.10015974  0.50523536  1
  H+  H29  1  0.96068866  0.33861706  0.32574309  1
  H+  H30  1  0.59079420  0.08772701  0.51269530  1
  H+  H31  1  0.77018892  0.12105061  0.34768284  1
  H+  H32  1  0.08895353  0.68713794  0.13531033  1
  H+  H33  1  0.33555715  0.39468827  0.10978449  1
  H+  H34  1  0.73047802  0.86137704  0.65627745  1
  H+  H35  1  0.61371287  0.47551054  0.51128125  1
  H+  H36  1  0.40115971  0.52852355  0.50337960  1
  H+  H37  1  0.79518957  0.15107390  0.52355103  1
  H+  H38  1  0.37667342  0.52166430  0.82604297  1
  H+  H39  1  0.70334766  0.11679822  0.14754789  1
  H+  H40  1  0.84070274  0.88411051  0.82750102  1
  H+  H41  1  0.35406557  0.09969113  0.49764669  1
  H+  H42  1  0.61489020  0.64095986  0.84886184  1
  H+  H43  1  0.08041272  0.82196691  0.85635175  1
  H+  H44  1  0.64975340  0.03138244  0.85153439  1
  H+  H45  1  0.17208569  0.94521394  0.81527519  1
  H+  H46  1  0.60475589  0.62788360  0.50681829  1
  H+  H47  1  0.12866433  0.19788139  0.47065662  1
  H+  H48  1  0.12224473  -0.00134947  0.50176094  1
  H+  H49  1  0.89113486  0.51821271  0.65404035  1
  H+  H50  1  0.53974282  0.90603386  0.82677675  1
  H+  H51  1  0.92043110  0.12886195  0.49965588  1
  H+  H52  1  0.34956444  0.64197398  0.82771224  1
  H+  H53  1  0.46991840  0.85293583  0.49739455  1
  H+  H54  1  0.98396471  0.60218832  0.30517828  1
  H+  H55  1  0.87834575  0.37251736  0.49807731  1
  H+  H56  1  0.10526240  0.86942323  0.49281717  1
  H+  H57  1  0.79030648  0.44512754  0.48139220  1
  H+  H58  1  0.10163671  0.12657639  0.66919223  1
  H+  H59  1  0.27439682  0.36920449  0.16702256  1
  H+  H60  1  0.64236190  0.77209027  0.17562739  1
  H+  H61  1  0.72397218  0.60384671  0.83891935  1
  H+  H62  1  0.87096310  0.33495334  0.32044895  1
  H+  H63  1  0.34938041  0.60999852  0.00098329  1
  H+  H64  1  0.63487395  0.37572943  0.17754028  1
  H+  H65  1  0.87512864  0.09703205  0.32595438  1
  H+  H66  1  0.91987628  0.08374151  0.60064706  1
  H+  H67  1  0.37390861  0.15222056  0.68046093  1
  H+  H68  1  0.58457407  0.48314453  0.64420111  1
  H+  H69  1  0.28398213  0.14756254  -0.00486105  1
  H+  H70  1  0.97152561  0.67812426  0.88286020  1
  H+  H71  1  0.39349953  0.61805413  0.50168512  1
  H+  H72  1  0.08030251  0.44673567  0.33261268  1
  H+  H73  1  0.76903327  0.88020933  0.34329721  1
  H+  H74  1  0.35032389  0.21319678  0.34427051  1
  H+  H75  1  0.59775993  0.15330816  0.14765314  1
  H+  H76  1  0.85408177  0.88385880  0.01106992  1
  H+  H77  1  0.21061157  0.16446769  0.83450963  1
  H+  H78  1  0.89497755  0.02110336  1.00493465  1
  H+  H79  1  0.13552069  0.52200159  0.50664237  1
  H+  H80  1  0.66371806  0.58171526  0.27313424  1
  H+  H81  1  0.58100803  0.41501543  0.40903224  1
  H+  H82  1  0.52009775  0.64316404  1.00570597  1
  H+  H83  1  0.79615561  0.50122500  0.34372246  1
  H+  H84  1  0.63964461  0.78585193  0.85232739  1
  H+  H85  1  0.51937000  0.17373968  0.15918768  1
  H+  H86  1  0.89238857  0.32603735  0.88847723  1
  H+  H87  1  0.61873095  0.27559188  0.98593433  1
  H+  H88  1  0.53255892  0.62850070  0.34616104  1
  H+  H89  1  0.12553342  0.34515807  0.32934854  1
  H+  H90  1  0.11139827  0.10313123  0.48199594  1
  H+  H91  1  0.52718758  0.38824912  0.50941583  1
  H+  H92  1  0.34571465  0.84534512  0.14160381  1
  H+  H93  1  0.30595524  0.39798963  0.49537896  1
  H+  H94  1  0.83333485  0.45180481  0.30611773  1
  H+  H95  1  0.02676915  0.13392062  0.15534604  1
  H+  H96  1  0.59635152  0.73848740  0.01272199  1
  H+  H97  1  0.71045887  0.35929634  0.98801731  1
  H+  H98  1  0.71749035  0.36038792  0.83003109  1
  H+  H99  1  0.36205851  0.46550534  0.33465427  1
  H+  H100  1  0.60547210  0.38859502  0.81360461  1
  H+  H101  1  0.87100034  0.85544863  0.65581686  1
  H+  H102  1  0.18422848  0.55486466  0.31233186  1
  H+  H103  1  0.10805620  0.61991509  0.82841841  1
  H+  H104  1  0.43844079  0.22770993  0.20535392  1
  H+  H105  1  0.46790862  0.84943302  0.14856295  1
  H+  H106  1  0.60697158  0.87701619  0.49183890  1
  H+  H107  1  0.90923646  0.66600288  0.33079749  1
  H+  H108  1  0.87553178  0.34898298  0.99055461  1
  H+  H109  1  0.84899478  0.22457871  0.16034871  1
  H+  H110  1  0.21640173  0.34855489  0.33054609  1
  H+  H111  1  0.07741049  0.65498617  0.74187764  1
  H+  H112  1  0.57628395  0.97050584  0.10939068  1
  H+  H113  1  0.17124642  0.01373108  -0.00642549  1
  H+  H114  1  0.59394658  0.95945595  0.49401385  1
  H+  H115  1  0.23072973  0.86242305  0.50883201  1
  H+  H116  1  0.58077420  0.66841383  0.09971893  1
  H+  H117  1  0.31987362  0.41615924  0.76662292  1
  H+  H118  1  0.10061443  0.87417253  0.14177949  1
  H+  H119  1  0.25330422  0.69999889  0.37278145  1
  H+  H120  1  0.64078786  0.53206834  0.17338299  1
  H+  H121  1  0.35422144  0.97176520  0.49202105  1
  H+  H122  1  0.06096322  0.41424414  0.08689664  1
  H+  H123  1  0.63120395  0.51816798  0.33013299  1
  H+  H124  1  0.63617046  0.85305785  0.33147910  1
  H+  H125  1  0.46916975  0.11334206  0.64503980  1
  H+  H126  1  0.62152822  -0.02929458  0.66893965  1
  H+  H127  1  0.89975918  0.48485248  0.03912740  1
  H+  H128  1  0.47098910  0.35428026  0.34032980  1
  H+  H129  1  0.35637826  0.39235771  0.82516157  1
  H+  H130  1  0.83292051  0.12891728  0.16786414  1
  H+  H131  1  0.32421079  0.10967756  0.83073311  1
  H+  H132  1  0.23872860  0.10525763  0.15604995  1
  H+  H133  1  0.36176765  0.72278607  0.50141223  1
  H+  H134  1  0.23525087  0.61149442  0.51178757  1
  H+  H135  1  0.62561656  0.35980570  0.50503209  1
  H+  H136  1  0.50952886  0.14144223  0.99985049  1
  H+  H137  1  0.78273383  0.13683474  0.01114009  1
  H+  H138  1  0.97007190  0.85666620  0.16703646  1
  H+  H139  1  0.58101926  0.43016294  0.75774851  1
  H+  H140  1  0.07132581  0.64113959  -0.04428053  1
  H+  H141  1  0.85922428  0.64174251  0.83028812  1
  H+  H142  1  0.38144414  0.35250269  0.33202054  1
  H+  H143  1  0.97071693  0.85844284  0.50539329  1
  H+  H144  1  0.62343607  0.26308958  0.33061485  1
  H+  H145  1  0.63130263  0.51629897  0.84028374  1
  H+  H146  1  0.11593808  0.01365513  0.65004804  1
  H+  H147  1  0.12564168  0.35608045  0.84498092  1
  H+  H148  1  1.00379902  0.12234009  1.00710100  1
  H+  H149  1  0.33525106  0.88822246  0.04357721  1
  H+  H150  1  0.76588753  0.90245421  0.82526028  1
  H+  H151  1  0.61324193  0.41152319  0.65974818  1
  H+  H152  1  0.36003196  0.70798253  0.15726144  1
  H+  H153  1  0.22075899  0.80299106  0.83067835  1
  H+  H154  1  0.59610877  0.71138855  0.65609957  1
  H+  H155  1  0.85009616  0.46110823  0.80750453  1
  H+  H156  1  0.86479518  0.63305910  0.02216742  1
  H+  H157  1  0.63065725  0.87704908  0.65931081  1
  H+  H158  1  0.71769607  0.10358088  0.65999627  1
  H+  H159  1  0.22215209  0.61366509  0.85055420  1
  H+  H160  1  0.87372418  0.25788207  0.65207665  1
  H+  H161  1  0.85618399  0.73438406  0.16460318  1
  H+  H162  1  0.85487871  0.71911881  0.67321202  1
  H+  H163  1  0.21491782  0.08789039  0.49434136  1
  H+  H164  1  0.40359736  0.90001298  0.82831871  1
  H+  H165  1  0.53834003  0.88036066  0.98099692  1
  H+  H166  1  0.05799135  0.26023404  0.52847097  1
  H+  H167  1  0.52899794  0.64434627  0.84045687  1
  H+  H168  1  0.41783187  0.03597161  0.14577510  1
  H+  H169  1  0.37372497  0.90296440  0.33033903  1
  H+  H170  1  0.68732044  0.59950020  0.57261325  1
  H+  H171  1  0.35550950  0.39764208  0.67460448  1
  H+  H172  1  0.23307761  0.82150398  0.86237457  1
  H+  H173  1  0.64014898  0.76554366  0.33641588  1
  H+  H174  1  0.36327336  0.64136531  0.68792126  1
  H+  H175  1  0.32716733  0.08842519  0.00122539  1
  H+  H176  1  0.98470637  0.90636689  0.82029507  1
  H+  H177  1  0.34939433  0.14187984  0.15603714  1
  H+  H178  1  0.38767224  0.50847994  0.17319260  1
  H+  H179  1  0.13378808  0.75101599  -0.00591871  1
  H+  H180  1  0.38198008  0.59530774  0.17248268  1
  H+  H181  1  0.96892199  0.09618157  0.32418075  1
  H+  H182  1  0.38773487  1.03325668  0.31667832  1
  H+  H183  1  0.64629111  0.26957675  0.64611013  1
  H+  H184  1  0.12718207  0.63013168  0.34956137  1
  H+  H185  1  0.40344895  0.28148191  0.53062379  1
  H+  H186  1  0.49662682  0.62463473  0.50058380  1
  H+  H187  1  0.88227191  0.73678354  0.33774496  1
  H+  H188  1  0.33988439  0.92949305  0.13471700  1
  H+  H189  1  0.62140708  0.62983325  0.34776216  1
  H+  H190  1  0.85930573  0.97681634  0.67027201  1
  H+  H191  1  0.91384816  0.63300605  0.50447419  1
  H+  H192  1  0.11740768  0.37646480  0.16132940  1
  H+  H193  1  0.11439207  0.46537236  0.16687545  1
  H+  H194  1  0.12040704  0.35748979  0.68409003  1
  H+  H195  1  0.91688499  0.25503849  0.47473038  1
  H+  H196  1  0.37744766  0.73877271  0.65772789  1
  H+  H197  1  0.42187136  0.34430402  0.58693281  1
  H+  H198  1  0.14497057  0.62083857  0.51412424  1
  H+  H199  1  0.48338669  0.11544108  0.49554103  1
  H+  H200  1  0.79805060  0.63567968  0.47626053  1
  H+  H201  1  0.51346376  0.13416353  0.34083197  1
  H+  H202  1  0.39200581  0.77813828  0.84299950  1
  H+  H203  1  0.22214786  0.10355645  0.32241979  1
  H+  H204  1  0.10924537  0.87966426  0.34447721  1
  H+  H205  1  0.12696560  0.59377214  0.16121514  1
  H+  H206  1  0.42011765  0.87328885  0.65332850  1
  H+  H207  1  0.72792558  0.86360323  0.50186631  1
  H+  H208  1  0.65107886  0.13313710  1.00100084  1
  H+  H209  1  0.87641441  0.42175501  0.09626212  1
  H+  H210  1  0.87743036  0.27242176  0.82696813  1
  H+  H211  1  0.95902244  0.59837940  0.85052066  1
  H+  H212  1  0.38250483  0.85856225  0.50099003  1
  H+  H213  1  0.32504125  0.64190311  0.10217042  1
  H+  H214  1  0.40410029  0.60501009  0.32011619  1
  H+  H215  1  0.31865251  0.19226606  0.47868906  1
  H+  H216  1  0.41890988  0.60068191  0.78336526  1
  H+  H217  1  0.30793185  0.68178659  0.77664535  1
  H+  H218  1  0.30636036  0.66280483  0.34012028  1
  H+  H219  1  0.77909340  0.13949326  0.82716722  1
  H+  H220  1  0.43160370  0.36985878  0.92149894  1
  H+  H221  1  0.04220853  0.64226922  0.50247650  1
  H+  H222  1  0.86242432  0.88802458  0.49283951  1
  H+  H223  1  0.83768351  0.75028159  0.84612037  1
  H+  H224  1  0.46807698  0.36145624  0.82795232  1
  H+  H225  1  0.10384588  0.47275459  0.83368348  1
  H+  H226  1  0.08795291  0.47978646  0.02202080  1
  H+  H227  1  0.68989418  0.32389216  0.48582081  1
  H+  H228  1  0.88333338  0.77243045  0.50034122  1
  H+  H229  1  -0.08807002  0.54448477  0.50145816  1
  H+  H230  1  0.08700423  0.69740415  0.83020414  1
  H+  H231  1  0.70546662  0.36086572  0.32809895  1
  H+  H232  1  0.85854141  0.36967726  0.66032280  1
  H+  H233  1  0.61222914  0.96959505  0.34207327  1
  H+  H234  1  0.46511946  0.62346116  0.68437988  1
  H+  H235  1  0.96873664  0.85123749  0.99233184  1
  H+  H236  1  0.90923727  0.10081230  0.11906213  1
  H+  H237  1  0.53345814  0.87668532  0.65720495  1
  H+  H238  1  0.31727324  0.87237274  0.68542281  1
  H+  H239  1  0.85225901  0.12752312  0.66873668  1
  H+  H240  1  0.11104760  0.22296521  1.00235262  1
  H+  H241  1  0.65187801  0.11979024  0.86594208  1
  H+  H242  1  0.19610750  0.85805673  0.67367968  1
  H+  H243  1  0.87288884  1.00017265  0.33222942  1
  H+  H244  1  0.37067344  0.53617421  0.69242348  1
  H+  H245  1  0.28161566  0.89521155  0.33723792  1
  H+  H246  1  0.10363039  0.72446785  0.68070996  1
  H+  H247  1  0.60894741  0.22925989  0.84240785  1
  H+  H248  1  0.92873652  0.58757674  0.59997999  1
  H+  H249  1  0.15453115  0.77131211  0.34809880  1
  H+  H250  1  0.64017760  0.77204241  0.50468998  1
  H+  H251  1  0.01483814  0.62698484  0.67642411  1
  H+  H252  1  0.13317107  0.73114811  0.50586567  1
  H+  H253  1  0.74908972  0.36344573  0.65014139  1
  H+  H254  1  0.52319472  0.63171830  0.15974910  1
  H+  H255  1  0.10386070  0.21569120  0.68530566  1
  H+  H256  1  0.01104947  0.38606084  0.83241390  1
  H+  H257  1  0.88447225  1.02104213  0.15977909  1
  H+  H258  1  0.09872674  0.20688665  0.33238401  1
  H+  H259  1  0.39276604  1.02829796  0.84039058  1
  H+  H260  1  0.56839771  0.18482182  0.05800020  1
  H+  H261  1  0.76932699  0.88406798  0.16455039  1
  H+  H262  1  0.14013627  0.26561295  0.17324533  1
  H+  H263  1  0.38947857  0.28590219  0.67344139  1
  H+  H264  1  0.61275317  0.13318027  0.66424598  1
  H+  H265  1  0.09335301  0.46586019  0.68491709  1
  H+  H266  1  0.88838555  0.86686660  0.32430096  1
  H+  H267  1  0.66199875  0.34385439  0.89147101  1
  H+  H268  1  0.63440792  0.61922630  0.17054003  1
  H+  H269  1  0.64401176  0.52137529  -0.00471504  1
  H+  H270  1  0.57560240  0.20156504  0.49976033  1
  H+  H271  1  0.78218568  0.77842224  0.88456747  1
  H+  H272  1  0.10912642  0.86760428  1.00275478  1
  H+  H273  1  0.16581924  0.32279054  0.23379747  1
  H+  H274  1  1.01406266  0.40733591  0.49132841  1
  H+  H275  1  0.20639969  0.57873419  1.00536891  1
  H+  H276  1  0.75495566  0.63907326  0.16566395  1
  H+  H277  1  0.39084486  0.33517403  0.98574426  1
  H+  H278  1  0.07769456  1.06130753  0.80918872  1
  H+  H279  1  0.38734209  0.79531866  0.32056358  1
  H+  H280  1  0.74116704  0.61250253  -0.00661198  1
  H+  H281  1  0.46538671  0.12294457  0.85273718  1
  H+  H282  1  0.52925594  0.41039675  0.00488390  1
  H+  H283  1  0.56442984  0.61221681  0.63681080  1
  H+  H284  1  0.12653850  0.60067414  0.99911541  1
  H+  H285  1  0.11293122  0.97031953  0.33920737  1
  H+  H286  1  0.21292276  0.35377627  0.99037241  1
  H+  H287  1  0.39193094  0.39747709  0.50160134  1
  H+  H288  1  0.90771461  0.57514863  0.95943771  1
  H+  H289  1  0.06553840  0.40315089  0.39752065  1
  H+  H290  1  0.37927899  0.11603648  0.32809718  1
  H+  H291  1  0.13695080  0.32554321  0.62265975  1
  H+  H292  1  0.83492407  0.44827982  0.41937502  1
  H+  H293  1  0.08815610  0.16507092  0.06472826  1
  H+  H294  1  0.07242740  0.91435213  0.08986788  1
  H+  H295  1  0.42193811  0.13920000  0.23750039  1
  H+  H296  1  0.57568114  0.90392608  0.39687439  1
  H+  H297  1  0.09655782  0.13999927  0.76909979  1
  H+  H298  1  0.16948944  0.83381132  0.56910378  1
  H+  H299  1  0.10503750  0.84774521  0.66316470  1
  H+  H300  1  0.67702928  0.33249498  0.58580267  1
  H+  H301  1  0.43048814  0.33194338  0.24662206  1
  H+  H302  1  0.14100185  0.79774532  0.19232943  1
  H+  H303  1  0.07476791  0.89990867  0.43316076  1
  H+  H304  1  0.38820256  0.02346313  0.65750419  1
  H+  H305  1  0.83255821  0.91599466  0.40218852  1
  H+  H306  1  0.89556545  0.11326773  1.00335165  1
  H+  H307  1  0.62657204  0.11032677  0.34290102  1
  H+  H308  1  0.15232194  0.81139302  0.28623863  1
  H+  H309  1  0.33256533  0.16950507  0.73868732  1
  H+  H310  1  0.89764919  0.82395914  0.59489499  1
  H+  H311  1  0.33355159  0.91638044  0.43141833  1
  H+  H312  1  0.21447831  0.35855772  0.84298068  1
  H+  H313  1  0.26260499  0.39152081  0.67703999  1
  H+  H314  1  0.42550763  0.57038621  0.26070382  1
  H+  H315  1  0.48276789  0.87128947  0.31624419  1
  H+  H316  1  0.85713475  0.20660529  0.33027861  1
  H+  H317  1  0.32730174  0.66904789  0.44173920  1
  H+  H318  1  0.82476548  0.40056664  0.71950479  1
  H+  H319  1  0.87118941  0.14734725  0.81574918  1
  H+  H320  1  0.82754152  0.91598687  0.07009488  1
  H+  H321  1  0.91677011  0.83412942  0.23036715  1
  H+  H322  1  0.86458842  0.63607105  0.67611251  1
  H+  H323  1  0.82232248  0.15951273  0.72740323  1
  H+  H324  1  0.97238267  0.34600334  0.17003391  1
  H+  H325  1  0.38344897  0.93017956  0.73450886  1
  H+  H326  1  0.58028430  0.89853917  0.07218408  1
  H+  H327  1  0.67745393  0.57571021  0.92623933  1
  H+  H328  1  0.89325403  0.81694550  0.94200588  1
  H+  H329  1  0.33959384  0.41460085  0.39694614  1
  H+  H330  1  0.14759114  0.07202195  0.59166179  1
  H+  H331  1  0.44634327  0.80058596  0.99509516  1
  H+  H332  1  0.56216406  0.15516756  0.40499409  1
  H+  H333  1  0.86727769  0.67720219  0.42238447  1
  H+  H334  1  0.39907251  0.07433916  0.93295462  1
  H+  H335  1  0.71293410  0.87860679  1.00171024  1
  H+  H336  1  0.58610237  0.65571182  0.43865521  1
  H+  H337  1  0.65262569  0.33042856  0.24058970  1
  H+  H338  1  0.67405324  0.82602625  0.23674550  1
  H+  H339  1  0.84139341  0.16876022  0.06856611  1
  H+  H340  1  0.06113511  0.40969270  0.74548769  1
  H+  H341  1  0.44401921  0.84254668  0.89861288  1
  H+  H342  1  0.82869184  0.66369918  0.76575722  1
  H+  H343  1  0.12704619  0.67008812  0.41663029  1
  H+  H344  1  0.82289280  0.66843839  0.10327131  1
  H+  H345  1  0.10941393  0.79198192  0.91519928  1
  H+  H346  1  0.93380962  0.60126281  0.24834146  1
  H+  H347  1  0.66695186  0.85501986  0.90512625  1
  H+  H348  1  0.29453655  0.12115611  0.08749495  1
  H+  H349  1  0.67291260  0.83347454  0.59392187  1
  H+  H350  1  0.57998574  0.14273232  0.80520749  1
  H+  H351  1  0.62154361  0.05050364  0.18447686  1
  H+  H352  1  0.42194700  0.83034705  0.21502288  1
  H+  H353  1  0.31689910  0.89859419  0.81596005  1
  H+  H354  1  0.53075652  0.39158359  0.16848679  1
  H+  H355  1  0.90719373  0.32168543  0.22378770  1
  H+  H356  1  0.13347469  0.55733726  0.25645191  1
  H+  H357  1  0.07364667  0.62728790  0.08078085  1
  H+  H358  1  0.90501086  0.33628188  0.55677736  1
  H+  H359  1  0.57697153  0.17710514  0.71023778  1
  H+  H360  1  0.13005277  0.09903438  0.31740384  1
  H+  H361  1  0.22241847  0.84360211  0.98193593  1
  H+  H362  1  0.38741991  0.07447299  0.56104592  1
  H+  H363  1  0.15462770  0.32055232  0.93128967  1
  H+  H364  1  0.58609295  0.42267341  0.10578163  1
  H+  H365  1  0.89581641  0.19005037  0.42081768  1
  H+  H366  1  0.16060056  0.06532190  0.23056019  1
  H+  H367  1  0.07149361  0.14004581  0.38802163  1
  H+  H368  1  -0.04123564  0.94521536  0.76742636  1
  H+  H369  1  0.67978487  0.09013710  0.95083490  1
  H+  H370  1  0.15707244  0.57152640  0.90764781  1
  H+  H371  1  0.98806923  0.11867824  0.83111099  1
  H+  H372  1  0.38199336  0.00984539  0.98815510  1
  H+  H373  1  0.43197012  0.83721632  0.58838352  1
  H+  H374  1  0.64718226  0.06756537  0.60471850  1
  H+  H375  1  0.87397867  0.26071530  0.98306461  1
  H+  H376  1  0.66282784  0.08972213  0.28460266  1
  H+  H377  1  0.37111066  0.28208589  0.84378801  1
  H+  H378  1  0.82328298  0.91721050  0.73028263  1
  H+  H379  1  0.05112038  0.90928123  0.72048336  1
  H+  H380  1  0.96151121  0.34842432  0.65892060  1
  H+  H381  1  0.31162161  0.14252781  0.40044383  1
  H+  H382  1  0.47298593  0.37839689  0.66840348  1
  H+  H383  1  0.21967726  0.59983710  0.17322297  1
  O2-  O384  1  0.08915748  0.16446878  0.14409498  1
  O2-  O385  1  0.08418806  0.13867483  0.46353279  1
  O2-  O386  1  0.10169045  0.12373919  0.81161000  1
  O2-  O387  1  0.08336640  0.40490400  0.15076190  1
  O2-  O388  1  0.07612327  0.43260108  0.47850892  1
  O2-  O389  1  0.07120972  0.41345145  0.81660895  1
  O2-  O390  1  0.07117027  0.62714663  0.12543359  1
  O2-  O391  1  0.10527838  0.66876387  0.49187442  1
  O2-  O392  1  0.07274585  0.64317922  0.80864540  1
  O2-  O393  1  0.07291498  0.90976939  0.13518222  1
  O2-  O394  1  0.07146015  0.89605408  0.47865313  1
  O2-  O395  1  0.00726025  0.94136428  0.78376628  1
  O2-  O396  1  0.29870788  0.13856863  0.13232526  1
  O2-  O397  1  0.30275621  0.13384271  0.46768102  1
  O2-  O398  1  0.28027156  0.11752951  0.80842076  1
  O2-  O399  1  0.33664530  0.39716209  0.15410124  1
  O2-  O400  1  0.36518407  0.42904909  0.48116939  1
  O2-  O401  1  0.32220006  0.41915819  0.81209813  1
  O2-  O402  1  0.32670547  0.64513256  0.14729687  1
  O2-  O403  1  0.33238481  0.66104499  0.48624702  1
  O2-  O404  1  0.31959871  0.67541681  0.82418755  1
  O2-  O405  1  0.31083234  0.86922609  0.12185263  1
  O2-  O406  1  0.33009893  0.91098445  0.47664351  1
  O2-  O407  1  0.37849400  0.93488257  0.80783795  1
  O2-  O408  1  0.57690189  0.19528778  0.14004516  1
  O2-  O409  1  0.54723426  0.14245246  0.48384560  1
  O2-  O410  1  0.57636705  0.16453506  0.84492764  1
  O2-  O411  1  0.59082587  0.42394716  0.15100705  1
  O2-  O412  1  0.58654396  0.41769059  0.49153664  1
  O2-  O413  1  0.57598597  0.42115238  0.80266175  1
  O2-  O414  1  0.58365197  0.66337189  0.14540694  1
  O2-  O415  1  0.58043100  0.66012108  0.48465627  1
  O2-  O416  1  0.59198616  0.67996508  0.84317273  1
  O2-  O417  1  0.55434418  0.90855504  0.10977327  1
  O2-  O418  1  0.57173767  0.90152241  0.47545760  1
  O2-  O419  1  0.60104766  0.94252779  0.81627973  1
  O2-  O420  1  0.81014761  0.16196990  0.14737060  1
  O2-  O421  1  0.93382584  0.21558730  0.45647276  1
  O2-  O422  1  0.83343315  0.17139018  0.80289669  1
  O2-  O423  1  0.86628891  0.44718806  0.24187248  1
  O2-  O424  1  0.84069264  0.44524676  0.46477500  1
  O2-  O425  1  0.81952206  0.40130752  0.79437571  1
  O2-  O426  1  0.81993788  0.67165408  0.14934940  1
  O2-  O427  1  0.85946968  0.67305420  0.46989011  1
  O2-  O428  1  0.82254234  0.66279143  0.81204726  1
  O2-  O429  1  0.83005748  0.91709977  0.14644602  1
  O2-  O430  1  0.83233538  0.91898865  0.47785891  1
  O2-  O431  1  0.82462006  0.92310843  0.80695318  1
  O2-  O432  1  0.15805374  0.06568020  0.18435908  1
  O2-  O433  1  0.15268306  0.06107021  0.51237867  1
  O2-  O434  1  0.26949027  0.17762744  0.84824635  1
  O2-  O435  1  0.17159043  0.32631718  0.18860560  1
  O2-  O436  1  0.10552715  0.31682308  0.53995069  1
  O2-  O437  1  0.15569229  0.32636879  0.85984189  1
  O2-  O438  1  0.15775590  0.56857818  0.18518429  1
  O2-  O439  1  0.17237532  0.58250891  0.52557613  1
  O2-  O440  1  0.15934675  0.57737875  0.86272267  1
  O2-  O441  1  0.14349607  0.80725843  0.14873576  1
  O2-  O442  1  0.16986184  0.82893113  0.52426647  1
  O2-  O443  1  0.07220592  0.77068594  0.87744434  1
  O2-  O444  1  0.43062042  0.16976900  0.19732041  1
  O2-  O445  1  0.38826210  0.07152424  0.51584439  1
  O2-  O446  1  0.40271686  0.08354380  0.85851295  1
  O2-  O447  1  0.43687237  0.32775657  0.20125015  1
  O2-  O448  1  0.42861147  0.34239940  0.53978392  1
  O2-  O449  1  0.41361004  0.34343746  0.85069626  1
  O2-  O450  1  0.41636523  0.56905177  0.18766804  1
  O2-  O451  1  0.42879125  0.59123769  0.51528083  1
  O2-  O452  1  0.41134105  0.58675297  0.82752593  1
  O2-  O453  1  0.41116815  0.81592743  0.17114022  1
  O2-  O454  1  0.41078402  0.82579662  0.51594711  1
  O2-  O455  1  0.43172947  0.84019003  0.85386589  1
  O2-  O456  1  0.63874576  0.08876403  0.14955813  1
  O2-  O457  1  0.62299988  0.05852907  0.52813386  1
  O2-  O458  1  0.68582858  0.09106163  0.87036979  1
  O2-  O459  1  0.65887903  0.33810502  0.19424424  1
  O2-  O460  1  0.64903145  0.31961106  0.51675218  1
  O2-  O461  1  0.65814139  0.33597213  0.84643347  1
  O2-  O462  1  0.66939126  0.59290099  0.18734839  1
  O2-  O463  1  0.63386955  0.56848428  0.54947279  1
  O2-  O464  1  0.66725408  0.57335905  0.86099963  1
  O2-  O465  1  0.67671574  0.83101302  0.19201043  1
  O2-  O466  1  0.66749609  0.83291818  0.51798729  1
  O2-  O467  1  0.67207514  0.84927409  0.86048987  1
  O2-  O468  1  0.91634001  0.08615522  0.16054854  1
  O2-  O469  1  0.93031558  0.08503731  0.52059306  1
  O2-  O470  1  0.92691621  0.10021097  0.83594473  1
  O2-  O471  1  0.91047414  0.32073635  0.17905262  1
  O2-  O472  1  0.91267616  0.34682206  0.51213842  1
  O2-  O473  1  0.90113140  0.33292460  0.84281033  1
  O2-  O474  1  0.86752016  0.50392149  0.20429342  1
  O2-  O475  1  0.94181374  0.60103554  0.52240330  1
  O2-  O476  1  0.92600311  0.61730030  0.87548504  1
  O2-  O477  1  0.91098258  0.82800357  0.18469871  1
  O2-  O478  1  0.90878738  0.83139351  0.51768647  1
  O2-  O479  1  0.84114669  0.79958038  0.87084010  1
  O2-  O480  1  0.16212227  0.06981729  0.30449118  1
  O2-  O481  1  0.14281989  0.07376634  0.63658497  1
  O2-  O482  1  0.11619968  -0.02540434  0.97292570  1
  O2-  O483  1  0.15685622  0.31625258  0.31420171  1
  O2-  O484  1  0.15147376  0.32984611  0.66608765  1
  O2-  O485  1  0.15368503  0.31681553  0.97779137  1
  O2-  O486  1  0.12878703  0.54931678  0.30254513  1
  O2-  O487  1  0.28412427  0.69571360  0.71802970  1
  O2-  O488  1  0.14645324  0.55559779  0.99069504  1
  O2-  O489  1  0.16702061  0.82685100  0.32865006  1
  O2-  O490  1  0.14222263  0.82005339  0.65296517  1
  O2-  O491  1  0.15918796  0.81513784  0.98160559  1
  O2-  O492  1  0.41673686  0.09591979  0.30723909  1
  O2-  O493  1  0.40640176  0.08063060  0.63962713  1
  O2-  O494  1  0.39999275  0.07126584  0.97883409  1
  O2-  O495  1  0.41313830  0.32223990  0.32049782  1
  O2-  O496  1  0.41165193  0.34513887  0.65492520  1
  O2-  O497  1  0.43703179  0.38611838  0.96630514  1
  O2-  O498  1  0.42784620  0.56942966  0.30704852  1
  O2-  O499  1  0.40310563  0.59915390  0.70211611  1
  O2-  O500  1  0.41236424  0.57775615  0.96684851  1
  O2-  O501  1  0.42400480  0.84919707  0.29847675  1
  O2-  O502  1  0.44212866  0.83756500  0.63374045  1
  O2-  O503  1  0.46973436  0.85396787  0.97228042  1
  O2-  O504  1  0.66014961  0.08206448  0.32855583  1
  O2-  O505  1  0.65397733  0.07119198  0.65002971  1
  O2-  O506  1  0.68232932  0.10200747  0.99511488  1
  O2-  O507  1  0.64621138  0.32179738  0.31238719  1
  O2-  O508  1  0.68196992  0.33197721  0.63212419  1
  O2-  O509  1  0.65283057  0.33816829  0.97176752  1
  O2-  O510  1  0.66205574  0.57926421  0.31793378  1
  O2-  O511  1  0.56753688  0.53466064  0.59914602  1
  O2-  O512  1  0.68104544  0.57982417  0.97447846  1
  O2-  O513  1  0.67063132  0.82552260  0.32035768  1
  O2-  O514  1  0.66979605  0.83221830  0.63967046  1
  O2-  O515  1  0.65337722  0.84930418  0.98522433  1
  O2-  O516  1  0.90487088  0.06316790  0.31299321  1
  O2-  O517  1  0.91212718  0.08087740  0.64565924  1
  O2-  O518  1  0.92936288  0.08364693  0.99294430  1
  O2-  O519  1  0.90204420  0.30662321  0.30664207  1
  O2-  O520  1  0.90468209  0.31953701  0.63766755  1
  O2-  O521  1  0.87829143  0.31050142  0.96039388  1
  O2-  O522  1  0.96913591  0.63919001  0.28220143  1
  O2-  O523  1  0.92508016  0.58061057  0.64537962  1
  O2-  O524  1  0.91509830  0.57932345  1.00407451  1
  O2-  O525  1  0.91945335  0.83968544  0.30591380  1
  O2-  O526  1  0.89800329  0.82220441  0.64045125  1
  O2-  O527  1  0.90523822  0.81973434  0.98634292  1
  O2-  O528  1  0.08051060  0.16136337  0.01966552  1
  O2-  O529  1  0.06694656  0.14420102  0.34265004  1
  O2-  O530  1  0.07212865  0.15300645  0.69289873  1
  O2-  O531  1  0.04002599  0.42395344  0.04512991  1
  O2-  O532  1  0.06051131  0.39048661  0.35326727  1
  O2-  O533  1  0.05792841  0.40674328  0.69874538  1
  O2-  O534  1  0.08407478  0.65375923  -0.00111627  1
  O2-  O535  1  0.15338674  0.68297102  0.37503423  1
  O2-  O536  1  0.07587682  0.66182197  0.69436404  1
  O2-  O537  1  0.07684913  0.89891814  0.01320354  1
  O2-  O538  1  0.07876380  0.91078169  0.35613224  1
  O2-  O539  1  0.05843358  0.89719272  0.67769993  1
  O2-  O540  1  0.27985336  0.09917694  0.01810743  1
  O2-  O541  1  0.31791183  0.15052112  0.35284411  1
  O2-  O542  1  0.37179968  0.19769834  0.70395016  1
  O2-  O543  1  0.35872403  0.48449256  -0.02101966  1
  O2-  O544  1  0.32832885  0.40692714  0.35282507  1
  O2-  O545  1  0.32395208  0.42680080  0.68931612  1
  O2-  O546  1  0.31472132  0.63273554  0.02151204  1
  O2-  O547  1  0.31138939  0.70372558  0.37122898  1
  O2-  O548  1  0.33208758  0.67876081  0.67042598  1
  O2-  O549  1  0.34527696  0.90243020  -0.00045152  1
  O2-  O550  1  0.34250503  0.92955238  0.35000684  1
  O2-  O551  1  0.37450475  0.92264888  0.68866402  1
  O2-  O552  1  0.56991643  0.18059615  0.01312006  1
  O2-  O553  1  0.57228985  0.16040095  0.36004810  1
  O2-  O554  1  0.58711544  0.17247921  0.66722806  1
  O2-  O555  1  0.58695385  0.43034815  0.02390195  1
  O2-  O556  1  0.57425615  0.41076527  0.36415930  1
  O2-  O557  1  0.58282039  0.43873496  0.67697946  1
  O2-  O558  1  0.57571182  0.67862017  0.02574326  1
  O2-  O559  1  0.58988827  0.65945169  0.36551335  1
  O2-  O560  1  0.55373445  0.65115987  0.66431839  1
  O2-  O561  1  0.62282916  0.90896025  0.00306591  1
  O2-  O562  1  0.58041988  0.90722082  0.35152648  1
  O2-  O563  1  0.59427671  0.90652886  0.67552121  1
  O2-  O564  1  0.84526198  0.16364882  0.02386237  1
  O2-  O565  1  0.83379430  0.14860594  0.35015677  1
  O2-  O566  1  0.81947796  0.15665911  0.68135016  1
  O2-  O567  1  0.89822983  0.43175343  0.05457302  1
  O2-  O568  1  0.80325414  0.45080585  0.34669944  1
  O2-  O569  1  0.82779586  0.40246149  0.67334008  1
  O2-  O570  1  0.82903460  0.66115559  0.03010836  1
  O2-  O571  1  0.87209960  0.68134378  0.35500623  1
  O2-  O572  1  0.83287079  0.66246244  0.69341182  1
  O2-  O573  1  0.82929576  0.91945256  0.02436463  1
  O2-  O574  1  0.83164590  0.91527567  0.35626238  1
  O2-  O575  1  0.82768935  0.91554433  0.68478208  1
