# generated using pymatgen
data_H2O
_symmetry_space_group_name_H-M   'P 1'
_cell_length_a   17.99713434
_cell_length_b   18.00194667
_cell_length_c   22.01035349
_cell_angle_alpha   90.01373486
_cell_angle_beta   89.97875652
_cell_angle_gamma   119.99013903
_symmetry_Int_Tables_number   1
_chemical_formula_structural   H2O
_chemical_formula_sum   'H384 O192'
_cell_volume   6176.23188405
_cell_formula_units_Z   192
loop_
 _symmetry_equiv_pos_site_id
 _symmetry_equiv_pos_as_xyz
  1  'x, y, z'
loop_
 _atom_type_symbol
 _atom_type_oxidation_number
  H+  1.0
  O2-  -2.0
loop_
 _atom_site_type_symbol
 _atom_site_label
 _atom_site_symmetry_multiplicity
 _atom_site_fract_x
 _atom_site_fract_y
 _atom_site_fract_z
 _atom_site_occupancy
  H+  H0  1  0.36881434  0.97837995  0.49734348  1
  H+  H1  1  0.52991622  0.13642989  0.48413346  1
  H+  H2  1  0.14737292  0.34950166  0.83810435  1
  H+  H3  1  0.85961567  0.72209605  0.49358153  1
  H+  H4  1  0.85828255  0.13396469  1.00953496  1
  H+  H5  1  0.13412299  0.11369509  1.00480761  1
  H+  H6  1  0.21319617  0.10939246  0.35575775  1
  H+  H7  1  0.13036616  0.26667610  -0.00192244  1
  H+  H8  1  0.27460035  0.89235457  0.16974564  1
  H+  H9  1  0.13906642  0.85180040  0.50963015  1
  H+  H10  1  1.02450165  0.38824486  0.67490468  1
  H+  H11  1  0.39636192  0.28230374  0.17257006  1
  H+  H12  1  0.60151761  0.88196138  0.83283486  1
  H+  H13  1  0.85922111  0.38658069  0.50137589  1
  H+  H14  1  0.37166717  0.13536207  0.67150797  1
  H+  H15  1  0.37283169  0.90818731  0.82306454  1
  H+  H16  1  0.47234346  0.60563579  1.00772561  1
  H+  H17  1  0.12033753  0.23761251  0.64657594  1
  H+  H18  1  0.41714182  0.58879917  0.24169738  1
  H+  H19  1  0.59586612  0.37666336  0.82261138  1
  H+  H20  1  0.28548947  0.14117256  0.67604547  1
  H+  H21  1  0.63315049  0.27258372  0.98716604  1
  H+  H22  1  0.14366456  0.52722545  0.50190401  1
  H+  H23  1  0.85716162  0.49658537  0.83323192  1
  H+  H24  1  0.34213228  0.44353808  0.42903475  1
  H+  H25  1  0.62229201  0.79523034  0.32471424  1
  H+  H26  1  0.63681674  0.35993054  0.65951642  1
  H+  H27  1  0.72194870  0.11884278  0.18205641  1
  H+  H28  1  0.89128552  0.52173868  0.50590555  1
  H+  H29  1  0.88752697  0.85843033  1.00124829  1
  H+  H30  1  0.27044648  0.37245760  0.01212989  1
  H+  H31  1  0.28612974  0.65194324  0.49002741  1
  H+  H32  1  0.84587294  0.90587901  0.33980189  1
  H+  H33  1  1.01387354  0.14524750  0.16804116  1
  H+  H34  1  0.95918642  0.87181148  0.33230894  1
  H+  H35  1  0.47971011  0.20219956  0.29593012  1
  H+  H36  1  0.66008530  0.32608731  0.56041701  1
  H+  H37  1  0.70954468  0.88368601  0.32945591  1
  H+  H38  1  0.36855443  0.25903245  0.32540468  1
  H+  H39  1  0.88675767  0.02751910  0.85392143  1
  H+  H40  1  0.38824622  0.78100106  0.50194536  1
  H+  H41  1  0.52332274  0.38587046  0.67045449  1
  H+  H42  1  0.57603098  0.41257973  0.75311526  1
  H+  H43  1  0.23240875  0.34400315  0.84322641  1
  H+  H44  1  0.42962247  0.11158898  0.92001980  1
  H+  H45  1  0.63616531  0.27181890  0.49842359  1
  H+  H46  1  0.09697288  0.25137155  0.44730371  1
  H+  H47  1  0.86058195  0.21608298  0.16448208  1
  H+  H48  1  0.09408791  0.66380265  0.08903418  1
  H+  H49  1  0.30453479  0.39879343  0.17736493  1
  H+  H50  1  0.86204248  0.46045937  0.33681226  1
  H+  H51  1  0.84819845  0.66953771  0.33750924  1
  H+  H52  1  0.91371098  0.82288638  0.55801276  1
  H+  H53  1  0.35799398  0.23742373  0.85070372  1
  H+  H54  1  0.03013160  0.14958736  0.64092291  1
  H+  H55  1  0.62963093  0.50782669  1.00058157  1
  H+  H56  1  0.38644441  0.86427646  0.65587082  1
  H+  H57  1  0.01383145  0.86666167  0.00769731  1
  H+  H58  1  0.36462664  0.21819827  0.50014662  1
  H+  H59  1  0.88679442  0.58317931  0.30260930  1
  H+  H60  1  0.59197521  1.00025092  0.33536917  1
  H+  H61  1  0.96190012  0.09613188  0.49673471  1
  H+  H62  1  0.88486802  0.26780696  -0.00430740  1
  H+  H63  1  0.89025463  0.56475391  0.59319482  1
  H+  H64  1  0.36405611  0.22315449  0.01339935  1
  H+  H65  1  0.82082652  0.15774562  0.10504070  1
  H+  H66  1  0.35767716  0.12943774  0.34350187  1
  H+  H67  1  0.88971193  1.03242252  0.64656282  1
  H+  H68  1  0.38077796  0.67686120  0.82312957  1
  H+  H69  1  0.77152283  0.38895939  0.49702340  1
  H+  H70  1  0.57456915  0.93053314  0.06945872  1
  H+  H71  1  0.87064557  0.03722072  0.33012257  1
  H+  H72  1  0.88393758  0.11783775  0.65430442  1
  H+  H73  1  0.72164732  0.10705902  0.83996279  1
  H+  H74  1  0.79602572  0.51229090  0.61594191  1
  H+  H75  1  0.37244110  0.56386349  0.83490495  1
  H+  H76  1  0.11678626  0.95971462  0.50588638  1
  H+  H77  1  0.12031473  0.72443854  0.67316508  1
  H+  H78  1  0.34910225  0.11913800  0.83495901  1
  H+  H79  1  0.85995263  0.88483393  0.49009983  1
  H+  H80  1  0.26949758  0.88237850  0.34282111  1
  H+  H81  1  0.88775433  1.02313225  -0.00315762  1
  H+  H82  1  0.85979808  0.12712008  0.82901528  1
  H+  H83  1  0.61048671  0.22175949  0.67433808  1
  H+  H84  1  0.36987731  0.38957794  0.67533020  1
  H+  H85  1  1.01735013  0.13594090  1.01375763  1
  H+  H86  1  0.37999804  0.87454383  0.32193140  1
  H+  H87  1  0.59958722  0.68252086  0.05778585  1
  H+  H88  1  0.47693981  0.35812522  0.50500275  1
  H+  H89  1  0.51014866  0.14031225  0.32104811  1
  H+  H90  1  0.14277543  0.76539853  0.50753767  1
  H+  H91  1  0.88693464  0.60990001  0.99208609  1
  H+  H92  1  0.17170944  0.58526881  0.56095224  1
  H+  H93  1  0.85127696  0.46233684  0.67667589  1
  H+  H94  1  0.11052261  0.20423056  0.83258459  1
  H+  H95  1  0.11210262  0.98808516  0.68385875  1
  H+  H96  1  0.43213338  0.10234119  0.23132759  1
  H+  H97  1  0.36082998  0.88800906  0.16447356  1
  H+  H98  1  0.38277783  0.87438842  0.50535367  1
  H+  H99  1  0.37060875  0.47919239  0.67632270  1
  H+  H100  1  0.61024211  0.90014918  0.16104124  1
  H+  H101  1  0.96912000  0.36122278  0.52005420  1
  H+  H102  1  1.01505933  0.88371850  0.82796336  1
  H+  H103  1  0.39437899  0.10844520  0.50688836  1
  H+  H104  1  0.61188687  0.65778214  0.32312872  1
  H+  H105  1  0.48926433  0.36800178  0.17386469  1
  H+  H106  1  0.60491808  0.72201702  0.82949474  1
  H+  H107  1  0.07082313  0.78504697  0.19572773  1
  H+  H108  1  0.35732237  0.72859996  0.66608085  1
  H+  H109  1  0.13697817  0.51461784  0.99453808  1
  H+  H110  1  0.12945311  0.39743956  0.32391434  1
  H+  H111  1  0.85182047  0.88497566  0.16484615  1
  H+  H112  1  0.76857053  0.62851607  1.00597207  1
  H+  H113  1  0.71953559  0.60465341  0.51162135  1
  H+  H114  1  0.13794849  0.07855074  0.51709908  1
  H+  H115  1  0.52420589  0.13994534  0.01227741  1
  H+  H116  1  0.12894131  0.72194612  0.14868955  1
  H+  H117  1  0.03050573  0.89182991  0.67045237  1
  H+  H118  1  0.97944566  0.11218286  0.84486325  1
  H+  H119  1  0.86200332  0.48234104  0.13941909  1
  H+  H120  1  0.02302318  0.37864031  0.00810919  1
  H+  H121  1  0.97287615  0.85565283  0.50023789  1
  H+  H122  1  0.37930407  0.66096449  0.49131691  1
  H+  H123  1  0.61304636  0.22774481  0.82531950  1
  H+  H124  1  0.37202414  0.65111924  0.00518836  1
  H+  H125  1  0.70648413  0.37581140  0.83862598  1
  H+  H126  1  0.10344425  0.08718968  0.42621575  1
  H+  H127  1  0.11798899  0.90333803  0.82739513  1
  H+  H128  1  0.85271529  0.97068773  0.49491514  1
  H+  H129  1  0.37429689  0.45348580  0.83562212  1
  H+  H130  1  0.27604077  0.63731410  0.00604025  1
  H+  H131  1  0.38365541  1.02314421  0.00396202  1
  H+  H132  1  0.49027097  0.63346397  0.50136332  1
  H+  H133  1  0.02872484  0.63468652  0.49222085  1
  H+  H134  1  0.27800372  0.88651823  0.49883914  1
  H+  H135  1  0.84536871  0.62329862  0.67196940  1
  H+  H136  1  0.63313722  0.52236323  0.28663210  1
  H+  H137  1  0.09053831  0.24138699  0.15800418  1
  H+  H138  1  0.98025708  0.59642854  0.31573635  1
  H+  H139  1  0.11797368  0.63704454  0.33369492  1
  H+  H140  1  0.61069283  0.38401607  0.48982398  1
  H+  H141  1  0.13119305  0.85221237  0.33767006  1
  H+  H142  1  0.41040063  0.32294152  0.26868056  1
  H+  H143  1  0.88638975  0.27635560  0.33029985  1
  H+  H144  1  0.60768808  -0.02639586  0.82937115  1
  H+  H145  1  0.77020622  0.13653396  0.00687945  1
  H+  H146  1  0.10024583  0.15557248  0.46785399  1
  H+  H147  1  0.11415522  0.86259968  1.00465149  1
  H+  H148  1  0.72644181  0.36509971  0.32980989  1
  H+  H149  1  0.11204529  0.37729999  0.00501711  1
  H+  H150  1  0.47501908  0.86231033  0.65627358  1
  H+  H151  1  0.64247314  0.28213310  0.17338826  1
  H+  H152  1  0.52598391  0.14417496  0.83463870  1
  H+  H153  1  0.91641481  0.35628290  0.84086674  1
  H+  H154  1  0.22373511  0.86026026  1.00363961  1
  H+  H155  1  0.27651886  0.88437203  0.67162402  1
  H+  H156  1  0.13111030  0.76328177  0.33022267  1
  H+  H157  1  0.83102521  0.40320688  0.85260373  1
  H+  H158  1  0.65822395  0.10366172  0.23887914  1
  H+  H159  1  0.47473940  0.60440481  0.83565739  1
  H+  H160  1  0.38904518  0.77802573  0.16916830  1
  H+  H161  1  0.61215035  0.47796539  0.67171967  1
  H+  H162  1  0.71215326  0.85308295  0.86187567  1
  H+  H163  1  0.58644402  0.42332798  0.43283844  1
  H+  H164  1  0.85310837  0.13632112  0.49078880  1
  H+  H165  1  0.11851363  0.39657659  0.67248359  1
  H+  H166  1  0.39882323  0.53184516  0.17348255  1
  H+  H167  1  0.60984825  0.62883502  0.48364331  1
  H+  H168  1  0.47428062  0.61747784  0.66040735  1
  H+  H169  1  0.47521084  0.61406348  0.31745172  1
  H+  H170  1  0.71902534  0.61440690  0.66215753  1
  H+  H171  1  0.97623403  0.78230970  0.61517191  1
  H+  H172  1  0.35747312  0.74840219  0.82662633  1
  H+  H173  1  0.63668396  0.12062448  0.99438211  1
  H+  H174  1  0.17908171  0.31516967  0.51728620  1
  H+  H175  1  0.28068979  0.12491987  0.50604856  1
  H+  H176  1  0.61758889  0.14820231  0.16135667  1
  H+  H177  1  0.67417126  0.57634424  0.85292021  1
  H+  H178  1  0.11391759  0.62870894  0.99837012  1
  H+  H179  1  0.77313966  0.39566454  0.14466217  1
  H+  H180  1  0.60717410  0.97386425  0.67412045  1
  H+  H181  1  0.22191852  0.11280952  0.00385548  1
  H+  H182  1  0.35531888  0.88546056  0.01138427  1
  H+  H183  1  0.59453766  0.16341470  0.42630020  1
  H+  H184  1  0.76814183  0.12988135  0.67393778  1
  H+  H185  1  0.77886910  0.89130085  1.01084362  1
  H+  H186  1  0.12298679  0.91744152  0.15776592  1
  H+  H187  1  0.80943857  0.66120193  0.82985766  1
  H+  H188  1  0.14216992  0.53037660  0.31730170  1
  H+  H189  1  0.10954500  0.23899511  0.30439231  1
  H+  H190  1  0.89501742  0.65894638  0.82754015  1
  H+  H191  1  0.05867267  0.95142787  0.14349723  1
  H+  H192  1  0.60253451  0.60228553  1.03458203  1
  H+  H193  1  0.83955707  0.91824698  0.06842838  1
  H+  H194  1  0.38948494  0.62035019  0.17104745  1
  H+  H195  1  0.11889704  0.61213888  0.82346403  1
  H+  H196  1  0.18866558  0.38482761  0.12588225  1
  H+  H197  1  0.38261372  0.77904952  0.99472331  1
  H+  H198  1  0.37956098  0.33299019  0.84632639  1
  H+  H199  1  0.13872422  0.85916129  0.66198751  1
  H+  H200  1  0.71541634  0.86311736  0.65184183  1
  H+  H201  1  0.69804354  0.14203517  0.33942760  1
  H+  H202  1  0.46941815  0.87065809  -0.00387309  1
  H+  H203  1  0.19991060  1.07935264  0.85242376  1
  H+  H204  1  0.62596218  0.86198186  0.65776895  1
  H+  H205  1  0.08096369  0.91973095  0.29153386  1
  H+  H206  1  0.64232259  0.89739113  0.47718612  1
  H+  H207  1  0.22956148  0.37004682  0.30016957  1
  H+  H208  1  0.39042342  0.36015673  0.50718502  1
  H+  H209  1  0.38391481  0.11280057  0.00953843  1
  H+  H210  1  1.09792125  0.11051609  0.83997541  1
  H+  H211  1  0.16895043  0.11041289  0.72607870  1
  H+  H212  1  0.63434946  0.11078189  0.83959011  1
  H+  H213  1  0.90011007  0.78978222  0.84730770  1
  H+  H214  1  0.85708058  0.88645328  0.63118280  1
  H+  H215  1  0.84447628  0.70754174  0.16360805  1
  H+  H216  1  0.04027185  0.37460440  0.82932672  1
  H+  H217  1  0.71953860  0.87659098  0.17054556  1
  H+  H218  1  0.17945621  0.84294751  0.87327161  1
  H+  H219  1  0.28152950  0.63728336  0.15738283  1
  H+  H220  1  0.15759273  0.06453708  0.17988365  1
  H+  H221  1  0.28292760  0.15793005  0.17223133  1
  H+  H222  1  0.71914049  0.11179303  0.51341871  1
  H+  H223  1  0.41020731  0.31552177  0.94058540  1
  H+  H224  1  0.60163771  0.91344483  0.33116099  1
  H+  H225  1  0.52001220  0.37846379  0.00849919  1
  H+  H226  1  0.63040832  0.51617398  0.50859194  1
  H+  H227  1  0.64545784  0.81326189  1.03691774  1
  H+  H228  1  0.43017256  0.60546044  0.56211225  1
  H+  H229  1  0.89409792  0.61208205  0.50554543  1
  H+  H230  1  0.14345320  0.60498628  0.16183517  1
  H+  H231  1  0.86292422  -0.02026987  0.16194465  1
  H+  H232  1  -0.01668045  0.61302808  0.15898587  1
  H+  H233  1  0.05724585  0.23332432  0.46741815  1
  H+  H234  1  0.95847184  0.12630723  0.32022593  1
  H+  H235  1  0.81701088  0.92712705  0.40210294  1
  H+  H236  1  0.92888641  0.32237136  0.90493857  1
  H+  H237  1  0.72239140  0.84960489  0.50613395  1
  H+  H238  1  0.87484804  0.10706399  0.17119276  1
  H+  H239  1  0.94502335  0.83344762  0.19300528  1
  H+  H240  1  0.39212463  0.03292085  0.17662262  1
  H+  H241  1  0.98179652  0.33949751  0.17255114  1
  H+  H242  1  0.85478554  0.22561827  0.49896864  1
  H+  H243  1  0.30298886  0.93716978  0.82158914  1
  H+  H244  1  0.60567210  0.98732777  0.00812059  1
  H+  H245  1  0.64062339  0.98288801  0.48031624  1
  H+  H246  1  0.12824469  0.70382145  0.82361890  1
  H+  H247  1  0.60535494  0.98706709  0.16595863  1
  H+  H248  1  0.41715422  0.83941751  0.56713153  1
  H+  H249  1  0.86550065  0.79835895  0.35195102  1
  H+  H250  1  0.38138087  0.60807756  0.32061679  1
  H+  H251  1  0.12047314  0.39300462  0.50022184  1
  H+  H252  1  0.72139969  0.60235210  0.17876295  1
  H+  H253  1  0.61984334  0.38737615  0.16105410  1
  H+  H254  1  0.13389470  0.12738268  0.66476555  1
  H+  H255  1  0.14736686  0.51809602  0.16728788  1
  H+  H256  1  0.27688991  0.63322268  0.33256950  1
  H+  H257  1  0.83059773  0.13982523  0.33980460  1
  H+  H258  1  0.57800500  0.46056649  0.82193123  1
  H+  H259  1  0.38116483  0.50961935  0.48595717  1
  H+  H260  1  0.63268205  0.36110951  0.99012532  1
  H+  H261  1  0.34976146  0.37260549  0.32990757  1
  H+  H262  1  0.72217757  0.35369633  0.66259012  1
  H+  H263  1  0.63159805  0.11097990  0.50968260  1
  H+  H264  1  0.85969059  0.88791235  0.84963543  1
  H+  H265  1  0.14817956  0.51038404  0.83618561  1
  H+  H266  1  0.25798603  0.40747880  0.50632342  1
  H+  H267  1  0.12726589  0.62719659  0.66745307  1
  H+  H268  1  0.16465239  0.82487003  0.60218751  1
  H+  H269  1  0.36666299  0.14598032  0.16663004  1
  H+  H270  1  0.11835757  0.63585267  0.48940813  1
  H+  H271  1  0.39484404  0.27388860  0.66431993  1
  H+  H272  1  0.39051908  1.02166939  0.65750237  1
  H+  H273  1  0.38491891  0.35275558  -0.00057789  1
  H+  H274  1  0.48721785  0.89295227  0.31872915  1
  H+  H275  1  0.63441360  0.10836858  0.66517794  1
  H+  H276  1  0.02494691  0.63097421  0.00004213  1
  H+  H277  1  0.89667254  0.75661312  0.65606032  1
  H+  H278  1  0.52900263  0.14832207  0.15822915  1
  H+  H279  1  -0.01244107  0.61301379  0.84047507  1
  H+  H280  1  0.59900339  0.59470587  0.83934817  1
  H+  H281  1  -0.01657196  0.35392797  0.32984849  1
  H+  H282  1  0.47099107  0.87048606  0.84277293  1
  H+  H283  1  0.47573904  0.87118270  0.17006246  1
  H+  H284  1  0.13633071  0.76662967  0.99443074  1
  H+  H285  1  0.20435777  0.92699017  0.90519130  1
  H+  H286  1  0.39068444  0.39919535  0.16670734  1
  H+  H287  1  0.86143341  0.21461390  0.82748165  1
  H+  H288  1  0.88210306  0.76529334  0.99836600  1
  H+  H289  1  0.33124242  0.15349618  0.40648637  1
  H+  H290  1  0.13815394  0.44543527  0.38594598  1
  H+  H291  1  0.77474038  0.38610252  0.99003338  1
  H+  H292  1  0.08121584  0.20603374  0.36969765  1
  H+  H293  1  0.81687049  0.91423989  0.79751982  1
  H+  H294  1  0.16932459  0.35953171  0.24073209  1
  H+  H295  1  0.64264502  0.81712291  0.91369088  1
  H+  H296  1  0.63235245  0.40639769  0.33520115  1
  H+  H297  1  0.60801451  0.63873636  0.67159617  1
  H+  H298  1  0.85138303  0.90540271  0.69867021  1
  H+  H299  1  0.07521882  0.16934016  0.07391914  1
  H+  H300  1  0.47976258  0.11044258  0.66065771  1
  H+  H301  1  0.90762915  0.32817880  0.57726036  1
  H+  H302  1  0.64692777  0.33479430  0.89727601  1
  H+  H303  1  0.83090039  0.41832474  0.05076305  1
  H+  H304  1  0.85880853  0.62704608  0.15765221  1
  H+  H305  1  0.43206269  0.59425100  0.94161678  1
  H+  H306  1  0.34154704  0.92256287  0.72874018  1
  H+  H307  1  0.09457538  0.92496881  0.05742744  1
  H+  H308  1  0.65998446  0.58110732  0.60186810  1
  H+  H309  1  0.66099285  0.07873280  0.60420228  1
  H+  H310  1  0.92667831  0.57371053  0.21875206  1
  H+  H311  1  0.14887606  0.14635300  0.18509992  1
  H+  H312  1  0.32599137  0.91444963  0.07220338  1
  H+  H313  1  0.23552858  0.37577182  0.66904422  1
  H+  H314  1  0.34266470  0.40637470  0.77177637  1
  H+  H315  1  0.63445826  0.88425741  1.00661591  1
  H+  H316  1  0.58042684  0.67034284  0.76451529  1
  H+  H317  1  0.82667428  0.65650072  0.06529759  1
  H+  H318  1  0.16577010  0.32293570  0.93710693  1
  H+  H319  1  0.05425228  0.38307093  0.44826289  1
  H+  H320  1  0.35911848  0.46602630  0.32358874  1
  H+  H321  1  0.33388179  0.40647634  0.06924246  1
  H+  H322  1  0.92590121  0.31594901  0.23277813  1
  H+  H323  1  0.34139034  0.67028875  0.09836559  1
  H+  H324  1  0.58001209  0.16389122  0.73495635  1
  H+  H325  1  0.76200598  0.58602802  0.31938002  1
  H+  H326  1  0.64125087  0.27451526  0.32518836  1
  H+  H327  1  0.41139967  0.84460553  0.25886178  1
  H+  H328  1  0.07293906  0.90670031  0.75828036  1
  H+  H329  1  0.40951870  0.84364828  0.90162726  1
  H+  H330  1  0.23184823  0.60722733  0.83768229  1
  H+  H331  1  0.09066063  0.91304856  0.44169212  1
  H+  H332  1  0.91176094  0.08614120  0.55883602  1
  H+  H333  1  0.92810498  0.59474462  0.90103145  1
  H+  H334  1  0.90252757  0.08251281  0.23300842  1
  H+  H335  1  0.81023725  0.16935251  0.40271598  1
  H+  H336  1  0.57497690  0.91184091  0.73247905  1
  H+  H337  1  0.14896581  0.06232270  0.91446492  1
  H+  H338  1  0.88755409  0.35858409  0.98872381  1
  H+  H339  1  0.08367235  0.66033336  0.39474091  1
  H+  H340  1  0.63826203  0.56939077  0.94596704  1
  H+  H341  1  0.82837991  0.15555055  0.73330292  1
  H+  H342  1  0.38342952  0.61308031  0.65849647  1
  H+  H343  1  0.92723389  0.84294236  0.90969096  1
  H+  H344  1  0.59109927  0.17783026  0.06695771  1
  H+  H345  1  0.16786844  0.57060371  0.93367275  1
  H+  H346  1  0.65527111  0.81879994  0.56171347  1
  H+  H347  1  0.67342354  0.34158513  0.23283962  1
  H+  H348  1  0.09150971  0.41053143  0.76657781  1
  H+  H349  1  0.17171128  0.06574995  0.58148512  1
  H+  H350  1  0.08882841  0.40424747  0.09621170  1
  H+  H351  1  0.09314281  0.65838792  0.73281553  1
  H+  H352  1  0.14627370  0.83133394  0.24165661  1
  H+  H353  1  0.13249806  0.52295820  0.66186558  1
  H+  H354  1  0.91816843  0.08753191  0.93957297  1
  H+  H355  1  0.42024725  0.33094512  0.60362813  1
  H+  H356  1  0.22501298  0.61487280  0.66104217  1
  H+  H357  1  0.88460289  0.35476976  0.67163530  1
  H+  H358  1  0.45691114  0.19847896  0.88674748  1
  H+  H359  1  0.65976880  0.85209205  0.22892383  1
  H+  H360  1  0.87892505  0.81208980  0.24493612  1
  H+  H361  1  0.42753725  0.08040097  0.56477534  1
  H+  H362  1  0.61381327  0.47358677  0.15935842  1
  H+  H363  1  0.82772569  0.41746176  0.40218023  1
  H+  H364  1  0.33993235  0.66692642  0.39017644  1
  H+  H365  1  0.09969979  0.98510170  0.34380604  1
  H+  H366  1  0.88644430  0.52018936  0.98571350  1
  H+  H367  1  0.82711120  0.41395597  0.74057598  1
  H+  H368  1  0.17265116  0.58941656  0.25847995  1
  H+  H369  1  0.60823504  0.72856891  0.67059111  1
  H+  H370  1  0.58149892  0.66893503  0.38863468  1
  H+  H371  1  0.32215878  0.14188336  0.77176913  1
  H+  H372  1  0.13262722  0.12168319  0.33594908  1
  H+  H373  1  0.66301945  0.08591530  0.93510597  1
  H+  H374  1  0.33442151  0.91462791  0.39858132  1
  H+  H375  1  0.82006172  0.65016173  0.44251644  1
  H+  H376  1  0.18976959  0.36714937  0.60579821  1
  H+  H377  1  0.58339773  0.40926343  0.06693473  1
  H+  H378  1  0.32920839  0.67672234  0.72844678  1
  H+  H379  1  0.84131452  0.67148267  0.73300070  1
  H+  H380  1  0.61740544  0.72113468  0.48453870  1
  H+  H381  1  0.33301870  0.16853563  0.07470736  1
  H+  H382  1  0.60587256  0.61618885  0.14375935  1
  H+  H383  1  0.88544537  0.26631609  0.66803093  1
  O2-  O384  1  0.07491643  0.18086505  0.15361434  1
  O2-  O385  1  0.07982702  0.09406124  0.46600493  1
  O2-  O386  1  0.07361457  0.14363875  0.81987388  1
  O2-  O387  1  0.09599312  0.40848063  0.14304427  1
  O2-  O388  1  0.07999440  0.41291331  0.48631029  1
  O2-  O389  1  0.09883337  0.40926065  0.81151017  1
  O2-  O390  1  0.09571177  0.66238231  0.13487146  1
  O2-  O391  1  0.08832646  0.66678009  0.47542376  1
  O2-  O392  1  0.09089040  0.64626691  0.80763979  1
  O2-  O393  1  0.11402953  0.95791012  0.13207670  1
  O2-  O394  1  0.08181558  0.90237951  0.48538618  1
  O2-  O395  1  0.06350092  0.88428599  0.80295334  1
  O2-  O396  1  0.33995193  0.17982919  0.15181097  1
  O2-  O397  1  0.33751744  0.15749268  0.48599534  1
  O2-  O398  1  0.30565868  0.12979279  0.81514181  1
  O2-  O399  1  0.35788115  0.43046794  0.15470037  1
  O2-  O400  1  0.34757297  0.44740995  0.47384001  1
  O2-  O401  1  0.34021381  0.39634115  0.81655689  1
  O2-  O402  1  0.34303516  0.66965727  0.14416833  1
  O2-  O403  1  0.34610690  0.68849737  0.47560774  1
  O2-  O404  1  0.33538381  0.68790778  0.80997938  1
  O2-  O405  1  0.33148154  0.92082546  0.15114274  1
  O2-  O406  1  0.33823357  0.91601423  0.48326890  1
  O2-  O407  1  0.35363083  0.94337822  0.80027893  1
  O2-  O408  1  0.58965929  0.17966844  0.14362587  1
  O2-  O409  1  0.59125759  0.16908492  0.47203935  1
  O2-  O410  1  0.58255685  0.16623411  0.81384179  1
  O2-  O411  1  0.58630883  0.41384606  0.14316179  1
  O2-  O412  1  0.58019885  0.41566549  0.47782289  1
  O2-  O413  1  0.56555940  0.40554707  0.80063409  1
  O2-  O414  1  0.62712326  0.62789651  0.18642186  1
  O2-  O415  1  0.58393078  0.66163459  0.46619976  1
  O2-  O416  1  0.57563475  0.66388520  0.81012299  1
  O2-  O417  1  0.57625153  0.92875068  0.14731310  1
  O2-  O418  1  0.65179675  0.94688982  0.45263652  1
  O2-  O419  1  0.57422002  0.91270790  0.81448774  1
  O2-  O420  1  0.82066134  0.15432151  0.15017013  1
  O2-  O421  1  0.82218659  0.16737647  0.48074958  1
  O2-  O422  1  0.82745781  0.15497488  0.81221235  1
  O2-  O423  1  0.82676532  0.42518783  0.12062077  1
  O2-  O424  1  0.83384245  0.42113917  0.48591007  1
  O2-  O425  1  0.81777414  0.43435823  0.82224936  1
  O2-  O426  1  0.82086647  0.65029137  0.14446671  1
  O2-  O427  1  0.82960689  0.65823778  0.48620563  1
  O2-  O428  1  0.86617817  0.69131078  0.81132232  1
  O2-  O429  1  0.83112499  0.91995122  0.14435101  1
  O2-  O430  1  0.82482378  0.91088195  0.47835908  1
  O2-  O431  1  0.82145306  0.91273166  0.84151499  1
  O2-  O432  1  0.18153522  0.11960938  0.20117023  1
  O2-  O433  1  0.17435909  0.05781179  0.53779228  1
  O2-  O434  1  0.14130856  0.04964939  0.86957037  1
  O2-  O435  1  0.14382755  0.36358876  0.15741413  1
  O2-  O436  1  0.19853837  0.37516762  0.52652923  1
  O2-  O437  1  0.17180175  0.31659299  0.85747549  1
  O2-  O438  1  0.17596028  0.57917172  0.18034238  1
  O2-  O439  1  0.17553179  0.58765640  0.51607373  1
  O2-  O440  1  0.17132770  0.57112611  0.85142650  1
  O2-  O441  1  0.13093063  0.83036995  0.19716160  1
  O2-  O442  1  0.17172362  0.82485144  0.52575499  1
  O2-  O443  1  0.19611024  0.90243735  0.86439054  1
  O2-  O444  1  0.42336878  0.09502298  0.18616424  1
  O2-  O445  1  0.42475375  0.07704693  0.51923912  1
  O2-  O446  1  0.44136627  0.13908873  0.87838165  1
  O2-  O447  1  0.42847908  0.34256669  0.18901364  1
  O2-  O448  1  0.41741353  0.32803462  0.52272230  1
  O2-  O449  1  0.39872249  0.29563517  0.86590957  1
  O2-  O450  1  0.42062858  0.59171108  0.19038308  1
  O2-  O451  1  0.42994045  0.61026100  0.51698333  1
  O2-  O452  1  0.41953891  0.56500006  0.85743849  1
  O2-  O453  1  0.41367554  0.83823551  0.18393752  1
  O2-  O454  1  0.41532070  0.84184603  0.52046169  1
  O2-  O455  1  0.40953044  0.84385627  0.85597866  1
  O2-  O456  1  0.66024331  0.09370571  0.19481202  1
  O2-  O457  1  0.65953463  0.08150653  0.52981207  1
  O2-  O458  1  0.66134118  0.07786860  0.85550412  1
  O2-  O459  1  0.67267363  0.34317499  0.18734753  1
  O2-  O460  1  0.66287057  0.33178091  0.51550932  1
  O2-  O461  1  0.64563881  0.33825781  0.85078701  1
  O2-  O462  1  0.66166379  0.56992540  0.19635517  1
  O2-  O463  1  0.65886419  0.57639912  0.52510172  1
  O2-  O464  1  0.61253021  0.55127124  0.85838451  1
  O2-  O465  1  0.65911858  0.85135743  0.18376949  1
  O2-  O466  1  0.66051597  0.81382681  0.51719298  1
  O2-  O467  1  0.64911016  0.81952785  0.86899631  1
  O2-  O468  1  0.90916766  0.08088627  0.18788162  1
  O2-  O469  1  0.90471168  0.07642690  0.51348494  1
  O2-  O470  1  0.91871450  0.08980841  0.86199223  1
  O2-  O471  1  0.92257403  0.30915756  0.18740765  1
  O2-  O472  1  0.90797382  0.33077032  0.53165796  1
  O2-  O473  1  0.93613026  0.31989129  0.85896932  1
  O2-  O474  1  0.92382774  0.58608311  0.17449624  1
  O2-  O475  1  0.92439999  0.58292488  0.52193279  1
  O2-  O476  1  0.92884120  0.59691675  0.85461997  1
  O2-  O477  1  0.88380153  0.80934906  0.19995505  1
  O2-  O478  1  0.91126545  0.82652634  0.51306229  1
  O2-  O479  1  0.92684911  0.84922625  0.86406446  1
  O2-  O480  1  0.14908220  0.08440512  0.35884318  1
  O2-  O481  1  0.16330888  0.09513888  0.68294107  1
  O2-  O482  1  0.16121676  0.08054480  0.99048737  1
  O2-  O483  1  0.16881080  0.34623297  0.28424537  1
  O2-  O484  1  0.17771574  0.35331433  0.64975380  1
  O2-  O485  1  0.16228183  0.32723993  0.98221305  1
  O2-  O486  1  0.17154711  0.59139220  0.30387971  1
  O2-  O487  1  0.16281639  0.58507758  0.64653499  1
  O2-  O488  1  0.16621508  0.57484309  0.97862120  1
  O2-  O489  1  0.15992899  0.82569497  0.31620705  1
  O2-  O490  1  0.16285056  0.82331041  0.64813687  1
  O2-  O491  1  0.16350274  0.82991264  0.98558096  1
  O2-  O492  1  0.45688627  0.14104680  0.30326100  1
  O2-  O493  1  0.42039638  0.08237694  0.64281138  1
  O2-  O494  1  0.41661218  0.08491460  0.99271680  1
  O2-  O495  1  0.39724132  0.31965688  0.31276921  1
  O2-  O496  1  0.42314611  0.33454869  0.64893492  1
  O2-  O497  1  0.41803757  0.32394347  0.98587062  1
  O2-  O498  1  0.41492806  0.58088774  0.30092942  1
  O2-  O499  1  0.41493937  0.58476871  0.64313124  1
  O2-  O500  1  0.44398641  0.62644029  0.97992719  1
  O2-  O501  1  0.41611878  0.84973915  0.30447685  1
  O2-  O502  1  0.41518732  0.83272025  0.63870842  1
  O2-  O503  1  0.40914156  0.83983787  0.98013077  1
  O2-  O504  1  0.63843019  0.11417922  0.32196532  1
  O2-  O505  1  0.66347371  0.07689983  0.65025710  1
  O2-  O506  1  0.66479621  0.08740698  0.98047114  1
  O2-  O507  1  0.66575006  0.33560586  0.31214093  1
  O2-  O508  1  0.66393534  0.32721381  0.64415097  1
  O2-  O509  1  0.66040677  0.33162766  0.96881660  1
  O2-  O510  1  0.65311190  0.52694251  0.32910202  1
  O2-  O511  1  0.65875010  0.58136181  0.64776544  1
  O2-  O512  1  0.65698395  0.57076319  0.98812387  1
  O2-  O513  1  0.65154855  0.85535368  0.31041911  1
  O2-  O514  1  0.65392058  0.82940638  0.64176427  1
  O2-  O515  1  0.66417208  0.84942521  1.00075827  1
  O2-  O516  1  0.89677962  0.09473663  0.30998285  1
  O2-  O517  1  0.91685410  0.09292180  0.63381782  1
  O2-  O518  1  0.91487952  0.08470900  0.98513039  1
  O2-  O519  1  0.92953506  0.32686224  0.30727357  1
  O2-  O520  1  0.91691202  0.32794239  0.65453357  1
  O2-  O521  1  0.91882359  0.32733842  0.97779389  1
  O2-  O522  1  0.92511083  0.55888972  0.29466355  1
  O2-  O523  1  0.85434910  0.54668238  0.63180925  1
  O2-  O524  1  0.91934214  0.58335256  0.97430922  1
  O2-  O525  1  0.89654004  0.84296559  0.32174811  1
  O2-  O526  1  0.94279805  0.80692487  0.63182342  1
  O2-  O527  1  0.91769689  0.82743492  0.98579545  1
  O2-  O528  1  0.07796389  0.16764535  0.02877096  1
  O2-  O529  1  0.07896495  0.18461162  0.32846273  1
  O2-  O530  1  0.09323514  0.17575869  0.63599948  1
  O2-  O531  1  0.08369572  0.40892980  0.02306060  1
  O2-  O532  1  0.10493478  0.42767155  0.34842683  1
  O2-  O533  1  0.08595189  0.42506706  0.68773658  1
  O2-  O534  1  0.08642251  0.66214444  0.01333770  1
  O2-  O535  1  0.08397500  0.66359183  0.34946955  1
  O2-  O536  1  0.09432820  0.66221330  0.68688332  1
  O2-  O537  1  0.07808853  0.89487556  0.01718531  1
  O2-  O538  1  0.06944912  0.92075505  0.33485112  1
  O2-  O539  1  0.08681408  0.92444879  0.69156265  1
  O2-  O540  1  0.33256641  0.16268351  0.02945973  1
  O2-  O541  1  0.31971577  0.14847999  0.36189574  1
  O2-  O542  1  0.34575229  0.16876541  0.68952688  1
  O2-  O543  1  0.33145411  0.39943287  0.02482229  1
  O2-  O544  1  0.32066609  0.40762987  0.33958047  1
  O2-  O545  1  0.34104263  0.41969599  0.69308601  1
  O2-  O546  1  0.33531637  0.67429267  0.02167203  1
  O2-  O547  1  0.33598854  0.65144329  0.34685784  1
  O2-  O548  1  0.32471259  0.66910443  0.68352047  1
  O2-  O549  1  0.32244786  0.91339886  0.02684052  1
  O2-  O550  1  0.33101914  0.91438749  0.35378825  1
  O2-  O551  1  0.33806198  0.91532274  0.68265121  1
  O2-  O552  1  0.58704879  0.17380615  0.02129062  1
  O2-  O553  1  0.59994573  0.16358027  0.34973946  1
  O2-  O554  1  0.58061948  0.16152567  0.68956075  1
  O2-  O555  1  0.58239489  0.40963507  0.02117479  1
  O2-  O556  1  0.60399271  0.43842099  0.35227018  1
  O2-  O557  1  0.58423195  0.41711383  0.68714162  1
  O2-  O558  1  0.57041970  0.62049391  0.06257168  1
  O2-  O559  1  0.57573446  0.67607923  0.34379288  1
  O2-  O560  1  0.57846827  0.66894020  0.68800033  1
  O2-  O561  1  0.57393549  0.92667697  0.02384087  1
  O2-  O562  1  0.56220162  0.93676733  0.33771695  1
  O2-  O563  1  0.57482512  0.91174762  0.68713744  1
  O2-  O564  1  0.82998839  0.16680632  0.02334602  1
  O2-  O565  1  0.80433480  0.17184947  0.35773858  1
  O2-  O566  1  0.82970815  0.15982580  0.68785764  1
  O2-  O567  1  0.83534441  0.41666465  0.00409362  1
  O2-  O568  1  0.81838770  0.40842610  0.35805439  1
  O2-  O569  1  0.82799516  0.40519668  0.69623211  1
  O2-  O570  1  0.82965384  0.66020386  0.01974123  1
  O2-  O571  1  0.82208839  0.62646756  0.30597198  1
  O2-  O572  1  0.83055700  0.66635018  0.68836908  1
  O2-  O573  1  0.83998103  0.91497801  0.02262789  1
  O2-  O574  1  0.81654755  0.93499927  0.35706181  1
  O2-  O575  1  0.83559987  0.91453469  0.65817120  1
