# generated using pymatgen
data_H2O
_symmetry_space_group_name_H-M   'P 1'
_cell_length_a   17.99150371
_cell_length_b   17.98880115
_cell_length_c   21.98890834
_cell_angle_alpha   90.00643778
_cell_angle_beta   89.97523701
_cell_angle_gamma   119.98641443
_symmetry_Int_Tables_number   1
_chemical_formula_structural   H2O
_chemical_formula_sum   'H384 O192'
_cell_volume   6164.01061893
_cell_formula_units_Z   192
loop_
 _symmetry_equiv_pos_site_id
 _symmetry_equiv_pos_as_xyz
  1  'x, y, z'
loop_
 _atom_type_symbol
 _atom_type_oxidation_number
  H+  1.0
  O2-  -2.0
loop_
 _atom_site_type_symbol
 _atom_site_label
 _atom_site_symmetry_multiplicity
 _atom_site_fract_x
 _atom_site_fract_y
 _atom_site_fract_z
 _atom_site_occupancy
  H+  H0  1  0.39110729  0.09600181  0.50965574  1
  H+  H1  1  0.23671479  0.34186926  -0.01515919  1
  H+  H2  1  0.05671737  0.76466994  0.50034911  1
  H+  H3  1  0.88352321  0.76548082  0.00216459  1
  H+  H4  1  0.59883152  0.63620073  0.68106964  1
  H+  H5  1  1.02191504  0.38633464  0.67562174  1
  H+  H6  1  0.12206770  0.21598649  -0.00633944  1
  H+  H7  1  0.97839095  0.10804364  0.99594355  1
  H+  H8  1  0.12563423  0.86495489  0.83102085  1
  H+  H9  1  0.66064561  0.57555864  0.26835675  1
  H+  H10  1  0.60162955  0.23131100  0.33941854  1
  H+  H11  1  0.50523477  0.14765085  0.33820329  1
  H+  H12  1  0.40719909  0.12869195  0.53513788  1
  H+  H13  1  0.87000835  0.12425345  0.85582782  1
  H+  H14  1  0.07557895  0.18104066  0.42601050  1
  H+  H15  1  0.11187351  0.73145213  0.82497255  1
  H+  H16  1  0.21639439  0.60976969  -0.00785175  1
  H+  H17  1  0.13565674  0.85188525  0.32481822  1
  H+  H18  1  0.92308351  0.32923335  0.23510431  1
  H+  H19  1  0.35574852  0.87353276  1.00761665  1
  H+  H20  1  0.91589130  0.27827125  0.50521353  1
  H+  H21  1  0.87739864  0.73642367  0.83528074  1
  H+  H22  1  0.36988735  0.28295759  0.50554554  1
  H+  H23  1  0.13323189  0.85219466  0.17850832  1
  H+  H24  1  0.99131924  0.37547270  0.50765367  1
  H+  H25  1  0.26532135  0.39329246  0.67160413  1
  H+  H26  1  0.88903077  0.10777079  0.98933450  1
  H+  H27  1  0.35639944  0.38872277  0.82865197  1
  H+  H28  1  0.87459699  -0.01418777  0.49482571  1
  H+  H29  1  0.22056709  0.85044868  0.98353290  1
  H+  H30  1  0.90960232  0.83521281  0.60968971  1
  H+  H31  1  0.26392348  0.13859623  0.33156422  1
  H+  H32  1  0.35481502  -0.03663893  0.15963345  1
  H+  H33  1  0.35262970  0.62177277  1.00615099  1
  H+  H34  1  0.13800852  0.27348884  0.83153322  1
  H+  H35  1  0.58534481  -0.02674098  0.32996647  1
  H+  H36  1  0.11302335  0.22573328  0.66843622  1
  H+  H37  1  0.86593870  0.65573690  0.48723908  1
  H+  H38  1  0.59477606  0.37690394  0.67804428  1
  H+  H39  1  0.95419055  0.81864549  0.52044599  1
  H+  H40  1  0.60159585  0.37541385  0.50110225  1
  H+  H41  1  0.41154069  0.82729121  0.56768283  1
  H+  H42  1  0.77884935  0.39181017  0.16526870  1
  H+  H43  1  0.89396153  0.36045984  0.17640301  1
  H+  H44  1  0.64462972  0.28704740  0.17485778  1
  H+  H45  1  0.37109576  0.75407473  0.16650316  1
  H+  H46  1  0.89916962  0.23521835  0.14614515  1
  H+  H47  1  0.64318294  0.52094008  0.99348877  1
  H+  H48  1  0.49687155  0.87877550  0.84750187  1
  H+  H49  1  0.08462986  0.17839540  0.27269296  1
  H+  H50  1  0.62132344  0.14184089  0.81494981  1
  H+  H51  1  0.22580504  0.36498561  0.83276701  1
  H+  H52  1  0.16981213  0.12948842  0.16262585  1
  H+  H53  1  0.63835532  0.27339962  -0.00609403  1
  H+  H54  1  0.14270010  0.28514995  0.32883159  1
  H+  H55  1  0.64629047  0.57882380  0.57182722  1
  H+  H56  1  0.52000754  0.38381101  0.34249195  1
  H+  H57  1  0.71020556  0.61462086  0.66130233  1
  H+  H58  1  1.01234713  0.12650081  0.31915442  1
  H+  H59  1  0.85118136  0.72236463  0.66789067  1
  H+  H60  1  0.83683542  0.15687867  0.91009222  1
  H+  H61  1  0.71387042  0.34907465  0.52046921  1
  H+  H62  1  0.28541976  0.13541717  0.15078602  1
  H+  H63  1  0.11319572  0.64236877  0.82693273  1
  H+  H64  1  0.04515903  0.19539267  0.19766638  1
  H+  H65  1  0.91965163  0.83727464  0.09671012  1
  H+  H66  1  0.39362381  0.27465863  0.16961775  1
  H+  H67  1  0.54647638  0.75158426  0.46104345  1
  H+  H68  1  0.03168444  0.88529142  0.33769154  1
  H+  H69  1  0.85369539  0.37890956  0.67170599  1
  H+  H70  1  0.35356741  0.87338814  0.15646757  1
  H+  H71  1  0.13615572  0.52675118  0.83714400  1
  H+  H72  1  0.22655568  0.62104663  0.33059813  1
  H+  H73  1  0.87858799  0.85357453  -0.00167556  1
  H+  H74  1  1.02371046  0.63842118  1.00035809  1
  H+  H75  1  0.11740924  0.63600346  -0.00422241  1
  H+  H76  1  0.62629002  0.96442953  0.82767673  1
  H+  H77  1  0.44595577  0.85576999  0.32139483  1
  H+  H78  1  0.90770841  0.15792942  0.36505361  1
  H+  H79  1  1.04565324  0.15385230  0.19368506  1
  H+  H80  1  0.13470187  0.10867645  -0.00805363  1
  H+  H81  1  0.44354999  -0.02326926  0.53304223  1
  H+  H82  1  0.86851347  0.11025229  0.51152396  1
  H+  H83  1  0.88324457  0.27216406  0.65896616  1
  H+  H84  1  0.63146045  0.51546271  0.32871330  1
  H+  H85  1  0.10077668  -0.03446573  0.67476327  1
  H+  H86  1  0.35841791  0.90013666  0.34771944  1
  H+  H87  1  0.33114195  0.91329096  0.76527397  1
  H+  H88  1  0.39114586  0.10373850  0.64812216  1
  H+  H89  1  1.03108110  0.39748900  0.34358319  1
  H+  H90  1  0.08669260  0.67049217  0.40457418  1
  H+  H91  1  0.24583076  0.14333826  0.48719835  1
  H+  H92  1  0.14563128  0.51873880  0.65953668  1
  H+  H93  1  0.36054147  0.48827606  0.49561331  1
  H+  H94  1  0.98043280  0.11964352  0.66023617  1
  H+  H95  1  0.02855443  0.38802433  0.82793121  1
  H+  H96  1  0.89622621  0.52929715  -0.00552628  1
  H+  H97  1  0.65215457  0.79154450  0.50998506  1
  H+  H98  1  0.36873530  0.96452869  0.67749480  1
  H+  H99  1  0.87952192  0.89770062  0.49699833  1
  H+  H100  1  0.86571616  0.89062890  0.67487021  1
  H+  H101  1  0.51034182  0.01673463  0.18795388  1
  H+  H102  1  0.08310965  0.41539013  0.73478021  1
  H+  H103  1  0.53309742  0.14082893  0.81811542  1
  H+  H104  1  0.77620090  0.62828045  1.00617879  1
  H+  H105  1  0.58688639  0.68819703  0.77263652  1
  H+  H106  1  0.63660126  0.36688347  0.33096748  1
  H+  H107  1  0.60878821  0.62724943  0.34513509  1
  H+  H108  1  0.51519866  0.38031206  0.49713009  1
  H+  H109  1  0.61067119  0.86727738  0.82057608  1
  H+  H110  1  0.51889260  0.13293311  0.00509525  1
  H+  H111  1  0.78648289  0.14794022  0.31537954  1
  H+  H112  1  0.77078393  0.13931203  0.34806213  1
  H+  H113  1  1.00042879  0.69377636  0.21927700  1
  H+  H114  1  0.88754830  0.85542728  0.32977331  1
  H+  H115  1  0.38950197  0.74984310  0.65094374  1
  H+  H116  1  0.59260924  0.42814170  0.77334620  1
  H+  H117  1  0.13649144  0.01442027  0.31452364  1
  H+  H118  1  0.62467235  0.06035367  0.51179543  1
  H+  H119  1  -0.02492634  0.60430327  0.66579358  1
  H+  H120  1  0.88148994  0.76695091  0.14701709  1
  H+  H121  1  0.11370314  -0.03660381  0.81883478  1
  H+  H122  1  0.90054349  0.26936859  0.85439864  1
  H+  H123  1  0.11890760  0.49697992  0.49832911  1
  H+  H124  1  0.38135799  0.27659449  0.32458447  1
  H+  H125  1  0.21317631  0.10891662  0.64940039  1
  H+  H126  1  0.39180116  0.29139861  1.01417121  1
  H+  H127  1  0.22469448  0.61598908  0.83810344  1
  H+  H128  1  1.02502625  0.89135615  1.01259522  1
  H+  H129  1  0.89011461  0.35655456  0.33497327  1
  H+  H130  1  0.76265327  0.62480208  0.33410640  1
  H+  H131  1  0.38115938  0.37790843  0.65940363  1
  H+  H132  1  0.88905102  0.58314589  0.52007152  1
  H+  H133  1  0.73247256  0.15089040  0.14820066  1
  H+  H134  1  0.70842117  0.84968837  0.17350476  1
  H+  H135  1  0.37411183  0.13565987  0.83009687  1
  H+  H136  1  0.38841514  0.36858501  0.32577599  1
  H+  H137  1  0.58512024  -0.03115138  0.67819353  1
  H+  H138  1  0.74843027  0.87407152  0.50473594  1
  H+  H139  1  0.85259018  0.77655743  0.50885165  1
  H+  H140  1  0.38954795  0.10934012  0.16614179  1
  H+  H141  1  0.35318597  0.71032668  0.00936724  1
  H+  H142  1  0.88979865  0.36277093  0.99532210  1
  H+  H143  1  0.41808366  0.58459545  0.26895132  1
  H+  H144  1  0.73050714  0.07368090  0.65093406  1
  H+  H145  1  0.45676050  0.85147283  0.66363591  1
  H+  H146  1  0.59235782  0.11010973  0.32777117  1
  H+  H147  1  0.55759546  0.87816133  0.41739132  1
  H+  H148  1  0.62800780  0.02181925  0.99472044  1
  H+  H149  1  0.72817158  0.10343962  0.84888821  1
  H+  H150  1  0.52988774  0.39183614  0.00991805  1
  H+  H151  1  0.74143940  0.15021650  0.18150929  1
  H+  H152  1  0.36205830  0.63827393  0.33993282  1
  H+  H153  1  0.64476802  0.30583018  0.61333228  1
  H+  H154  1  0.61609675  0.47971037  0.16218923  1
  H+  H155  1  0.37459984  0.27029500  0.85005170  1
  H+  H156  1  0.01792101  0.62213139  0.49576910  1
  H+  H157  1  0.47514652  0.61761781  0.84166539  1
  H+  H158  1  0.63927335  0.61207773  0.17148201  1
  H+  H159  1  0.61295121  0.62303100  1.00274270  1
  H+  H160  1  0.72091927  0.85969647  1.00069188  1
  H+  H161  1  0.03004566  0.89086497  0.15895839  1
  H+  H162  1  0.38442637  0.37734755  0.50782011  1
  H+  H163  1  0.82241241  -0.04158169  0.83045828  1
  H+  H164  1  0.27258697  0.39830268  0.49426771  1
  H+  H165  1  0.37995447  0.09474181  0.98920199  1
  H+  H166  1  0.89694752  0.66342445  0.46172896  1
  H+  H167  1  0.72200781  0.66033486  0.48880081  1
  H+  H168  1  0.91610981  0.08847815  0.60217606  1
  H+  H169  1  0.51159405  0.38641491  0.67624797  1
  H+  H170  1  0.56491800  0.89171617  0.29193132  1
  H+  H171  1  0.96332694  0.12261864  0.50704734  1
  H+  H172  1  0.26845686  0.90161457  0.52468413  1
  H+  H173  1  0.86866597  0.63124439  0.00641379  1
  H+  H174  1  0.23043947  0.11179116  0.84179440  1
  H+  H175  1  0.14838562  0.37806557  0.17770134  1
  H+  H176  1  0.36304108  0.63191907  0.16151079  1
  H+  H177  1  0.18940027  0.90180466  0.62662807  1
  H+  H178  1  0.36784966  0.38839650  0.16218017  1
  H+  H179  1  0.87145441  0.47496504  0.16103474  1
  H+  H180  1  0.11802074  0.13544054  0.82410408  1
  H+  H181  1  0.56981148  0.68340519  0.43501371  1
  H+  H182  1  0.78045746  0.87785362  0.34403695  1
  H+  H183  1  0.64688961  0.85742710  0.33177641  1
  H+  H184  1  0.60812473  0.71720723  0.15715085  1
  H+  H185  1  0.86387739  0.60525134  0.33477883  1
  H+  H186  1  0.76983521  0.38299539  0.34457583  1
  H+  H187  1  0.76953025  0.13610289  0.99663712  1
  H+  H188  1  0.34922334  0.86910182  0.67615118  1
  H+  H189  1  0.86709848  0.13662789  0.67275256  1
  H+  H190  1  0.13687306  0.86487698  0.56663942  1
  H+  H191  1  0.89217711  0.35316951  0.84100872  1
  H+  H192  1  0.14197307  0.38454528  0.50875684  1
  H+  H193  1  0.46607947  0.63017017  0.50764121  1
  H+  H194  1  0.38646667  0.03631048  0.33054847  1
  H+  H195  1  0.36060197  0.47861703  1.00692694  1
  H+  H196  1  0.66630357  0.82530511  0.26942971  1
  H+  H197  1  0.60745558  0.70937384  0.00249331  1
  H+  H198  1  0.33362590  0.42365634  0.76698185  1
  H+  H199  1  0.71702282  0.07198490  0.49855185  1
  H+  H200  1  0.24125956  0.59913126  0.65414653  1
  H+  H201  1  0.64239988  0.27743155  0.83925478  1
  H+  H202  1  0.36480751  0.48122272  0.34039343  1
  H+  H203  1  0.60153253  0.14394399  0.15753385  1
  H+  H204  1  0.47515315  0.61216914  0.32963031  1
  H+  H205  1  0.03372549  0.39175895  0.16711086  1
  H+  H206  1  0.64139468  0.36369248  -0.00509473  1
  H+  H207  1  0.10920294  0.62895992  0.67604568  1
  H+  H208  1  0.60397306  0.88968684  0.48036020  1
  H+  H209  1  0.80778982  0.18629613  0.50660493  1
  H+  H210  1  0.99370412  0.86545249  0.83527149  1
  H+  H211  1  0.00653514  0.21091880  0.42951502  1
  H+  H212  1  0.13254207  1.01764482  -0.00455302  1
  H+  H213  1  0.36198011  -0.10956624  0.82728999  1
  H+  H214  1  0.91613471  0.28365116  0.34560070  1
  H+  H215  1  0.62702053  0.26106071  0.51547176  1
  H+  H216  1  0.12120158  0.40012175  0.34509573  1
  H+  H217  1  0.46681360  0.85057363  1.00089616  1
  H+  H218  1  0.85060199  0.63355649  0.66347535  1
  H+  H219  1  0.09169407  0.43604215  0.43822166  1
  H+  H220  1  0.85870608  0.45627555  0.50285060  1
  H+  H221  1  0.03217599  0.36646480  0.01098121  1
  H+  H222  1  0.34971787  0.18919850  -0.03134011  1
  H+  H223  1  0.37501278  0.11972669  0.32370422  1
  H+  H224  1  0.63023124  0.11202345  -0.00624403  1
  H+  H225  1  0.12927473  0.29267642  0.49880953  1
  H+  H226  1  0.64503100  0.53129582  0.84205159  1
  H+  H227  1  0.61471222  0.71807258  0.34059972  1
  H+  H228  1  0.17034728  0.26498919  0.15206350  1
  H+  H229  1  0.54410138  0.11817917  0.50217690  1
  H+  H230  1  0.13699208  0.53325758  0.33305429  1
  H+  H231  1  0.35498555  0.73263559  0.49332455  1
  H+  H232  1  0.62602088  0.51876665  0.51358119  1
  H+  H233  1  0.77806493  0.38763946  1.00617153  1
  H+  H234  1  0.32988308  0.86806678  0.50133766  1
  H+  H235  1  0.11520382  0.65023288  0.49747964  1
  H+  H236  1  0.63132766  0.40249807  0.82916590  1
  H+  H237  1  0.83326338  0.95912264  0.15882918  1
  H+  H238  1  0.76240783  0.37281946  0.67926145  1
  H+  H239  1  0.72803065  0.61053812  0.17325183  1
  H+  H240  1  0.87146859  0.64004889  0.16039737  1
  H+  H241  1  0.12168379  -0.02204092  0.16199205  1
  H+  H242  1  0.85561358  0.36819764  0.49460000  1
  H+  H243  1  0.57996236  0.94947288  0.15988431  1
  H+  H244  1  0.97270920  0.86389005  0.66839123  1
  H+  H245  1  0.40493390  0.59669794  0.56725351  1
  H+  H246  1  0.87042156  0.50825808  0.33618563  1
  H+  H247  1  0.61744818  0.84592683  0.17616835  1
  H+  H248  1  0.22592675  0.62500636  0.50746790  1
  H+  H249  1  0.86049727  0.97277441  0.00147849  1
  H+  H250  1  0.11116419  0.08534583  0.50000721  1
  H+  H251  1  0.11961588  0.73528385  -0.00952582  1
  H+  H252  1  0.47269316  0.60362119  0.99113041  1
  H+  H253  1  0.88188183  1.01305986  0.33133384  1
  H+  H254  1  0.08322322  0.86304499  0.48695087  1
  H+  H255  1  0.36051027  0.72603343  0.82517829  1
  H+  H256  1  0.84252279  0.87477442  0.14846015  1
  H+  H257  1  0.12404688  0.63806540  0.34362590  1
  H+  H258  1  0.11779009  0.38986768  0.82485995  1
  H+  H259  1  0.34659239  0.24571419  0.67791585  1
  H+  H260  1  0.35486950  0.64312549  0.49468977  1
  H+  H261  1  0.75645044  0.89959898  0.65631617  1
  H+  H262  1  0.39039502  0.37777660  1.00486048  1
  H+  H263  1  0.39144710  0.52282972  0.17655369  1
  H+  H264  1  0.60373973  0.88542300  0.00618994  1
  H+  H265  1  0.82479476  0.16111463  0.72743194  1
  H+  H266  1  0.46369223  0.85123367  0.50316708  1
  H+  H267  1  0.34744318  0.48752714  0.67303120  1
  H+  H268  1  0.12201683  0.73654677  0.33913745  1
  H+  H269  1  0.78759977  0.64850565  0.83848231  1
  H+  H270  1  0.39283380  0.02289222  0.83374456  1
  H+  H271  1  0.23412260  0.37256583  0.33394843  1
  H+  H272  1  0.16287785  0.58906390  0.92954212  1
  H+  H273  1  -0.02093064  0.10080789  0.83761164  1
  H+  H274  1  0.14687030  0.01323973  0.48266104  1
  H+  H275  1  0.65083680  0.81816282  1.05012942  1
  H+  H276  1  0.60260311  0.72613556  0.67761194  1
  H+  H277  1  0.62163256  0.52594293  0.66840176  1
  H+  H278  1  0.11815381  0.48298654  0.16218138  1
  H+  H279  1  0.36148696  0.63906750  0.82970850  1
  H+  H280  1  0.87529460  0.10469578  0.16617139  1
  H+  H281  1  0.21343441  0.84010137  0.17568795  1
  H+  H282  1  0.93851107  0.07303830  0.18376095  1
  H+  H283  1  0.98206890  0.62342504  0.84918296  1
  H+  H284  1  0.50007194  0.85768996  0.15613188  1
  H+  H285  1  0.13025230  0.36022465  0.66163648  1
  H+  H286  1  0.47992164  0.61053684  0.17416592  1
  H+  H287  1  0.36310914  0.76481261  0.32332746  1
  H+  H288  1  0.41165152  0.82329971  0.94135553  1
  H+  H289  1  0.57552654  0.16672929  0.43763735  1
  H+  H290  1  0.57875432  0.17136686  0.06441287  1
  H+  H291  1  0.18176734  0.31245475  0.92337362  1
  H+  H292  1  0.07748157  0.65970343  0.73323739  1
  H+  H293  1  0.16017157  0.82367100  0.92233635  1
  H+  H294  1  0.91619017  0.82871756  0.26926648  1
  H+  H295  1  0.67364303  0.02989348  0.58935005  1
  H+  H296  1  0.92442680  0.33662811  0.93608069  1
  H+  H297  1  0.86118727  0.22854804  -0.00588983  1
  H+  H298  1  0.41808633  0.33189493  0.23102477  1
  H+  H299  1  0.34250257  0.16620105  0.09056885  1
  H+  H300  1  0.65446370  0.07320964  0.89591498  1
  H+  H301  1  0.25877575  0.12135868  -0.00436362  1
  H+  H302  1  0.40113325  0.33357690  0.90699890  1
  H+  H303  1  0.17110667  0.59127323  0.56948858  1
  H+  H304  1  0.67227542  0.33371411  0.90032538  1
  H+  H305  1  0.66996337  0.34109916  0.27079513  1
  H+  H306  1  0.17961750  0.08594381  0.22417394  1
  H+  H307  1  0.10801169  0.13332155  0.66291002  1
  H+  H308  1  0.33152232  0.66948871  0.39923390  1
  H+  H309  1  0.67543554  0.10328932  0.31108213  1
  H+  H310  1  0.31578034  0.17487539  0.39409424  1
  H+  H311  1  0.88147973  0.51771897  0.66706603  1
  H+  H312  1  0.16229416  0.33623181  0.60031854  1
  H+  H313  1  0.46899176  0.93281708  0.88652136  1
  H+  H314  1  0.79580436  0.91268981  0.76774970  1
  H+  H315  1  0.67202826  0.58339813  0.93430070  1
  H+  H316  1  0.08468533  0.16136159  0.76416202  1
  H+  H317  1  0.92538318  0.59282021  0.93360695  1
  H+  H318  1  0.21792101  0.86309117  0.83713168  1
  H+  H319  1  0.52218358  0.15471929  0.15891075  1
  H+  H320  1  0.15565571  0.07330836  0.58919672  1
  H+  H321  1  0.92223027  0.58640978  0.28047041  1
  H+  H322  1  0.28169421  0.39559097  0.16683529  1
  H+  H323  1  0.92655301  0.06846179  0.90010903  1
  H+  H324  1  0.33678960  0.42417841  0.40126406  1
  H+  H325  1  0.87261846  -0.01456106  0.67470633  1
  H+  H326  1  0.85586090  0.71348344  0.33434811  1
  H+  H327  1  0.46395756  0.04584425  0.58408483  1
  H+  H328  1  0.89439807  0.62720945  0.85258795  1
  H+  H329  1  0.57042817  0.90895629  0.06565703  1
  H+  H330  1  0.32413875  0.90686680  0.06369404  1
  H+  H331  1  0.16501494  0.08006339  0.89709766  1
  H+  H332  1  0.22357824  0.25002708  0.10207340  1
  H+  H333  1  0.78450962  0.68739703  0.43214517  1
  H+  H334  1  0.39570245  0.81659597  0.22548461  1
  H+  H335  1  0.33731048  0.93320265  0.40911216  1
  H+  H336  1  0.08997971  0.92293387  0.06857782  1
  H+  H337  1  0.88877123  0.06808105  0.27210886  1
  H+  H338  1  0.60755784  0.21707022  0.72224512  1
  H+  H339  1  0.33418264  0.42357394  0.06949030  1
  H+  H340  1  0.33878884  0.15402277  0.48637089  1
  H+  H341  1  0.64327889  0.62060661  0.84583842  1
  H+  H342  1  0.12915516  0.10084134  0.31107621  1
  H+  H343  1  0.77902541  0.37152527  0.83116495  1
  H+  H344  1  0.55256854  0.91818165  0.73992338  1
  H+  H345  1  0.09284063  0.39984311  0.06655883  1
  H+  H346  1  0.38684905  0.52669453  0.83752527  1
  H+  H347  1  0.59129989  0.41911926  0.06772130  1
  H+  H348  1  0.69238052  -0.05765777  0.63653806  1
  H+  H349  1  0.09496225  0.17294651  0.05917228  1
  H+  H350  1  0.40708193  0.34113159  0.60145677  1
  H+  H351  1  0.68831471  0.80642326  0.82952210  1
  H+  H352  1  0.94148357  0.84229022  0.89836969  1
  H+  H353  1  0.58743253  0.05037545  0.23398627  1
  H+  H354  1  0.41227442  0.57811842  0.93215070  1
  H+  H355  1  0.19761542  0.95667132  0.45361302  1
  H+  H356  1  0.38570702  0.00930139  0.99186963  1
  H+  H357  1  0.15996225  0.81397330  0.26654888  1
  H+  H358  1  0.83333874  0.65271177  0.09653036  1
  H+  H359  1  0.83765513  0.41636233  0.06514952  1
  H+  H360  1  0.32572617  0.65211338  0.10163241  1
  H+  H361  1  1.00096715  0.61538505  0.19230101  1
  H+  H362  1  0.07859914  0.90546943  0.73492226  1
  H+  H363  1  0.10979161  0.93177537  0.38823835  1
  H+  H364  1  0.17860287  0.34897327  0.23808576  1
  H+  H365  1  0.34062223  0.17052980  0.77542916  1
  H+  H366  1  0.58181441  0.65652327  0.09685801  1
  H+  H367  1  0.57765858  0.41064575  0.40356942  1
  H+  H368  1  0.91910081  0.33392176  0.60136803  1
  H+  H369  1  0.87588407  0.18330829  0.42701719  1
  H+  H370  1  0.26653676  0.20281173  0.72037862  1
  H+  H371  1  0.42566179  0.07813453  0.89497352  1
  H+  H372  1  0.84395045  0.91397800  0.40230176  1
  H+  H373  1  0.83435654  0.39763788  0.77053048  1
  H+  H374  1  0.41259860  0.08437424  0.23044735  1
  H+  H375  1  0.52811791  0.38895908  0.16163231  1
  H+  H376  1  0.86664923  0.17679074  0.08575069  1
  H+  H377  1  0.82186527  0.91291765  0.06034041  1
  H+  H378  1  0.92080479  0.56085954  0.58056915  1
  H+  H379  1  0.64599235  0.37602574  0.17550035  1
  H+  H380  1  0.45273141  0.62939198  0.66738161  1
  H+  H381  1  0.48819426  0.13509282  0.66307725  1
  H+  H382  1  0.82834850  0.41056001  0.40531326  1
  H+  H383  1  0.69417873  0.86898736  0.58965710  1
  O2-  O384  1  0.17227958  0.21912600  0.12701630  1
  O2-  O385  1  0.04988154  0.20343228  0.45431503  1
  O2-  O386  1  0.08501451  0.16367832  0.80937361  1
  O2-  O387  1  0.09488014  0.42154400  0.15372303  1
  O2-  O388  1  0.09040705  0.43520125  0.48379139  1
  O2-  O389  1  0.08766412  0.42050673  0.80975941  1
  O2-  O390  1  0.07684937  0.60613181  0.15407195  1
  O2-  O391  1  0.07438402  0.66642054  0.47889243  1
  O2-  O392  1  0.08092521  0.66979726  0.81081250  1
  O2-  O393  1  0.09191368  0.91588213  0.15087602  1
  O2-  O394  1  0.14139671  0.95239032  0.45218143  1
  O2-  O395  1  0.08428829  0.90343984  0.80521482  1
  O2-  O396  1  0.34617789  0.16872450  0.13540910  1
  O2-  O397  1  0.30807630  0.18263111  0.47162493  1
  O2-  O398  1  0.34123754  0.16560110  0.82011968  1
  O2-  O399  1  0.34023866  0.42154169  0.14782773  1
  O2-  O400  1  0.33333974  0.42819200  0.47945686  1
  O2-  O401  1  0.33227140  0.42476725  0.81218330  1
  O2-  O402  1  0.33086537  0.65972994  0.14666542  1
  O2-  O403  1  0.32548350  0.67271370  0.47635906  1
  O2-  O404  1  0.32756459  0.66544618  0.81512526  1
  O2-  O405  1  0.32327929  0.90461318  0.14270895  1
  O2-  O406  1  0.30407107  0.90315140  0.48960634  1
  O2-  O407  1  0.33345134  0.92091550  0.81135079  1
  O2-  O408  1  0.58298085  0.18471216  0.14398249  1
  O2-  O409  1  0.59173335  0.16837844  0.48077892  1
  O2-  O410  1  0.59308156  0.17462811  0.80234281  1
  O2-  O411  1  0.58885637  0.41911231  0.14688171  1
  O2-  O412  1  0.57521640  0.40657479  0.48151793  1
  O2-  O413  1  0.60322191  0.43587114  0.81753540  1
  O2-  O414  1  0.58307349  0.65690447  0.14249919  1
  O2-  O415  1  0.55900485  0.70580738  0.47346281  1
  O2-  O416  1  0.59188259  0.68554233  0.81846020  1
  O2-  O417  1  0.56307296  0.89148636  0.14355928  1
  O2-  O418  1  0.55020134  0.85329142  0.45821324  1
  O2-  O419  1  0.58616910  0.90484531  0.81320818  1
  O2-  O420  1  0.88975291  0.18128365  0.12706609  1
  O2-  O421  1  0.81962624  0.14791180  0.48262842  1
  O2-  O422  1  0.83763687  0.15576654  0.86522032  1
  O2-  O423  1  0.83871725  0.41505777  0.14860548  1
  O2-  O424  1  0.82438677  0.39856292  0.48275216  1
  O2-  O425  1  0.83658642  0.38774851  0.81450037  1
  O2-  O426  1  0.83328570  0.65893227  0.14292408  1
  O2-  O427  1  0.76661306  0.71132476  0.46520479  1
  O2-  O428  1  0.84758568  0.67353295  0.82508327  1
  O2-  O429  1  0.80529734  0.90025107  0.14022322  1
  O2-  O430  1  0.84995075  0.92647411  0.47747151  1
  O2-  O431  1  0.77367510  0.91077508  0.80908243  1
  O2-  O432  1  0.18431500  0.08645730  0.17852302  1
  O2-  O433  1  0.15699766  0.07425669  0.51126560  1
  O2-  O434  1  0.16855496  0.08508488  0.85193451  1
  O2-  O435  1  0.18115565  0.34925405  0.19283170  1
  O2-  O436  1  0.16686571  0.34732935  0.52041358  1
  O2-  O437  1  0.16521964  0.33319319  0.84785380  1
  O2-  O438  1  0.13214680  0.59251953  0.17938593  1
  O2-  O439  1  0.16590369  0.59551341  0.52402759  1
  O2-  O440  1  0.16384372  0.58675606  0.85290453  1
  O2-  O441  1  0.15501652  0.81444840  0.19335796  1
  O2-  O442  1  0.04868793  0.81199682  0.51489016  1
  O2-  O443  1  0.15793522  0.83178550  0.85137804  1
  O2-  O444  1  0.41907376  0.08066669  0.18532512  1
  O2-  O445  1  0.48872266  0.03169639  0.54881011  1
  O2-  O446  1  0.42831223  0.08339771  0.84980487  1
  O2-  O447  1  0.42094050  0.33443196  0.18542286  1
  O2-  O448  1  0.40846019  0.34103494  0.52308006  1
  O2-  O449  1  0.38843227  0.32843176  0.86320506  1
  O2-  O450  1  0.42134466  0.58313184  0.19232889  1
  O2-  O451  1  0.40577271  0.59158806  0.52207123  1
  O2-  O452  1  0.41481604  0.58610850  0.85554854  1
  O2-  O453  1  0.40203040  0.81757095  0.18036919  1
  O2-  O454  1  0.40746140  0.83422237  0.52206597  1
  O2-  O455  1  0.44576843  0.87506601  0.87001102  1
  O2-  O456  1  0.57170513  0.03634915  0.18989761  1
  O2-  O457  1  0.65913434  0.03251790  0.51754207  1
  O2-  O458  1  0.66405113  0.07233584  0.85125814  1
  O2-  O459  1  0.67716216  0.34663093  0.19159970  1
  O2-  O460  1  0.65395691  0.31959607  0.53566726  1
  O2-  O461  1  0.67478639  0.33707744  0.85507207  1
  O2-  O462  1  0.66830673  0.58182674  0.18949331  1
  O2-  O463  1  0.64634636  0.57829333  0.52671367  1
  O2-  O464  1  0.67245788  0.59073676  0.86158125  1
  O2-  O465  1  0.64983046  0.81814816  0.19255446  1
  O2-  O466  1  0.69047106  0.85138663  0.52415743  1
  O2-  O467  1  0.62611548  0.77371267  0.84117400  1
  O2-  O468  1  0.87872206  0.05732230  0.19079043  1
  O2-  O469  1  0.90719525  0.08478379  0.52632586  1
  O2-  O470  1  0.91984935  0.06928110  0.85515256  1
  O2-  O471  1  0.92666863  0.33250210  0.19005708  1
  O2-  O472  1  0.93029992  0.33477333  0.52138501  1
  O2-  O473  1  0.93087248  0.33255955  0.85990124  1
  O2-  O474  1  0.96157591  0.63225188  0.21307309  1
  O2-  O475  1  0.91995049  0.55415185  0.53338528  1
  O2-  O476  1  0.92502845  0.59692279  0.86962003  1
  O2-  O477  1  0.91029566  0.83109638  0.14111402  1
  O2-  O478  1  0.90376588  0.82596272  0.52900347  1
  O2-  O479  1  0.93339236  0.84071308  0.85443798  1
  O2-  O480  1  0.16583192  0.07626293  0.29954666  1
  O2-  O481  1  0.15345489  0.07775363  0.63466127  1
  O2-  O482  1  0.16569320  0.07868450  0.97743018  1
  O2-  O483  1  0.17329826  0.34648824  0.31803100  1
  O2-  O484  1  0.16237070  0.33163048  0.64556004  1
  O2-  O485  1  0.19620411  0.29133936  0.96083885  1
  O2-  O486  1  0.16454555  0.59427371  0.31959665  1
  O2-  O487  1  0.17952931  0.57854040  0.64390578  1
  O2-  O488  1  0.15850056  0.59037691  0.97490852  1
  O2-  O489  1  0.15973716  0.81468040  0.31274368  1
  O2-  O490  1  0.19597869  0.90042745  0.58261595  1
  O2-  O491  1  0.16112190  0.81591268  0.96846395  1
  O2-  O492  1  0.40844748  0.09288566  0.30828522  1
  O2-  O493  1  0.43282532  0.08442021  0.65127019  1
  O2-  O494  1  0.41649860  0.07046818  0.97655621  1
  O2-  O495  1  0.41720700  0.33722797  0.30979287  1
  O2-  O496  1  0.40691384  0.34201113  0.64708520  1
  O2-  O497  1  0.42195920  0.34597526  0.99243463  1
  O2-  O498  1  0.41462311  0.58376828  0.31468002  1
  O2-  O499  1  0.39638915  0.59914354  0.64599351  1
  O2-  O500  1  0.41162189  0.57621300  0.97780844  1
  O2-  O501  1  0.38715756  0.82403267  0.30539121  1
  O2-  O502  1  0.40425534  0.81002050  0.64005253  1
  O2-  O503  1  0.40605013  0.81680446  0.98626836  1
  O2-  O504  1  0.61261868  0.07102917  0.30771885  1
  O2-  O505  1  0.68232812  0.02003587  0.63394701  1
  O2-  O506  1  0.65933076  0.08103731  0.97752727  1
  O2-  O507  1  0.66772462  0.33685143  0.31623655  1
  O2-  O508  1  0.64408941  0.30854670  0.65957168  1
  O2-  O509  1  0.67253688  0.33417334  0.98002928  1
  O2-  O510  1  0.66217110  0.57645825  0.31387372  1
  O2-  O511  1  0.64607416  0.58598373  0.65387108  1
  O2-  O512  1  0.67261564  0.58247879  0.98061726  1
  O2-  O513  1  0.67417019  0.82638417  0.31489597  1
  O2-  O514  1  0.69687358  0.88658613  0.63557165  1
  O2-  O515  1  0.65637078  0.82560918  1.00608799  1
  O2-  O516  1  0.90701352  0.07320600  0.31537956  1
  O2-  O517  1  0.91795223  0.08908041  0.64805785  1
  O2-  O518  1  0.91808206  0.07446606  0.97964381  1
  O2-  O519  1  0.92621641  0.33348775  0.31943165  1
  O2-  O520  1  0.91409084  0.33349687  0.64651047  1
  O2-  O521  1  0.91577945  0.32804445  0.98128294  1
  O2-  O522  1  0.89816924  0.57220775  0.32317273  1
  O2-  O523  1  0.91439627  0.57536250  0.64801184  1
  O2-  O524  1  0.92522979  0.59077196  0.98260035  1
  O2-  O525  1  0.91486376  0.82212226  0.31333459  1
  O2-  O526  1  0.90998454  0.83857984  0.65491607  1
  O2-  O527  1  0.91745714  0.82922603  0.99799583  1
  O2-  O528  1  0.08070250  0.15962871  0.01589981  1
  O2-  O529  1  0.07728320  0.16246409  0.31577823  1
  O2-  O530  1  0.08147236  0.16479422  0.68296169  1
  O2-  O531  1  0.08764452  0.37554413  0.02578765  1
  O2-  O532  1  0.09065043  0.42985572  0.36038560  1
  O2-  O533  1  0.08283390  0.41301271  0.68873352  1
  O2-  O534  1  0.08759816  0.67098382  0.01118452  1
  O2-  O535  1  0.09165780  0.67125780  0.35855026  1
  O2-  O536  1  0.07238751  0.65243979  0.68797508  1
  O2-  O537  1  0.08595587  0.92889483  0.02426065  1
  O2-  O538  1  0.09459487  0.91871898  0.34222656  1
  O2-  O539  1  0.07218270  0.90528232  0.68783969  1
  O2-  O540  1  0.32487399  0.15313889  0.00453900  1
  O2-  O541  1  0.32305543  0.17299249  0.34904479  1
  O2-  O542  1  0.30636756  0.18980303  0.69923009  1
  O2-  O543  1  0.33415325  0.41891044  0.02430590  1
  O2-  O544  1  0.33545011  0.42027757  0.35570465  1
  O2-  O545  1  0.32636194  0.42739094  0.68603732  1
  O2-  O546  1  0.32099639  0.64947187  0.02314485  1
  O2-  O547  1  0.33099088  0.66837837  0.35360379  1
  O2-  O548  1  0.35134771  0.64357242  0.66760862  1
  O2-  O549  1  0.32869562  0.90868680  0.01826348  1
  O2-  O550  1  0.36654755  0.95160961  0.36934830  1
  O2-  O551  1  0.32908424  0.90681602  0.69308654  1
  O2-  O552  1  0.57991427  0.16658045  0.01926676  1
  O2-  O553  1  0.56544294  0.17109345  0.35447334  1
  O2-  O554  1  0.60021249  0.21709066  0.67713640  1
  O2-  O555  1  0.59135034  0.41792563  0.02227782  1
  O2-  O556  1  0.58046750  0.41331157  0.35785634  1
  O2-  O557  1  0.57222133  0.41451595  0.69057415  1
  O2-  O558  1  0.57824678  0.64968460  0.01802325  1
  O2-  O559  1  0.57966654  0.65959455  0.35796370  1
  O2-  O560  1  0.57066050  0.66983219  0.69670476  1
  O2-  O561  1  0.57215480  0.91473960  0.02023931  1
  O2-  O562  1  0.56835265  0.91065809  0.33397167  1
  O2-  O563  1  0.53284622  0.93289515  0.70225209  1
  O2-  O564  1  0.83317770  0.16355013  0.00036069  1
  O2-  O565  1  0.92245525  0.20705109  0.39238333  1
  O2-  O566  1  0.82871666  0.16137283  0.68320683  1
  O2-  O567  1  0.83916905  0.41842997  0.02016231  1
  O2-  O568  1  0.83090030  0.41520293  0.35948145  1
  O2-  O569  1  0.82383473  0.40799210  0.68948933  1
  O2-  O570  1  0.83529729  0.65833487  0.02426551  1
  O2-  O571  1  0.82397172  0.65313393  0.34953662  1
  O2-  O572  1  0.81359836  0.65921830  0.66720823  1
  O2-  O573  1  0.82516672  0.91117006  0.01520810  1
  O2-  O574  1  0.84194318  0.91001114  0.35636403  1
  O2-  O575  1  0.83455927  0.92379399  0.68630885  1
