# generated using pymatgen
data_H2O
_symmetry_space_group_name_H-M   'P 1'
_cell_length_a   17.99063716
_cell_length_b   17.98745211
_cell_length_c   22.00540425
_cell_angle_alpha   89.97189632
_cell_angle_beta   90.03251495
_cell_angle_gamma   120.00620332
_symmetry_Int_Tables_number   1
_chemical_formula_structural   H2O
_chemical_formula_sum   'H384 O192'
_cell_volume   6166.64496554
_cell_formula_units_Z   192
loop_
 _symmetry_equiv_pos_site_id
 _symmetry_equiv_pos_as_xyz
  1  'x, y, z'
loop_
 _atom_type_symbol
 _atom_type_oxidation_number
  H+  1.0
  O2-  -2.0
loop_
 _atom_site_type_symbol
 _atom_site_label
 _atom_site_symmetry_multiplicity
 _atom_site_fract_x
 _atom_site_fract_y
 _atom_site_fract_z
 _atom_site_occupancy
  H+  H0  1  0.15587525  0.35726922  0.89673723  1
  H+  H1  1  0.78461633  0.37873916  -0.00406053  1
  H+  H2  1  0.11603448  0.63974260  0.67362637  1
  H+  H3  1  0.20764695  0.84225801  0.17432246  1
  H+  H4  1  0.74018931  0.86322105  0.17532456  1
  H+  H5  1  0.35228251  0.72572198  0.50082121  1
  H+  H6  1  0.97913160  0.36991209  0.31345647  1
  H+  H7  1  0.64181786  0.86328491  0.65602094  1
  H+  H8  1  0.64674871  1.03684904  0.83276732  1
  H+  H9  1  0.38361890  0.61589349  0.33012907  1
  H+  H10  1  1.02784743  0.88486774  0.66573909  1
  H+  H11  1  0.24735557  0.63062233  0.15860217  1
  H+  H12  1  0.63724043  0.10528323  0.50849383  1
  H+  H13  1  -0.01536365  0.62670484  0.66633130  1
  H+  H14  1  1.03319922  0.80014995  0.20453541  1
  H+  H15  1  0.74773969  0.61454563  0.17613385  1
  H+  H16  1  0.13082181  0.40321121  0.84539013  1
  H+  H17  1  0.60663609  0.37698225  -0.00010435  1
  H+  H18  1  0.37563655  0.61664994  0.67159407  1
  H+  H19  1  0.86910798  0.25672931  0.82359919  1
  H+  H20  1  0.64698690  1.03208779  -0.01234196  1
  H+  H21  1  0.46076457  0.19730317  0.26893884  1
  H+  H22  1  0.58326321  0.66675786  0.76379261  1
  H+  H23  1  0.10907064  0.10560154  0.83246294  1
  H+  H24  1  0.52870980  0.92007513  0.18087134  1
  H+  H25  1  0.86452695  0.73690932  0.83386855  1
  H+  H26  1  0.39013339  0.26571912  0.83337300  1
  H+  H27  1  0.62811061  0.85802207  0.32625064  1
  H+  H28  1  0.38051206  0.02047399  0.83566704  1
  H+  H29  1  0.13982193  0.77611320  0.66156640  1
  H+  H30  1  0.89146790  0.99352803  0.16304401  1
  H+  H31  1  0.93270914  0.64467162  0.61693559  1
  H+  H32  1  0.31760874  0.60015087  0.15568281  1
  H+  H33  1  0.86407000  0.46908732  0.66017881  1
  H+  H34  1  0.01356147  0.86475157  0.48589703  1
  H+  H35  1  0.13178224  0.02413495  0.98777376  1
  H+  H36  1  0.36684544  0.23150572  0.67659206  1
  H+  H37  1  0.65370899  0.51754492  0.99477027  1
  H+  H38  1  0.12577579  0.26298622  0.48096193  1
  H+  H39  1  0.77305089  0.64911484  0.34298854  1
  H+  H40  1  0.34970555  0.70924808  0.66250125  1
  H+  H41  1  0.01723734  0.46916558  0.79414713  1
  H+  H42  1  0.86770773  0.37929812  0.49041100  1
  H+  H43  1  0.00873335  0.61545007  0.13816609  1
  H+  H44  1  0.36836385  0.14583390  0.50057840  1
  H+  H45  1  0.62492339  0.89674985  -0.00915846  1
  H+  H46  1  0.46476871  0.52737958  0.55763912  1
  H+  H47  1  0.13120733  0.86942107  0.82201483  1
  H+  H48  1  0.48232374  0.11829843  -0.01435516  1
  H+  H49  1  0.85377241  0.36580654  0.15538716  1
  H+  H50  1  0.31552046  0.75492305  0.21069708  1
  H+  H51  1  0.89684270  0.36172008  0.86406316  1
  H+  H52  1  0.98396176  0.09817231  0.84219741  1
  H+  H53  1  0.10363023  0.34046711  0.16678869  1
  H+  H54  1  0.02568063  0.14742610  0.48804651  1
  H+  H55  1  0.35879729  -0.02736529  0.34868980  1
  H+  H56  1  0.36791745  0.32689313  0.13467286  1
  H+  H57  1  0.88829528  0.36675427  0.32435731  1
  H+  H58  1  0.58416281  0.40564697  0.06314534  1
  H+  H59  1  0.18866612  0.71920263  0.21682102  1
  H+  H60  1  0.39873856  0.51555426  0.50863491  1
  H+  H61  1  0.61647979  0.38056562  0.34096476  1
  H+  H62  1  0.57230792  0.88142709  0.82271955  1
  H+  H63  1  0.11921295  0.75161246  0.16529721  1
  H+  H64  1  0.63657023  0.27220222  0.66349771  1
  H+  H65  1  0.13335690  0.61327516  -0.02184405  1
  H+  H66  1  0.66067363  0.91378386  0.14128693  1
  H+  H67  1  0.34304949  -0.03455393  0.16104057  1
  H+  H68  1  0.39398074  0.35670489  0.15967601  1
  H+  H69  1  0.22183113  0.62144330  0.83008767  1
  H+  H70  1  0.33911937  0.87531475  0.16589343  1
  H+  H71  1  0.42593033  0.84486583  0.92765385  1
  H+  H72  1  0.88978447  0.85519383  0.65210875  1
  H+  H73  1  0.35981002  0.38874865  0.33754663  1
  H+  H74  1  0.60831478  0.73041981  0.16052227  1
  H+  H75  1  0.87913550  1.02296672  -0.00276014  1
  H+  H76  1  0.42420928  0.34177332  0.60709298  1
  H+  H77  1  0.66290569  0.32747957  0.60176208  1
  H+  H78  1  0.28000755  0.15027053  0.50099925  1
  H+  H79  1  0.79615491  0.13332938  0.15967186  1
  H+  H80  1  0.13992934  0.36721848  0.46379071  1
  H+  H81  1  0.10924186  0.47818594  0.67411158  1
  H+  H82  1  0.65162027  0.76620541  0.83063196  1
  H+  H83  1  0.38231151  0.77411151  0.34243759  1
  H+  H84  1  0.89772320  0.59291747  0.40246261  1
  H+  H85  1  0.67256065  0.86333738  0.82708037  1
  H+  H86  1  0.59979439  0.73810362  1.00018175  1
  H+  H87  1  0.89303884  0.11795944  0.50050324  1
  H+  H88  1  0.82112910  0.66267449  0.74253925  1
  H+  H89  1  0.78536478  0.61151605  0.49069517  1
  H+  H90  1  0.84435844  0.91817771  0.71937657  1
  H+  H91  1  0.61766372  0.14060250  0.67751947  1
  H+  H92  1  0.72929682  0.35628228  0.50740240  1
  H+  H93  1  0.67378380  0.08941459  0.60230249  1
  H+  H94  1  0.08629222  0.91904637  0.72604317  1
  H+  H95  1  0.98969866  0.35838291  0.49046145  1
  H+  H96  1  0.47882532  0.36625843  0.34292751  1
  H+  H97  1  0.86043342  0.46919867  0.84766384  1
  H+  H98  1  0.27169722  0.14396692  0.34963836  1
  H+  H99  1  0.77765182  0.38040540  0.66076175  1
  H+  H100  1  0.63434542  0.26282940  0.97112053  1
  H+  H101  1  0.77498363  0.64885632  0.84169685  1
  H+  H102  1  0.12667855  0.35624553  0.99385939  1
  H+  H103  1  0.38750769  0.86997462  0.51730700  1
  H+  H104  1  0.23560872  0.60592616  0.99196055  1
  H+  H105  1  0.13641491  0.03034637  0.33429038  1
  H+  H106  1  0.88587351  0.61701416  0.84407080  1
  H+  H107  1  0.87654154  -0.01991313  0.81739268  1
  H+  H108  1  0.11207239  0.64302657  0.82502635  1
  H+  H109  1  0.62453647  0.38098090  0.15876239  1
  H+  H110  1  0.27279731  0.88636979  0.50343810  1
  H+  H111  1  0.63719090  0.60614875  0.32430172  1
  H+  H112  1  0.02087375  0.64049770  0.82565951  1
  H+  H113  1  0.39769592  0.14748889  0.32159912  1
  H+  H114  1  0.27278140  0.64218699  0.34758160  1
  H+  H115  1  0.37355976  0.20950205  0.17999948  1
  H+  H116  1  0.35902629  0.65440438  0.82125152  1
  H+  H117  1  0.83084699  0.41109503  0.40202567  1
  H+  H118  1  0.76528343  0.36884992  0.15553354  1
  H+  H119  1  0.63474105  0.52309393  0.65965854  1
  H+  H120  1  0.96407435  0.82183498  0.23609850  1
  H+  H121  1  0.90157818  0.11135769  0.83630509  1
  H+  H122  1  0.92633389  1.13084258  0.16512127  1
  H+  H123  1  0.52673437  0.15006291  0.33401586  1
  H+  H124  1  0.23114908  0.11572470  0.66129833  1
  H+  H125  1  0.60496782  0.12947123  0.33702136  1
  H+  H126  1  0.35568330  0.47579436  0.33606671  1
  H+  H127  1  0.01804622  0.62245579  0.49911637  1
  H+  H128  1  0.12446431  0.53115857  0.82869937  1
  H+  H129  1  0.52733654  0.13881584  0.67902355  1
  H+  H130  1  0.89677844  0.11378200  0.65294957  1
  H+  H131  1  0.85652402  -0.02031265  0.48630422  1
  H+  H132  1  0.22016297  0.36752289  -0.01388908  1
  H+  H133  1  0.22119620  0.86058331  0.33333504  1
  H+  H134  1  0.89464216  0.02361126  0.64930150  1
  H+  H135  1  0.89431688  0.79035035  0.31686680  1
  H+  H136  1  0.88177712  0.23355371  0.65916091  1
  H+  H137  1  0.07632019  0.52518191  0.21889116  1
  H+  H138  1  0.48025857  0.36776414  0.50934015  1
  H+  H139  1  0.34826163  0.88875278  0.81990186  1
  H+  H140  1  0.10805554  0.72764133  0.34840386  1
  H+  H141  1  0.59304457  0.62661314  0.82760588  1
  H+  H142  1  0.63134440  0.26179973  0.17010654  1
  H+  H143  1  0.60673421  0.63404054  0.66939372  1
  H+  H144  1  0.62099698  0.47209149  0.34415130  1
  H+  H145  1  0.37825956  0.54371078  0.84051478  1
  H+  H146  1  0.87560454  0.60786232  0.49414594  1
  H+  H147  1  0.79582474  0.12753530  1.00844388  1
  H+  H148  1  0.14784056  0.24521273  0.03253938  1
  H+  H149  1  0.52011711  0.12877438  0.14709229  1
  H+  H150  1  0.85633565  0.47847448  0.34880091  1
  H+  H151  1  0.13216019  0.77897489  0.82649530  1
  H+  H152  1  0.61883479  0.46630110  0.16151083  1
  H+  H153  1  0.12926480  0.47867793  0.45010261  1
  H+  H154  1  0.23849811  0.37865351  0.15071822  1
  H+  H155  1  0.33610222  0.43695432  0.78622507  1
  H+  H156  1  0.35693346  0.48249975  -0.00264656  1
  H+  H157  1  0.37869500  0.39757262  0.69017117  1
  H+  H158  1  0.10335207  0.22316517  0.33652440  1
  H+  H159  1  0.26672024  0.63513811  0.49817134  1
  H+  H160  1  0.66145493  0.61652426  0.18491894  1
  H+  H161  1  0.86062820  0.22936730  0.33632615  1
  H+  H162  1  0.62137412  0.38986553  0.67557781  1
  H+  H163  1  0.44273903  0.60165143  0.17141145  1
  H+  H164  1  0.07995744  0.14444607  0.77791651  1
  H+  H165  1  0.86375749  0.88442583  1.00779674  1
  H+  H166  1  0.15986484  0.27054143  0.65725010  1
  H+  H167  1  0.86692673  0.22579775  0.49115238  1
  H+  H168  1  0.73062527  0.86130553  0.99236133  1
  H+  H169  1  0.89777111  0.35989428  0.64133894  1
  H+  H170  1  0.89288281  0.77852010  0.98937929  1
  H+  H171  1  0.27549914  0.89112261  0.66820487  1
  H+  H172  1  0.63972916  0.26837418  0.32827886  1
  H+  H173  1  0.85194762  0.98695815  0.33936017  1
  H+  H174  1  0.15838121  0.16538251  0.04154641  1
  H+  H175  1  0.12877980  0.36060976  0.31608317  1
  H+  H176  1  0.76415118  0.89098943  0.48872575  1
  H+  H177  1  0.00796003  0.37339975  0.15727793  1
  H+  H178  1  0.88847161  0.51868658  0.99167811  1
  H+  H179  1  1.01660516  0.64092686  0.35617576  1
  H+  H180  1  0.60906245  0.88000717  0.49640168  1
  H+  H181  1  0.37289084  0.48341764  0.68863296  1
  H+  H182  1  0.13164488  0.61497509  0.33962613  1
  H+  H183  1  0.51848079  0.63803982  0.67517536  1
  H+  H184  1  0.45767989  0.87470940  0.82456269  1
  H+  H185  1  0.10085991  0.62585285  0.13794691  1
  H+  H186  1  0.40698068  0.87371789  0.99095946  1
  H+  H187  1  0.37851491  0.98189237  0.00836027  1
  H+  H188  1  0.77683664  0.38214584  0.86516156  1
  H+  H189  1  0.46229019  0.62741918  0.98982197  1
  H+  H190  1  0.62821736  0.63314646  0.48136281  1
  H+  H191  1  0.87641707  0.11051098  0.32957923  1
  H+  H192  1  0.61565690  0.37937025  0.49646783  1
  H+  H193  1  0.62916424  0.26631969  0.87354416  1
  H+  H194  1  0.21638344  0.35775983  0.32101913  1
  H+  H195  1  0.10791482  0.87782991  0.48471128  1
  H+  H196  1  0.12072255  0.59992315  0.50415410  1
  H+  H197  1  0.59625050  0.49749777  0.84691686  1
  H+  H198  1  0.13825195  0.76660641  0.50988005  1
  H+  H199  1  0.88277932  0.26063900  0.17012368  1
  H+  H200  1  0.54538590  0.90897711  0.20862919  1
  H+  H201  1  0.52415723  0.13398404  0.49791149  1
  H+  H202  1  0.75789695  0.88822041  0.33773146  1
  H+  H203  1  0.52134859  0.63278750  0.32995154  1
  H+  H204  1  0.09298193  0.42714643  0.27098490  1
  H+  H205  1  0.07690854  0.91679622  0.40033047  1
  H+  H206  1  0.39159425  0.12273945  0.66640549  1
  H+  H207  1  0.66480039  0.57430375  0.93747471  1
  H+  H208  1  0.61262785  0.13502588  0.15085307  1
  H+  H209  1  0.13466726  0.52852297  0.31924823  1
  H+  H210  1  0.63963459  0.26742650  0.50656752  1
  H+  H211  1  0.38585083  0.28357866  0.98035513  1
  H+  H212  1  0.89861973  0.87067489  0.83319551  1
  H+  H213  1  0.73160465  0.13215380  0.83011968  1
  H+  H214  1  0.33286772  0.16839067  0.73496200  1
  H+  H215  1  0.72017002  0.11034450  0.32559589  1
  H+  H216  1  0.48672869  0.36784113  0.66485073  1
  H+  H217  1  0.35969111  0.39504018  -0.00209632  1
  H+  H218  1  0.11795678  0.13348119  0.67918724  1
  H+  H219  1  0.88419603  0.90336732  0.17203559  1
  H+  H220  1  0.02995616  0.89168451  0.81686810  1
  H+  H221  1  0.63704250  0.76607942  0.49911114  1
  H+  H222  1  0.52021257  0.88411389  0.34674798  1
  H+  H223  1  0.61601530  0.14215870  0.83521222  1
  H+  H224  1  0.91208742  0.35802530  0.99976115  1
  H+  H225  1  0.98627840  0.37353741  0.84276242  1
  H+  H226  1  0.37115141  0.14929417  0.98947105  1
  H+  H227  1  1.02665601  0.63685378  0.98997987  1
  H+  H228  1  0.64302812  0.51564847  0.50425881  1
  H+  H229  1  0.27447760  0.14389865  0.16979437  1
  H+  H230  1  0.32649661  0.67391299  0.75713885  1
  H+  H231  1  0.62648727  0.14201481  0.99641463  1
  H+  H232  1  0.22640098  0.36238938  0.48696529  1
  H+  H233  1  0.12623294  0.12100001  0.18163713  1
  H+  H234  1  0.07075089  0.20363247  0.15440201  1
  H+  H235  1  0.52206066  0.37124906  0.82726181  1
  H+  H236  1  0.10375985  0.51330948  0.53744183  1
  H+  H237  1  0.47201971  0.10869184  0.84066807  1
  H+  H238  1  0.15311540  0.13628970  0.50812424  1
  H+  H239  1  0.53897247  0.90546254  0.67494131  1
  H+  H240  1  0.23395342  0.61721884  0.66783192  1
  H+  H241  1  0.85348899  0.63011655  0.68653791  1
  H+  H242  1  0.13928423  0.86558088  0.65919499  1
  H+  H243  1  0.88559574  0.76577269  0.66280341  1
  H+  H244  1  0.86749539  0.62207809  0.15094978  1
  H+  H245  1  0.04827469  0.52014326  0.19211779  1
  H+  H246  1  0.73947586  0.12494661  0.65815792  1
  H+  H247  1  0.98446806  0.87640301  0.31886069  1
  H+  H248  1  0.89089030  0.61043594  0.99477825  1
  H+  H249  1  0.72049746  0.61246455  0.66164434  1
  H+  H250  1  0.47073559  0.63375059  0.83665990  1
  H+  H251  1  0.38720945  1.02950885  0.51578527  1
  H+  H252  1  0.53706374  0.51741002  0.88778888  1
  H+  H253  1  1.03697563  0.89836481  0.15307487  1
  H+  H254  1  0.24499613  0.35680478  0.66105464  1
  H+  H255  1  0.89393370  0.71863231  0.16253476  1
  H+  H256  1  0.87431354  0.49164315  0.15710211  1
  H+  H257  1  0.35282920  0.51100350  0.17169635  1
  H+  H258  1  0.63190609  0.99115652  0.67231297  1
  H+  H259  1  0.77952815  0.88478219  0.66270823  1
  H+  H260  1  0.90979781  0.08120264  0.93873459  1
  H+  H261  1  0.13369452  0.78211576  0.97590437  1
  H+  H262  1  0.44880987  0.77661725  0.08581130  1
  H+  H263  1  0.89315076  0.74419813  0.50331860  1
  H+  H264  1  0.26353288  0.12339162  0.82232136  1
  H+  H265  1  0.37421994  0.10076259  0.16344059  1
  H+  H266  1  0.38854688  0.03190536  0.66409350  1
  H+  H267  1  0.58733750  0.64250500  0.12679980  1
  H+  H268  1  0.66525162  0.04210052  0.15986257  1
  H+  H269  1  0.78707009  0.63829850  0.00144700  1
  H+  H270  1  0.35749310  0.13162285  0.82483130  1
  H+  H271  1  0.12508356  -0.01449157  0.81869946  1
  H+  H272  1  0.77618346  0.13647582  0.49402277  1
  H+  H273  1  0.41134059  0.81204170  0.70388113  1
  H+  H274  1  0.45887382  0.75818092  0.11325182  1
  H+  H275  1  0.79453527  0.88538404  0.81526781  1
  H+  H276  1  0.14302540  0.02538848  0.65642238  1
  H+  H277  1  1.03114246  0.13518408  0.67596432  1
  H+  H278  1  0.37378778  0.77937540  0.82747487  1
  H+  H279  1  0.11094717  0.89585267  0.33921850  1
  H+  H280  1  0.72737290  0.35927696  0.32680247  1
  H+  H281  1  0.28175342  0.14769728  -0.01058613  1
  H+  H282  1  0.52389272  0.88753375  0.50054272  1
  H+  H283  1  0.41539987  0.08012465  0.93109763  1
  H+  H284  1  0.50702206  0.32691301  0.19966942  1
  H+  H285  1  0.26743505  0.42492233  0.83721649  1
  H+  H286  1  0.11447336  0.89034762  0.99110715  1
  H+  H287  1  -0.01976877  0.86953000  -0.01197200  1
  H+  H288  1  0.30499291  0.41897810  0.09560305  1
  H+  H289  1  0.58868743  0.17942321  0.77978723  1
  H+  H290  1  0.41459421  0.08239427  0.22033638  1
  H+  H291  1  0.08090298  0.17081444  0.42462926  1
  H+  H292  1  0.34010075  0.91713679  0.06432574  1
  H+  H293  1  0.41762413  0.83803936  0.57490848  1
  H+  H294  1  0.58357102  0.91357686  0.40366464  1
  H+  H295  1  0.16288996  0.58218349  0.91852405  1
  H+  H296  1  0.40691684  0.59902488  0.92752380  1
  H+  H297  1  0.44725655  0.30994507  0.25850895  1
  H+  H298  1  0.42003343  0.33268187  0.88895883  1
  H+  H299  1  0.92243999  0.84139116  0.89666239  1
  H+  H300  1  0.08882863  0.67138784  0.04574757  1
  H+  H301  1  0.92722620  0.08854016  0.55817160  1
  H+  H302  1  0.08570952  0.45422829  0.00094450  1
  H+  H303  1  0.16093848  0.82322809  0.27455376  1
  H+  H304  1  0.08403495  0.66920682  0.73292705  1
  H+  H305  1  0.53795689  0.62670239  0.48714409  1
  H+  H306  1  0.33397637  0.41521494  0.43000968  1
  H+  H307  1  0.33944058  0.61418487  -0.00122498  1
  H+  H308  1  0.13169041  0.10029622  0.94990486  1
  H+  H309  1  0.63490617  0.77076166  0.65793833  1
  H+  H310  1  0.33467251  0.92018216  0.44627241  1
  H+  H311  1  0.41052094  0.58570336  0.61380485  1
  H+  H312  1  0.66488748  0.32010013  0.23158400  1
  H+  H313  1  0.67274626  0.83588376  0.22958440  1
  H+  H314  1  0.32736863  0.92461859  0.73129976  1
  H+  H315  1  0.91903711  0.58738508  0.90126704  1
  H+  H316  1  0.17935217  0.05550479  0.88619686  1
  H+  H317  1  0.39118765  0.28017640  0.51141658  1
  H+  H318  1  0.63182566  0.77003813  0.32157558  1
  H+  H319  1  0.40743882  0.79442453  0.17961328  1
  H+  H320  1  0.83537956  0.68096200  0.40068834  1
  H+  H321  1  0.84521170  0.67331524  0.06153607  1
  H+  H322  1  0.58409325  0.66058344  0.38764151  1
  H+  H323  1  0.07140399  0.40463131  0.10050034  1
  H+  H324  1  0.28879036  0.62240359  0.06221263  1
  H+  H325  1  0.94188468  0.33616324  0.55680408  1
  H+  H326  1  0.33390987  0.17174021  0.40894367  1
  H+  H327  1  0.83057266  0.17043900  0.39634922  1
  H+  H328  1  0.79881738  0.24745571  0.77711276  1
  H+  H329  1  0.08936415  0.92760292  0.05159366  1
  H+  H330  1  0.58050492  0.15876425  0.43688147  1
  H+  H331  1  0.53545843  0.89749982  -0.00668292  1
  H+  H332  1  0.90247927  0.32165096  0.22971747  1
  H+  H333  1  0.19465455  0.64627269  0.25724534  1
  H+  H334  1  0.03214309  0.97283964  0.11789618  1
  H+  H335  1  0.17772445  0.10216588  0.56756818  1
  H+  H336  1  0.68241928  0.83299012  0.92810316  1
  H+  H337  1  0.17578927  0.59313328  0.60668183  1
  H+  H338  1  0.99034234  0.36813588  0.65342260  1
  H+  H339  1  0.16654836  0.09245383  0.27611694  1
  H+  H340  1  0.66821103  0.08536233  0.22457465  1
  H+  H341  1  0.85352852  0.15919057  0.09833750  1
  H+  H342  1  0.38673259  0.27900144  0.34325875  1
  H+  H343  1  0.68113168  0.09596788  0.93130992  1
  H+  H344  1  0.92094726  0.55809798  0.55781304  1
  H+  H345  1  0.83547975  0.91312937  0.06843918  1
  H+  H346  1  0.06737548  0.42426958  0.73355329  1
  H+  H347  1  0.83200277  0.40679716  0.05977852  1
  H+  H348  1  0.91558480  0.55809449  0.21276300  1
  H+  H349  1  0.81628226  0.92121945  0.40485061  1
  H+  H350  1  0.13876169  0.04231877  0.17566341  1
  H+  H351  1  0.67310973  0.58013042  0.56061071  1
  H+  H352  1  0.13725677  0.30818288  0.22379326  1
  H+  H353  1  0.63536517  0.94716159  0.08135869  1
  H+  H354  1  0.64065221  0.01824394  0.51152509  1
  H+  H355  1  0.42139340  0.09267809  0.57310808  1
  H+  H356  1  0.58631892  0.92926554  0.75821907  1
  H+  H357  1  0.25970957  0.89156613  0.81763116  1
  H+  H358  1  0.61805051  0.38813965  0.84006713  1
  H+  H359  1  0.91755885  0.80864973  0.55921973  1
  H+  H360  1  0.58748466  0.40977315  0.43663906  1
  H+  H361  1  0.16600203  0.83070677  0.56645267  1
  H+  H362  1  0.67772448  0.57524775  0.27210714  1
  H+  H363  1  0.55241460  0.69096450  0.06101835  1
  H+  H364  1  0.47318546  0.37226580  0.98640465  1
  H+  H365  1  0.36022654  0.38340134  0.49153067  1
  H+  H366  1  0.40014268  0.58118813  0.26730581  1
  H+  H367  1  0.87119463  0.47069983  0.49296239  1
  H+  H368  1  0.59414316  0.41943015  0.73623144  1
  H+  H369  1  0.10753754  0.13591629  0.34086969  1
  H+  H370  1  0.63417888  1.01905444  0.32734812  1
  H+  H371  1  0.40562363  0.83071661  0.28234831  1
  H+  H372  1  0.66117219  0.82163412  0.56107934  1
  H+  H373  1  0.84849366  0.18415925  0.72187234  1
  H+  H374  1  0.94157725  0.32215948  0.94558759  1
  H+  H375  1  0.15874113  0.84284204  0.91798833  1
  H+  H376  1  0.09724076  0.42311383  0.38874887  1
  H+  H377  1  0.08419873  0.66346464  0.44215042  1
  H+  H378  1  0.59279348  0.17519348  0.05216137  1
  H+  H379  1  0.96246850  0.10420151  0.33087238  1
  H+  H380  1  0.88291728  0.63094933  0.34544082  1
  H+  H381  1  0.33125306  0.66930484  0.40741889  1
  H+  H382  1  0.39339756  0.88300927  0.67627554  1
  H+  H383  1  0.36115065  0.88530382  0.35015455  1
  O2-  O384  1  0.03819344  0.13925331  0.14398025  1
  O2-  O385  1  0.08607049  0.18013175  0.47092576  1
  O2-  O386  1  0.07352768  0.13333429  0.82242196  1
  O2-  O387  1  0.06954159  0.40109012  0.14620400  1
  O2-  O388  1  0.10000491  0.41952676  0.43428951  1
  O2-  O389  1  0.05626827  0.44806924  0.80423302  1
  O2-  O390  1  0.06980056  0.65493242  0.12530224  1
  O2-  O391  1  0.08341380  0.65867320  0.48738117  1
  O2-  O392  1  0.08007468  0.67151853  0.80809370  1
  O2-  O393  1  0.07138760  0.95215422  0.12825833  1
  O2-  O394  1  0.07285641  0.90124952  0.46830525  1
  O2-  O395  1  0.08788251  0.91994349  0.79856430  1
  O2-  O396  1  0.33247922  0.15977826  0.15528999  1
  O2-  O397  1  0.34174948  0.17891810  0.48449634  1
  O2-  O398  1  0.32749426  0.16128941  0.80875459  1
  O2-  O399  1  0.29852400  0.42191275  0.14014991  1
  O2-  O400  1  0.32973650  0.41340053  0.47560859  1
  O2-  O401  1  0.33092286  0.45217601  0.82878511  1
  O2-  O402  1  0.27900073  0.61348578  0.13110817  1
  O2-  O403  1  0.32518347  0.66809784  0.48194422  1
  O2-  O404  1  0.32698543  0.68192804  0.80374320  1
  O2-  O405  1  0.30829833  0.90324247  0.14870878  1
  O2-  O406  1  0.33539895  0.92064271  0.49135675  1
  O2-  O407  1  0.32218695  0.92290207  0.80363403  1
  O2-  O408  1  0.58139176  0.16432057  0.13488130  1
  O2-  O409  1  0.58436599  0.15968936  0.48213703  1
  O2-  O410  1  0.58572745  0.17476675  0.82488047  1
  O2-  O411  1  0.58899652  0.40700813  0.14576454  1
  O2-  O412  1  0.58616549  0.41098696  0.48214591  1
  O2-  O413  1  0.58698902  0.41096941  0.81671159  1
  O2-  O414  1  0.56150968  0.67159070  0.14782941  1
  O2-  O415  1  0.59481910  0.66075479  0.46690274  1
  O2-  O416  1  0.58439591  0.67262024  0.80928345  1
  O2-  O417  1  0.66680872  0.96503513  0.12071500  1
  O2-  O418  1  0.58312409  0.91558139  0.48336433  1
  O2-  O419  1  0.57425673  0.93107267  0.80348469  1
  O2-  O420  1  0.85636957  0.16399910  0.14554684  1
  O2-  O421  1  0.83491461  0.16528791  0.47587002  1
  O2-  O422  1  0.82187165  0.21309069  0.79428864  1
  O2-  O423  1  0.82512747  0.39848547  0.13851563  1
  O2-  O424  1  0.83461982  0.40756191  0.47829592  1
  O2-  O425  1  0.83373050  0.40591522  0.84618396  1
  O2-  O426  1  0.84718379  0.66402450  0.14470665  1
  O2-  O427  1  0.84455749  0.63827556  0.47414335  1
  O2-  O428  1  0.83037428  0.67354167  0.82136908  1
  O2-  O429  1  0.85495852  0.93075248  0.15324568  1
  O2-  O430  1  0.82066536  0.92215144  0.46766810  1
  O2-  O431  1  0.85289858  0.92140688  0.79792417  1
  O2-  O432  1  0.16261556  0.09813522  0.19715214  1
  O2-  O433  1  0.18586959  0.10954576  0.52264482  1
  O2-  O434  1  0.17141483  0.06459438  0.84359483  1
  O2-  O435  1  0.12960416  0.30322499  0.17925051  1
  O2-  O436  1  0.16131009  0.33419589  0.48911301  1
  O2-  O437  1  0.16479680  0.37567646  0.85334698  1
  O2-  O438  1  0.21386256  0.68139295  0.21812634  1
  O2-  O439  1  0.14784807  0.56289480  0.51549915  1
  O2-  O440  1  0.16279760  0.59303085  0.84776621  1
  O2-  O441  1  0.15254743  0.79872521  0.19495125  1
  O2-  O442  1  0.16918392  0.82876591  0.52110159  1
  O2-  O443  1  0.16320848  0.84039032  0.83950836  1
  O2-  O444  1  0.40711322  0.07037441  0.17621334  1
  O2-  O445  1  0.42108360  0.09130602  0.52741803  1
  O2-  O446  1  0.41129675  0.07934673  0.85420678  1
  O2-  O447  1  0.46407659  0.28161344  0.22650746  1
  O2-  O448  1  0.42009619  0.34214463  0.52462458  1
  O2-  O449  1  0.42968544  0.32684278  0.84506895  1
  O2-  O450  1  0.38519788  0.57187656  0.18990090  1
  O2-  O451  1  0.44612542  0.56081285  0.53375253  1
  O2-  O452  1  0.41207556  0.60937542  0.85297077  1
  O2-  O453  1  0.37344680  0.80853722  0.20686936  1
  O2-  O454  1  0.41791569  0.83832996  0.53030974  1
  O2-  O455  1  0.40058937  0.84075263  0.84327739  1
  O2-  O456  1  0.67697796  0.09710492  0.18043656  1
  O2-  O457  1  0.67135738  0.07985362  0.52494405  1
  O2-  O458  1  0.67499355  0.09531142  0.85046110  1
  O2-  O459  1  0.66620001  0.32205622  0.18609794  1
  O2-  O460  1  0.66850327  0.32768238  0.52215452  1
  O2-  O461  1  0.66006110  0.32744601  0.88913285  1
  O2-  O462  1  0.68752619  0.58125704  0.19285820  1
  O2-  O463  1  0.67653813  0.57806403  0.51548478  1
  O2-  O464  1  0.59375104  0.54615713  0.86882687  1
  O2-  O465  1  0.67796343  0.83147074  0.18470778  1
  O2-  O466  1  0.66026605  0.82525148  0.51577309  1
  O2-  O467  1  0.69216960  0.82733572  0.84597764  1
  O2-  O468  1  0.95966681  0.10323347  0.18149665  1
  O2-  O469  1  0.92623628  0.08914816  0.51243512  1
  O2-  O470  1  0.91853709  0.07221479  0.85350954  1
  O2-  O471  1  0.90072157  0.32078594  0.18426631  1
  O2-  O472  1  0.93367932  0.33195418  0.51085911  1
  O2-  O473  1  0.93022006  0.33085127  0.86561923  1
  O2-  O474  1  0.90916024  0.55653685  0.16870874  1
  O2-  O475  1  0.92465761  0.56560672  0.51385183  1
  O2-  O476  1  0.91756425  0.58718463  0.85564463  1
  O2-  O477  1  0.98519238  0.80937500  0.19483522  1
  O2-  O478  1  0.91778563  0.80549237  0.51442071  1
  O2-  O479  1  0.92191358  0.83525161  0.85132656  1
  O2-  O480  1  0.16741451  0.09257206  0.32152379  1
  O2-  O481  1  0.17140826  0.08723618  0.64481415  1
  O2-  O482  1  0.16428592  0.08797000  0.97952329  1
  O2-  O483  1  0.15531190  0.32375209  0.30801038  1
  O2-  O484  1  0.20116502  0.31847160  0.63169804  1
  O2-  O485  1  0.15898988  0.33001012  0.97443790  1
  O2-  O486  1  0.16897742  0.59491654  0.32057435  1
  O2-  O487  1  0.17067101  0.59142548  0.65102288  1
  O2-  O488  1  0.15850293  0.57700222  0.96488533  1
  O2-  O489  1  0.16049756  0.82995376  0.31917986  1
  O2-  O490  1  0.17115733  0.83582050  0.64481669  1
  O2-  O491  1  0.15612244  0.84238491  0.96328599  1
  O2-  O492  1  0.44110291  0.14475664  0.29447738  1
  O2-  O493  1  0.42316896  0.09318517  0.65092174  1
  O2-  O494  1  0.42004799  0.08633527  0.97642838  1
  O2-  O495  1  0.41958207  0.33853354  0.32562514  1
  O2-  O496  1  0.42525702  0.33922105  0.65225611  1
  O2-  O497  1  0.41524092  0.34676055  0.96828239  1
  O2-  O498  1  0.41100257  0.58435943  0.31224681  1
  O2-  O499  1  0.41347327  0.58961935  0.65833592  1
  O2-  O500  1  0.40207036  0.59104787  0.97310150  1
  O2-  O501  1  0.41214343  0.83578394  0.32745576  1
  O2-  O502  1  0.42888722  0.85328930  0.67042676  1
  O2-  O503  1  0.43858352  0.84710218  0.97144504  1
  O2-  O504  1  0.65967405  0.07821958  0.31047028  1
  O2-  O505  1  0.67676782  0.09241004  0.64789990  1
  O2-  O506  1  0.67893541  0.09488574  0.97638364  1
  O2-  O507  1  0.66710998  0.32783372  0.31075606  1
  O2-  O508  1  0.66609060  0.33211664  0.64701607  1
  O2-  O509  1  0.66155130  0.32594671  0.95633146  1
  O2-  O510  1  0.67197670  0.57755883  0.31698415  1
  O2-  O511  1  0.66211511  0.58284170  0.64280051  1
  O2-  O512  1  0.69042072  0.57582292  0.97736375  1
  O2-  O513  1  0.66145791  0.83181433  0.30887898  1
  O2-  O514  1  0.66781540  0.82986088  0.63991133  1
  O2-  O515  1  0.67288544  0.83528277  0.97211461  1
  O2-  O516  1  0.90083171  0.07291127  0.31913870  1
  O2-  O517  1  0.92674015  0.08464922  0.63555061  1
  O2-  O518  1  0.91600345  0.08294624  0.98352087  1
  O2-  O519  1  0.91405659  0.33333630  0.30785878  1
  O2-  O520  1  0.93268775  0.33278512  0.63001442  1
  O2-  O521  1  0.93664251  0.32082927  0.99090262  1
  O2-  O522  1  0.90759515  0.59388547  0.35848090  1
  O2-  O523  1  0.92436788  0.60446847  0.64957692  1
  O2-  O524  1  0.91958512  0.57979236  0.97739676  1
  O2-  O525  1  0.93231952  0.84234814  0.29282785  1
  O2-  O526  1  0.91929826  0.82219114  0.64226113  1
  O2-  O527  1  0.91828061  0.83908768  0.97477155  1
  O2-  O528  1  0.14931524  0.20697442  0.06423885  1
  O2-  O529  1  0.07338432  0.16359275  0.35423309  1
  O2-  O530  1  0.08697685  0.16127444  0.69735825  1
  O2-  O531  1  0.07267520  0.40212840  0.02408642  1
  O2-  O532  1  0.08416320  0.42659776  0.31480456  1
  O2-  O533  1  0.07365060  0.41829919  0.68831369  1
  O2-  O534  1  0.08913943  0.67134990  0.00076067  1
  O2-  O535  1  0.07960044  0.66724305  0.36383403  1
  O2-  O536  1  0.08445398  0.67008753  0.68708479  1
  O2-  O537  1  0.08430485  0.92282001  0.00681856  1
  O2-  O538  1  0.08170421  0.92672566  0.35362152  1
  O2-  O539  1  0.08860889  0.91755267  0.67979776  1
  O2-  O540  1  0.34370306  0.18465616  -0.00346628  1
  O2-  O541  1  0.33307456  0.17438385  0.36316621  1
  O2-  O542  1  0.33636773  0.16977387  0.68885546  1
  O2-  O543  1  0.32774525  0.42322594  0.01380233  1
  O2-  O544  1  0.32546725  0.41536165  0.35150033  1
  O2-  O545  1  0.34809013  0.42566603  0.70755966  1
  O2-  O546  1  0.29705524  0.63235951  0.01611062  1
  O2-  O547  1  0.33398491  0.67187855  0.36141587  1
  O2-  O548  1  0.32465154  0.65840576  0.68810633  1
  O2-  O549  1  0.35819485  0.92198732  0.02169097  1
  O2-  O550  1  0.32772387  0.91396585  0.36405695  1
  O2-  O551  1  0.33515384  0.92484966  0.68540692  1
  O2-  O552  1  0.59530053  0.17464224  0.00696791  1
  O2-  O553  1  0.58166814  0.16469744  0.35525558  1
  O2-  O554  1  0.58773100  0.16982261  0.69478584  1
  O2-  O555  1  0.58354638  0.41137634  0.01814597  1
  O2-  O556  1  0.58872629  0.41169137  0.35931954  1
  O2-  O557  1  0.59293221  0.42196363  0.69101488  1
  O2-  O558  1  0.55757940  0.68104806  0.01781482  1
  O2-  O559  1  0.58335506  0.66179466  0.34215358  1
  O2-  O560  1  0.58129973  0.66779680  0.68677223  1
  O2-  O561  1  0.59819323  0.92949572  0.00700434  1
  O2-  O562  1  0.58224411  0.91188561  0.35819073  1
  O2-  O563  1  0.60047194  0.92970660  0.68711586  1
  O2-  O564  1  0.85262442  0.15194385  0.02846426  1
  O2-  O565  1  0.82780963  0.16849531  0.35101752  1
  O2-  O566  1  0.84842461  0.17400008  0.67749908  1
  O2-  O567  1  0.84140637  0.41330042  0.01480156  1
  O2-  O568  1  0.82992286  0.41595605  0.35627234  1
  O2-  O569  1  0.84080109  0.40765975  0.66670024  1
  O2-  O570  1  0.84823581  0.67368544  0.01650659  1
  O2-  O571  1  0.83365792  0.68876077  0.35601983  1
  O2-  O572  1  0.82073986  0.65941648  0.69729912  1
  O2-  O573  1  0.82900279  0.90957806  0.02382104  1
  O2-  O574  1  0.81759819  0.92215513  0.35570059  1
  O2-  O575  1  0.84144600  0.91552215  0.67394109  1
