# generated using pymatgen
data_H2O
_symmetry_space_group_name_H-M   'P 1'
_cell_length_a   17.99249521
_cell_length_b   17.99039119
_cell_length_c   21.99469167
_cell_angle_alpha   89.99096590
_cell_angle_beta   90.00757500
_cell_angle_gamma   120.01109693
_symmetry_Int_Tables_number   1
_chemical_formula_structural   H2O
_chemical_formula_sum   'H384 O192'
_cell_volume   6164.98370131
_cell_formula_units_Z   192
loop_
 _symmetry_equiv_pos_site_id
 _symmetry_equiv_pos_as_xyz
  1  'x, y, z'
loop_
 _atom_type_symbol
 _atom_type_oxidation_number
  H+  1.0
  O2-  -2.0
loop_
 _atom_site_type_symbol
 _atom_site_label
 _atom_site_symmetry_multiplicity
 _atom_site_fract_x
 _atom_site_fract_y
 _atom_site_fract_z
 _atom_site_occupancy
  H+  H0  1  0.67936331  0.34697151  0.89913511  1
  H+  H1  1  0.14146162  0.77181819  0.66462474  1
  H+  H2  1  0.37703412  0.81035336  0.36764984  1
  H+  H3  1  0.62698327  0.98415331  0.01973411  1
  H+  H4  1  0.42230268  0.10043505  1.00072615  1
  H+  H5  1  0.35381636  0.37972696  0.15880403  1
  H+  H6  1  0.89141193  0.77668954  0.84422902  1
  H+  H7  1  0.63627983  0.11458773  0.66086291  1
  H+  H8  1  0.10526751  0.88960211  0.50593013  1
  H+  H9  1  0.98097555  0.27185091  0.29482518  1
  H+  H10  1  0.13368007  0.52202593  0.65883585  1
  H+  H11  1  0.13120682  0.02288940  0.99625367  1
  H+  H12  1  0.61519545  0.23378177  0.66978075  1
  H+  H13  1  0.12403119  0.80912995  0.92940229  1
  H+  H14  1  0.23124990  0.60922323  0.32096801  1
  H+  H15  1  0.76300103  0.36567080  0.49384133  1
  H+  H16  1  0.24901629  0.09122859  0.19638948  1
  H+  H17  1  0.11482701  0.39288634  0.15760554  1
  H+  H18  1  0.14159071  0.52839809  0.16499542  1
  H+  H19  1  0.39229815  0.52404734  0.83321240  1
  H+  H20  1  0.88149742  0.33031579  0.49001312  1
  H+  H21  1  0.38724015  0.86257302  0.66281499  1
  H+  H22  1  0.11418524  0.72193223  0.16294970  1
  H+  H23  1  0.09738917  0.83632196  0.99024954  1
  H+  H24  1  0.46270442  0.20631616  0.12991699  1
  H+  H25  1  0.86015455  0.25694228  0.99026280  1
  H+  H26  1  0.22194806  0.60895063  0.83729922  1
  H+  H27  1  0.35635601  0.60897254  0.34486857  1
  H+  H28  1  0.06870134  0.15005942  0.75996282  1
  H+  H29  1  0.14196434  0.27735107  0.84264316  1
  H+  H30  1  0.11917233  0.48514288  1.00180952  1
  H+  H31  1  0.64639572  0.28234711  0.84152094  1
  H+  H32  1  0.11206615  0.38482335  0.82360873  1
  H+  H33  1  0.51612962  0.13516384  0.13903538  1
  H+  H34  1  0.77862811  0.14398910  0.65183066  1
  H+  H35  1  0.13651742  1.01788882  0.65515161  1
  H+  H36  1  0.85404738  -0.02818219  0.83549162  1
  H+  H37  1  0.27315502  0.87825827  0.16160163  1
  H+  H38  1  0.91089307  0.84532946  0.60452064  1
  H+  H39  1  0.47758208  0.36042228  0.67335040  1
  H+  H40  1  0.97483624  0.64296102  0.50481055  1
  H+  H41  1  0.39362078  0.37520306  -0.00494898  1
  H+  H42  1  0.87424165  0.51969534  0.98151701  1
  H+  H43  1  0.89496609  0.09131981  0.50657084  1
  H+  H44  1  0.52342591  0.63824311  0.16459822  1
  H+  H45  1  0.55669933  0.15723793  -0.03553741  1
  H+  H46  1  0.62045844  0.89294969  0.01853434  1
  H+  H47  1  0.11185826  0.73866736  0.49884580  1
  H+  H48  1  0.86544485  0.63581221  0.15810604  1
  H+  H49  1  0.38834370  0.14348221  0.17042422  1
  H+  H50  1  0.38776991  0.03392654  0.51180554  1
  H+  H51  1  0.88903205  0.28053377  0.64895902  1
  H+  H52  1  0.37240673  0.86583428  -0.02220912  1
  H+  H53  1  0.92245860  0.86717791  0.20323002  1
  H+  H54  1  0.73833929  0.85469203  0.51702425  1
  H+  H55  1  0.71507550  0.85196515  0.33749533  1
  H+  H56  1  0.01932568  0.15634380  0.67534936  1
  H+  H57  1  0.37103616  0.38338233  0.83282369  1
  H+  H58  1  0.36668547  0.90825264  0.34732512  1
  H+  H59  1  0.98533657  0.61908023  0.83692873  1
  H+  H60  1  0.37276502  0.48055707  0.99903624  1
  H+  H61  1  0.14795165  0.37293425  0.99023168  1
  H+  H62  1  0.52462121  0.40695541  0.53924391  1
  H+  H63  1  0.45498731  0.48061427  0.54161895  1
  H+  H64  1  0.33543789  0.21672008  0.81416764  1
  H+  H65  1  0.59079789  0.17839341  0.77174343  1
  H+  H66  1  0.08565728  0.50849405  0.50828336  1
  H+  H67  1  0.39413727  0.99967120  0.17132849  1
  H+  H68  1  0.87595305  0.48664719  0.16868119  1
  H+  H69  1  0.89697929  0.56616495  0.32847041  1
  H+  H70  1  0.88933763  0.36937296  0.82693570  1
  H+  H71  1  0.12151027  0.08897299  0.19299548  1
  H+  H72  1  0.86084378  0.89108859  0.00485862  1
  H+  H73  1  0.48623108  0.60936300  0.98781176  1
  H+  H74  1  0.34355203  0.66498205  0.58541465  1
  H+  H75  1  0.54482508  0.40205057  0.83453703  1
  H+  H76  1  0.23025659  0.86265993  0.66324294  1
  H+  H77  1  0.45671086  0.57461106  0.32655414  1
  H+  H78  1  0.61460898  0.88945340  0.67795754  1
  H+  H79  1  0.52627865  0.39512180  1.00867282  1
  H+  H80  1  0.88537328  0.77774769  -0.00273007  1
  H+  H81  1  0.51557065  0.62436678  0.67031034  1
  H+  H82  1  0.08366685  0.69969412  0.00161979  1
  H+  H83  1  0.53793176  0.61354989  0.50507400  1
  H+  H84  1  0.88260643  0.10051395  0.33251612  1
  H+  H85  1  0.77394285  0.64225255  1.00552809  1
  H+  H86  1  0.61758890  0.39696855  0.67890273  1
  H+  H87  1  0.47586898  0.12189853  0.32661233  1
  H+  H88  1  0.73025751  0.62239744  0.66831018  1
  H+  H89  1  0.41311558  0.83662389  0.24569790  1
  H+  H90  1  0.47924412  0.11998509  0.50703642  1
  H+  H91  1  0.58378915  0.42769614  1.06866527  1
  H+  H92  1  0.10641932  0.62653769  0.82727813  1
  H+  H93  1  0.38760091  0.78183655  0.83286071  1
  H+  H94  1  0.58424765  0.67195962  0.06702192  1
  H+  H95  1  0.02237291  0.38473444  0.82265717  1
  H+  H96  1  0.61082939  0.13373234  0.33383927  1
  H+  H97  1  0.89001439  1.02683010  0.66249557  1
  H+  H98  1  0.03393611  0.39218947  0.00089141  1
  H+  H99  1  0.87617721  0.67895610  0.49154069  1
  H+  H100  1  0.61579427  0.73165987  0.00733753  1
  H+  H101  1  0.22979341  0.62113005  0.16550939  1
  H+  H102  1  0.51845465  0.37524706  0.33734385  1
  H+  H103  1  0.63963857  0.62201626  0.99618143  1
  H+  H104  1  0.48159299  0.87283339  0.50817103  1
  H+  H105  1  0.15444817  0.38153534  0.32699281  1
  H+  H106  1  0.92572341  0.46760377  0.47713537  1
  H+  H107  1  0.12784489  0.60696613  0.99470466  1
  H+  H108  1  0.65306992  0.40047489  0.51243499  1
  H+  H109  1  0.36125359  -0.00542597  0.34620221  1
  H+  H110  1  0.67559062  0.59721447  0.90198438  1
  H+  H111  1  -0.01740117  0.36659464  0.17072032  1
  H+  H112  1  0.13431595  0.51873553  0.83619638  1
  H+  H113  1  0.58840692  0.41248558  0.39127796  1
  H+  H114  1  0.97858130  0.35117314  0.49573486  1
  H+  H115  1  1.03209002  0.66208152  0.34477591  1
  H+  H116  1  0.88457893  0.55808442  0.50109815  1
  H+  H117  1  0.61062405  0.48896152  0.16268922  1
  H+  H118  1  0.58266188  0.69655410  0.32968543  1
  H+  H119  1  0.36431369  0.63554720  0.82242562  1
  H+  H120  1  0.60442622  0.39730744  0.16382213  1
  H+  H121  1  0.85154877  0.13486234  0.82658422  1
  H+  H122  1  1.12285506  0.14588324  0.49375763  1
  H+  H123  1  0.11613355  0.14159005  0.33891629  1
  H+  H124  1  0.43705954  0.28274046  0.86236126  1
  H+  H125  1  0.71173978  0.86631521  0.17944506  1
  H+  H126  1  0.86243007  0.20990460  0.34688041  1
  H+  H127  1  0.66285154  0.49239573  0.53017874  1
  H+  H128  1  0.11097382  0.24482912  0.67870209  1
  H+  H129  1  -0.03466380  0.12413314  0.17367972  1
  H+  H130  1  0.13183949  0.09921383  0.84089186  1
  H+  H131  1  0.47753253  0.86355659  0.66354914  1
  H+  H132  1  0.16277665  0.07666858  0.90495056  1
  H+  H133  1  0.90556994  0.58062825  0.90334305  1
  H+  H134  1  0.78941847  0.39473290  0.16385650  1
  H+  H135  1  0.85283100  0.13938666  0.16655538  1
  H+  H136  1  0.86839470  0.72456455  0.16086090  1
  H+  H137  1  0.13072269  0.01955609  0.34061544  1
  H+  H138  1  0.38746251  0.35736065  0.67091666  1
  H+  H139  1  0.60461515  0.88861029  0.17493389  1
  H+  H140  1  0.86391021  0.64333622  0.67347716  1
  H+  H141  1  0.12344431  0.23418723  0.33704810  1
  H+  H142  1  1.01944834  0.89138417  1.01746656  1
  H+  H143  1  0.86728840  0.20177435  0.50068847  1
  H+  H144  1  0.11015945  0.88050303  0.82548706  1
  H+  H145  1  0.64112053  0.53107702  0.66509996  1
  H+  H146  1  0.17311492  0.34626136  0.23398919  1
  H+  H147  1  0.32449875  0.15236100  0.72925710  1
  H+  H148  1  0.36104102  0.90204117  0.50054657  1
  H+  H149  1  0.66509470  0.38948428  0.60286993  1
  H+  H150  1  0.98040516  0.12015607  0.99212061  1
  H+  H151  1  0.40472339  0.61391691  0.64299140  1
  H+  H152  1  0.39727250  0.28158260  0.18103362  1
  H+  H153  1  0.85482396  0.22439516  0.82090811  1
  H+  H154  1  0.63014786  0.86058322  0.83858018  1
  H+  H155  1  0.86799390  0.48173475  0.81554113  1
  H+  H156  1  0.65235121  0.12447828  -0.00431553  1
  H+  H157  1  0.38649789  0.27323874  0.34054248  1
  H+  H158  1  0.72007404  0.10438571  0.33116260  1
  H+  H159  1  0.47374836  0.87072237  0.34324533  1
  H+  H160  1  0.27501040  0.14245523  0.49883799  1
  H+  H161  1  0.22135659  0.60879786  0.64063811  1
  H+  H162  1  0.12895292  0.75288177  0.34699852  1
  H+  H163  1  0.72338037  0.11635065  0.83977179  1
  H+  H164  1  0.13837309  0.77113261  0.83540433  1
  H+  H165  1  0.86675382  0.39448412  0.66069731  1
  H+  H166  1  0.89629439  0.36991573  0.18010911  1
  H+  H167  1  0.25858648  0.12350670  0.82946675  1
  H+  H168  1  0.36258513  0.97847654  0.82644717  1
  H+  H169  1  0.89260417  0.62312730  0.83295334  1
  H+  H170  1  0.98251565  0.61871161  0.17232730  1
  H+  H171  1  0.13356420  0.11252059  0.99185528  1
  H+  H172  1  0.66781051  0.08618750  0.90119135  1
  H+  H173  1  0.85654829  0.82335613  0.33756141  1
  H+  H174  1  0.63095674  0.28047570  0.14624083  1
  H+  H175  1  0.38695526  0.11803854  0.83687675  1
  H+  H176  1  0.86370697  0.88939161  0.68122041  1
  H+  H177  1  0.14005203  -0.03797905  0.17955872  1
  H+  H178  1  0.61245570  0.97934120  0.83040586  1
  H+  H179  1  0.17132537  0.58323035  0.26228001  1
  H+  H180  1  0.73124071  0.86615126  0.67001653  1
  H+  H181  1  0.36428271  0.89023495  0.82437242  1
  H+  H182  1  0.22573715  0.86177280  0.83786120  1
  H+  H183  1  0.97687514  0.11235187  0.32772242  1
  H+  H184  1  0.72438374  0.86443545  0.98873049  1
  H+  H185  1  0.35171439  0.77848396  0.46454526  1
  H+  H186  1  0.13968212  0.28235856  0.50532446  1
  H+  H187  1  0.66051103  0.07867400  0.56623193  1
  H+  H188  1  0.41005222  0.67405307  0.49445644  1
  H+  H189  1  0.67637189  0.83201425  0.57365615  1
  H+  H190  1  0.86341493  0.45265556  0.42071891  1
  H+  H191  1  0.37963777  0.78166565  0.97951106  1
  H+  H192  1  0.64201792  0.37939712  0.99563579  1
  H+  H193  1  0.73784898  0.11839938  0.99890522  1
  H+  H194  1  0.02095199  0.90032088  0.50068581  1
  H+  H195  1  0.65312588  0.61494071  0.50770530  1
  H+  H196  1  0.36746485  0.97704959  0.67261374  1
  H+  H197  1  0.34521141  0.46398773  0.16036584  1
  H+  H198  1  0.87191904  0.14120592  0.01154538  1
  H+  H199  1  0.63050553  0.51702574  0.32170761  1
  H+  H200  1  0.27170813  0.64678259  1.00424429  1
  H+  H201  1  0.02306892  0.39081911  0.66784946  1
  H+  H202  1  0.86809937  0.14488244  0.64942435  1
  H+  H203  1  0.62481387  0.24813136  -0.00865378  1
  H+  H204  1  0.11180624  0.39156718  0.49309326  1
  H+  H205  1  0.08562905  0.63523058  0.49763481  1
  H+  H206  1  0.22041494  0.87158886  0.51276326  1
  H+  H207  1  0.86912299  0.60913324  0.98018343  1
  H+  H208  1  0.61705820  0.14440520  0.83101831  1
  H+  H209  1  0.35403771  0.13945075  0.34812916  1
  H+  H210  1  0.87696314  0.80347676  0.50255860  1
  H+  H211  1  0.65935376  0.83050190  0.24269052  1
  H+  H212  1  0.86904047  0.96254595  0.34775912  1
  H+  H213  1  0.22415028  0.36379788  0.16987512  1
  H+  H214  1  0.36288525  0.65198311  0.50192245  1
  H+  H215  1  0.77556734  0.11649184  0.50150993  1
  H+  H216  1  0.10327145  0.24697806  0.16095948  1
  H+  H217  1  0.32851290  0.96085532  0.00081583  1
  H+  H218  1  0.26480290  0.42436897  0.48129931  1
  H+  H219  1  0.71883110  0.85878878  0.84011959  1
  H+  H220  1  0.66141610  0.07848649  0.27030216  1
  H+  H221  1  0.58426396  0.92192378  0.11338209  1
  H+  H222  1  0.11211166  0.63450810  0.67319233  1
  H+  H223  1  0.47687452  0.86793291  0.18735134  1
  H+  H224  1  0.78418968  0.41097894  0.33030409  1
  H+  H225  1  0.86055071  0.23136070  0.16296811  1
  H+  H226  1  0.23209465  0.37282593  0.66069445  1
  H+  H227  1  0.72934932  0.61897818  0.16787448  1
  H+  H228  1  0.52204503  0.89137521  0.82793747  1
  H+  H229  1  0.28969488  0.52650047  0.20972655  1
  H+  H230  1  0.36011003  0.87600982  0.16117202  1
  H+  H231  1  0.02513044  0.63932722  0.67256171  1
  H+  H232  1  0.11359599  0.97082204  0.82918185  1
  H+  H233  1  0.96247504  0.09974644  0.83630847  1
  H+  H234  1  0.68490559  0.36855876  0.11493546  1
  H+  H235  1  0.78511190  0.66835354  0.48801866  1
  H+  H236  1  0.13832667  0.03325480  0.50689287  1
  H+  H237  1  0.61861396  -0.02927199  0.49951638  1
  H+  H238  1  0.08062679  0.06743509  0.21147606  1
  H+  H239  1  0.32791503  0.14692822  0.01223107  1
  H+  H240  1  0.62292591  0.64301485  0.82468531  1
  H+  H241  1  0.64145796  0.77776967  0.66765054  1
  H+  H242  1  0.61741493  0.63076756  0.67403654  1
  H+  H243  1  0.11111367  0.63217099  0.16090267  1
  H+  H244  1  0.14438084  0.37634763  0.65813967  1
  H+  H245  1  0.71465090  0.11703981  0.17907769  1
  H+  H246  1  0.88955956  0.53267707  0.65430582  1
  H+  H247  1  0.59507805  0.61412875  0.32385366  1
  H+  H248  1  0.64044697  0.36630529  0.32315480  1
  H+  H249  1  0.46973991  0.37662921  0.18238764  1
  H+  H250  1  0.89149790  -0.03480423  0.50601515  1
  H+  H251  1  0.37191517  0.47593884  0.67764850  1
  H+  H252  1  0.61062684  0.97384547  0.34603901  1
  H+  H253  1  0.02145507  0.86110159  0.35918064  1
  H+  H254  1  0.87892050  0.73671991  0.40051031  1
  H+  H255  1  0.84874794  -0.00997271  0.15780596  1
  H+  H256  1  0.63284610  0.40129236  0.82903095  1
  H+  H257  1  0.04146114  0.39350876  0.33795029  1
  H+  H258  1  0.61750576  0.71037800  0.50268336  1
  H+  H259  1  0.70476105  0.32573311  0.55228674  1
  H+  H260  1  0.73295650  0.38066449  0.99858970  1
  H+  H261  1  0.32103847  0.90486067  0.05814106  1
  H+  H262  1  0.23712833  0.37169326  0.98945391  1
  H+  H263  1  0.04352619  0.88088094  0.17842072  1
  H+  H264  1  0.61878757  0.88138360  0.50005623  1
  H+  H265  1  0.11020160  0.87910517  0.67363483  1
  H+  H266  1  0.52784210  0.14457206  0.67478922  1
  H+  H267  1  0.60731349  0.73039499  0.16797554  1
  H+  H268  1  0.97559551  0.86378970  0.66044005  1
  H+  H269  1  0.78160832  0.64107840  0.83040350  1
  H+  H270  1  0.63595670  0.10485680  0.50251320  1
  H+  H271  1  0.14193074  0.86805140  0.33459055  1
  H+  H272  1  0.77942877  0.39377020  0.82009080  1
  H+  H273  1  0.85245792  0.38314985  0.00904865  1
  H+  H274  1  0.89003133  0.02994012  0.99168804  1
  H+  H275  1  0.62427880  0.22313061  0.48341924  1
  H+  H276  1  0.47891405  0.12373916  0.84241888  1
  H+  H277  1  0.61547775  0.72935771  0.82150257  1
  H+  H278  1  0.73500773  0.38453674  0.64843583  1
  H+  H279  1  0.85971622  0.88495540  0.83558671  1
  H+  H280  1  0.11833991  0.23574208  0.00135355  1
  H+  H281  1  0.86250000  0.73191733  0.67406322  1
  H+  H282  1  0.03055370  0.05435368  0.78156634  1
  H+  H283  1  0.36699062  0.73653699  0.16740256  1
  H+  H284  1  0.14399178  0.85372093  0.17687087  1
  H+  H285  1  0.36328417  0.21941723  0.67454020  1
  H+  H286  1  0.63024382  0.85921083  0.33513953  1
  H+  H287  1  0.39055920  0.11119361  0.66343519  1
  H+  H288  1  0.65071862  0.53666807  0.84313765  1
  H+  H289  1  0.31515070  0.70247053  0.41594746  1
  H+  H290  1  0.83799477  0.66751825  0.06233189  1
  H+  H291  1  0.37038391  0.54575477  0.24771753  1
  H+  H292  1  0.64107520  0.62205737  0.17102532  1
  H+  H293  1  0.16187897  0.58044135  0.93428464  1
  H+  H294  1  0.17314792  0.33896031  0.90047717  1
  H+  H295  1  0.91249212  0.08579129  0.89951741  1
  H+  H296  1  0.42527245  0.08732812  0.60427723  1
  H+  H297  1  0.43538853  0.34324143  0.91336927  1
  H+  H298  1  0.16296010  0.83540947  0.57286038  1
  H+  H299  1  0.91226510  0.80110183  0.25210075  1
  H+  H300  1  0.82887993  0.15023798  0.40695697  1
  H+  H301  1  0.36428931  0.14340239  0.49909058  1
  H+  H302  1  0.59438808  0.43060096  0.73911952  1
  H+  H303  1  0.32687771  0.16643047  0.41133442  1
  H+  H304  1  0.23511648  0.87521523  0.33470116  1
  H+  H305  1  0.87976750  0.43024185  0.32169721  1
  H+  H306  1  0.93542343  0.31505381  0.26166454  1
  H+  H307  1  0.16614212  0.08871061  0.56772746  1
  H+  H308  1  0.41042745  0.33336193  0.28179190  1
  H+  H309  1  0.62940813  0.02613095  0.18094581  1
  H+  H310  1  0.32735126  0.47056783  0.42360664  1
  H+  H311  1  0.58353285  0.91945402  0.73653334  1
  H+  H312  1  0.10923553  0.56508188  0.56837404  1
  H+  H313  1  0.17427814  0.82750382  0.23744374  1
  H+  H314  1  0.99129937  0.10750064  0.50571138  1
  H+  H315  1  0.84721021  0.90697353  0.40848520  1
  H+  H316  1  0.08673967  0.68772392  0.41199469  1
  H+  H317  1  0.69454071  0.60509444  0.56878760  1
  H+  H318  1  0.43789272  0.56036863  0.59854168  1
  H+  H319  1  0.08157300  0.18184387  0.06232900  1
  H+  H320  1  0.83279399  0.91808842  0.74092225  1
  H+  H321  1  0.39230839  0.51087262  0.51097362  1
  H+  H322  1  0.97904270  0.86554150  0.84307396  1
  H+  H323  1  0.08520745  0.91333008  0.41156662  1
  H+  H324  1  0.33813614  0.41584503  0.73678297  1
  H+  H325  1  0.47998059  0.61401016  0.83005724  1
  H+  H326  1  0.22146801  0.10905528  0.34294342  1
  H+  H327  1  0.55757384  0.17792510  0.07358120  1
  H+  H328  1  0.09407124  0.15515451  0.15872318  1
  H+  H329  1  0.44133709  0.36336428  0.57898046  1
  H+  H330  1  0.61520638  0.22547997  0.33283124  1
  H+  H331  1  0.92698048  0.60332707  0.23270494  1
  H+  H332  1  0.12549720  0.48961655  0.33558217  1
  H+  H333  1  0.42806402  0.58077520  0.92750729  1
  H+  H334  1  0.92410878  0.34395401  0.59389961  1
  H+  H335  1  0.65781747  0.82947764  0.93350124  1
  H+  H336  1  0.08900807  0.17397923  0.43475283  1
  H+  H337  1  0.67394459  0.33763243  0.26570061  1
  H+  H338  1  0.37574905  0.70390923  0.33143134  1
  H+  H339  1  0.33565595  0.42006824  0.05985222  1
  H+  H340  1  0.08515253  0.42018371  0.09639029  1
  H+  H341  1  0.07924679  0.65498243  0.06528402  1
  H+  H342  1  0.82412828  0.92560335  0.05823486  1
  H+  H343  1  0.24760744  0.39259796  0.32154863  1
  H+  H344  1  0.58284162  0.66008756  0.73771035  1
  H+  H345  1  0.20023295  0.05507645  0.25789827  1
  H+  H346  1  0.35408319  0.19037416  0.07686472  1
  H+  H347  1  0.35984348  0.64474669  0.16299499  1
  H+  H348  1  0.63881889  0.53236003  0.99469444  1
  H+  H349  1  0.33485775  0.91857832  0.73246819  1
  H+  H350  1  0.80065855  0.27224687  0.94728885  1
  H+  H351  1  0.38958752  0.08186216  0.93284951  1
  H+  H352  1  0.42034827  0.84522360  0.56629594  1
  H+  H353  1  0.07919120  0.91012716  0.73166649  1
  H+  H354  1  0.28127678  0.38260299  0.83162311  1
  H+  H355  1  0.90861333  0.33494428  0.88820043  1
  H+  H356  1  0.57983738  0.16251242  0.42701850  1
  H+  H357  1  0.32808644  0.92969019  0.44237809  1
  H+  H358  1  0.08447857  0.91708498  0.07380184  1
  H+  H359  1  0.48154019  0.04294305  0.20830391  1
  H+  H360  1  0.83913493  0.17093759  0.07203466  1
  H+  H361  1  0.63375818  0.02402244  0.66164871  1
  H+  H362  1  0.16988290  0.34336668  0.56389883  1
  H+  H363  1  0.92672662  0.07446479  0.59889268  1
  H+  H364  1  0.91140895  0.08305227  0.23555122  1
  H+  H365  1  0.32993669  0.66303413  0.76551362  1
  H+  H366  1  0.08085375  0.41722030  0.72882644  1
  H+  H367  1  0.91877404  0.83942098  0.93969217  1
  H+  H368  1  0.22528694  0.10556109  0.65535823  1
  H+  H369  1  0.91846653  0.60128500  0.59987852  1
  H+  H370  1  0.91762172  0.66474939  0.32839565  1
  H+  H371  1  0.37029231  0.72822118  0.64043231  1
  H+  H372  1  0.07740290  0.65746755  0.76710142  1
  H+  H373  1  0.66710889  0.58113699  0.26630978  1
  H+  H374  1  0.58513911  0.91446626  0.40644499  1
  H+  H375  1  0.83777675  0.67089631  0.76861258  1
  H+  H376  1  0.41084131  0.83992561  0.89457787  1
  H+  H377  1  0.83516763  0.42261853  0.71994481  1
  H+  H378  1  0.39221774  0.28557802  1.00294879  1
  H+  H379  1  0.33699349  0.68610576  0.05861853  1
  H+  H380  1  0.84605582  0.42780553  0.07105304  1
  H+  H381  1  0.84047920  0.89879914  0.15099434  1
  H+  H382  1  0.08821848  0.42379533  0.43126847  1
  H+  H383  1  0.41181551  0.08467449  0.27061037  1
  O2-  O384  1  0.06733719  0.18718657  0.14296659  1
  O2-  O385  1  0.08912133  0.17418244  0.47991977  1
  O2-  O386  1  0.05618904  0.11201654  0.79868554  1
  O2-  O387  1  0.08294873  0.42125401  0.14183625  1
  O2-  O388  1  0.07651837  0.41620086  0.47623872  1
  O2-  O389  1  0.08326245  0.41568052  0.80772837  1
  O2-  O390  1  0.07913936  0.66180484  0.14752002  1
  O2-  O391  1  0.07544002  0.68121675  0.47831670  1
  O2-  O392  1  0.07525080  0.65682118  0.81286090  1
  O2-  O393  1  0.09843146  0.90961678  0.15602442  1
  O2-  O394  1  0.08042610  0.92266903  0.48624706  1
  O2-  O395  1  0.07970459  0.91170584  0.81177536  1
  O2-  O396  1  0.40622040  0.19534064  0.14632590  1
  O2-  O397  1  0.33371195  0.17107348  0.48098508  1
  O2-  O398  1  0.31858833  0.15634257  0.80992799  1
  O2-  O399  1  0.32330552  0.40762099  0.13950541  1
  O2-  O400  1  0.31550589  0.47797556  0.46733361  1
  O2-  O401  1  0.34152110  0.41256499  0.81593330  1
  O2-  O402  1  0.33654569  0.67968264  0.14616832  1
  O2-  O403  1  0.31675233  0.75636187  0.42713091  1
  O2-  O404  1  0.33051099  0.66377148  0.80978746  1
  O2-  O405  1  0.33283555  0.90829053  0.14433560  1
  O2-  O406  1  0.32679649  0.92915371  0.48777579  1
  O2-  O407  1  0.33142583  0.91932438  0.81001053  1
  O2-  O408  1  0.54764055  0.19004314  0.11605556  1
  O2-  O409  1  0.58344473  0.16263336  0.47231572  1
  O2-  O410  1  0.58958163  0.17871131  0.81716492  1
  O2-  O411  1  0.57457166  0.42709358  0.14893930  1
  O2-  O412  1  0.63542206  0.42996850  0.54179859  1
  O2-  O413  1  0.60317616  0.43347434  0.81604521  1
  O2-  O414  1  0.58195614  0.67133379  0.14920999  1
  O2-  O415  1  0.59616669  0.65139206  0.48779501  1
  O2-  O416  1  0.58998221  0.66847936  0.80521670  1
  O2-  O417  1  0.57639737  0.92032595  0.15930211  1
  O2-  O418  1  0.58727681  0.90989759  0.48453945  1
  O2-  O419  1  0.58381200  0.91920158  0.81439576  1
  O2-  O420  1  0.82615534  0.17103906  0.14795882  1
  O2-  O421  1  0.83536747  0.14149040  0.48552433  1
  O2-  O422  1  0.81825513  0.16225282  0.81343977  1
  O2-  O423  1  0.85070432  0.42639070  0.15219823  1
  O2-  O424  1  0.86692583  0.45184067  0.46614439  1
  O2-  O425  1  0.83748574  0.42184080  0.80046184  1
  O2-  O426  1  0.83596882  0.66681418  0.14228656  1
  O2-  O427  1  0.84592938  0.70817192  0.47410718  1
  O2-  O428  1  0.84194645  0.66932916  0.81406740  1
  O2-  O429  1  0.81220447  0.93083259  0.13970254  1
  O2-  O430  1  0.85733144  0.90162089  0.49362699  1
  O2-  O431  1  0.82618948  0.91137851  0.81956832  1
  O2-  O432  1  0.22298495  0.03954015  0.22115151  1
  O2-  O433  1  0.16806660  0.09350778  0.52144900  1
  O2-  O434  1  0.16666930  0.07523079  0.85807324  1
  O2-  O435  1  0.16549517  0.34233339  0.18818315  1
  O2-  O436  1  0.16519139  0.34328076  0.51861831  1
  O2-  O437  1  0.17358877  0.33784766  0.85408651  1
  O2-  O438  1  0.16998728  0.58764464  0.18217331  1
  O2-  O439  1  0.07721409  0.55283614  0.52932785  1
  O2-  O440  1  0.16145438  0.57906790  0.85181462  1
  O2-  O441  1  0.17415852  0.82300376  0.19243713  1
  O2-  O442  1  0.15949888  0.83751593  0.52718663  1
  O2-  O443  1  0.16390563  0.83109681  0.84992016  1
  O2-  O444  1  0.44011103  0.05677965  0.19052018  1
  O2-  O445  1  0.42228016  0.09404434  0.52746399  1
  O2-  O446  1  0.41806079  0.09180128  0.85665567  1
  O2-  O447  1  0.40914695  0.33865674  0.19543557  1
  O2-  O448  1  0.46571389  0.39759855  0.54151136  1
  O2-  O449  1  0.44096410  0.33858825  0.86689065  1
  O2-  O450  1  0.35095831  0.54764912  0.20443666  1
  O2-  O451  1  0.44444605  0.53138729  0.53982263  1
  O2-  O452  1  0.41949616  0.58590171  0.84429665  1
  O2-  O453  1  0.41487731  0.83509330  0.20075020  1
  O2-  O454  1  0.42118528  0.85210761  0.52130319  1
  O2-  O455  1  0.41676472  0.84217914  0.84641746  1
  O2-  O456  1  0.65648091  0.08606580  0.19716590  1
  O2-  O457  1  0.66532692  0.07572192  0.52077936  1
  O2-  O458  1  0.66200898  0.08677030  0.85615689  1
  O2-  O459  1  0.67303484  0.34239803  0.15533418  1
  O2-  O460  1  0.70344202  0.32708130  0.50751388  1
  O2-  O461  1  0.67979329  0.34465855  0.85387857  1
  O2-  O462  1  0.66918698  0.58877015  0.18350755  1
  O2-  O463  1  0.69579287  0.59713257  0.52437025  1
  O2-  O464  1  0.67901386  0.59816777  0.85625381  1
  O2-  O465  1  0.65386200  0.82942507  0.19694075  1
  O2-  O466  1  0.67725015  0.82909427  0.52832642  1
  O2-  O467  1  0.65684512  0.82581142  0.85220150  1
  O2-  O468  1  0.90625338  0.08646877  0.19025723  1
  O2-  O469  1  0.93101823  0.06681102  0.52060360  1
  O2-  O470  1  0.90454641  0.07782730  0.85447981  1
  O2-  O471  1  0.92421374  0.33535778  0.19026894  1
  O2-  O472  1  0.91799577  0.31425596  0.51253049  1
  O2-  O473  1  0.91826605  0.33859232  0.84383041  1
  O2-  O474  1  0.92115108  0.59019170  0.18861669  1
  O2-  O475  1  0.91399689  0.61554375  0.52007789  1
  O2-  O476  1  0.92081572  0.58966493  0.84982808  1
  O2-  O477  1  0.93417658  0.82051211  0.20946230  1
  O2-  O478  1  0.90645704  0.86374124  0.52101175  1
  O2-  O479  1  0.91898480  0.83655389  0.85982699  1
  O2-  O480  1  0.16283019  0.07778287  0.32269996  1
  O2-  O481  1  0.16563149  0.07750959  0.63967996  1
  O2-  O482  1  0.15929370  0.07950941  0.97517951  1
  O2-  O483  1  0.18523715  0.35304988  0.30924662  1
  O2-  O484  1  0.17344738  0.34506164  0.64286798  1
  O2-  O485  1  0.17582960  0.34107223  0.97392105  1
  O2-  O486  1  0.17050579  0.58074784  0.30738275  1
  O2-  O487  1  0.15809521  0.58141917  0.64089060  1
  O2-  O488  1  0.16079995  0.57736680  0.97935937  1
  O2-  O489  1  0.17383081  0.83896625  0.31952202  1
  O2-  O490  1  0.16909317  0.83189702  0.64879920  1
  O2-  O491  1  0.08806435  0.78611680  0.96608243  1
  O2-  O492  1  0.41356057  0.09336766  0.31494191  1
  O2-  O493  1  0.42472487  0.08381597  0.64992631  1
  O2-  O494  1  0.37030063  0.07489607  0.97623661  1
  O2-  O495  1  0.42480846  0.33251657  0.32493604  1
  O2-  O496  1  0.41777089  0.32623966  0.65796125  1
  O2-  O497  1  0.42651743  0.34496213  0.98338160  1
  O2-  O498  1  0.39029178  0.54604971  0.31874918  1
  O2-  O499  1  0.43610240  0.58122185  0.64435923  1
  O2-  O500  1  0.42799102  0.57037023  0.97154678  1
  O2-  O501  1  0.41190950  0.84483972  0.33111504  1
  O2-  O502  1  0.41828164  0.83386507  0.64566286  1
  O2-  O503  1  0.40563010  0.83996197  0.96032417  1
  O2-  O504  1  0.65963550  0.07652774  0.31660870  1
  O2-  O505  1  0.66210455  0.08218431  0.64259528  1
  O2-  O506  1  0.67849774  0.09080079  0.98144871  1
  O2-  O507  1  0.67815110  0.34155639  0.30998741  1
  O2-  O508  1  0.67357812  0.35401346  0.63432665  1
  O2-  O509  1  0.67428824  0.35080060  0.97990218  1
  O2-  O510  1  0.66084611  0.57869751  0.31103553  1
  O2-  O511  1  0.66957254  0.59298176  0.65206555  1
  O2-  O512  1  0.67063672  0.59261666  0.97935918  1
  O2-  O513  1  0.65789055  0.82694633  0.31852991  1
  O2-  O514  1  0.67106009  0.83724460  0.65276007  1
  O2-  O515  1  0.66192140  0.83107185  0.97872569  1
  O2-  O516  1  0.91616892  0.07565297  0.31394919  1
  O2-  O517  1  0.92095996  0.08413478  0.64286489  1
  O2-  O518  1  0.91906716  0.09132576  0.97818229  1
  O2-  O519  1  0.94799560  0.30024973  0.30342073  1
  O2-  O520  1  0.92084496  0.34496256  0.63881104  1
  O2-  O521  1  0.85784165  0.30361571  0.96538836  1
  O2-  O522  1  0.93770655  0.62521796  0.31423027  1
  O2-  O523  1  0.91965867  0.59576164  0.64492109  1
  O2-  O524  1  0.88028929  0.56801222  0.95598003  1
  O2-  O525  1  0.85964782  0.77349041  0.31898292  1
  O2-  O526  1  0.91308824  0.83641837  0.64872162  1
  O2-  O527  1  0.91415014  0.83946652  0.98500408  1
  O2-  O528  1  0.08405881  0.17601461  0.01759282  1
  O2-  O529  1  0.08687864  0.17421056  0.35126406  1
  O2-  O530  1  0.07020463  0.19223420  0.70129567  1
  O2-  O531  1  0.09170970  0.42230132  0.01779005  1
  O2-  O532  1  0.09931919  0.42968277  0.35524966  1
  O2-  O533  1  0.08371162  0.42139559  0.68348941  1
  O2-  O534  1  0.07419222  0.64518849  0.02083294  1
  O2-  O535  1  0.09123629  0.69019077  0.36427431  1
  O2-  O536  1  0.08392956  0.66585135  0.69058142  1
  O2-  O537  1  0.08121351  0.92010356  0.02898805  1
  O2-  O538  1  0.08160867  0.90629264  0.36597631  1
  O2-  O539  1  0.07713143  0.90763815  0.68625088  1
  O2-  O540  1  0.33481789  0.19632970  0.03599294  1
  O2-  O541  1  0.32138467  0.16586779  0.36447395  1
  O2-  O542  1  0.33214969  0.15653618  0.68449039  1
  O2-  O543  1  0.33679453  0.41848474  0.01460595  1
  O2-  O544  1  0.34629644  0.46171548  0.34862901  1
  O2-  O545  1  0.33747540  0.41545728  0.69141393  1
  O2-  O546  1  0.33314937  0.68452178  0.01401784  1
  O2-  O547  1  0.33475424  0.65038806  0.35142117  1
  O2-  O548  1  0.34262855  0.66494445  0.62995139  1
  O2-  O549  1  0.31279086  0.90245898  0.01372206  1
  O2-  O550  1  0.33164396  0.93393653  0.36171334  1
  O2-  O551  1  0.33557721  0.91582889  0.68683162  1
  O2-  O552  1  0.59307332  0.18397329  -0.00020884  1
  O2-  O553  1  0.58021643  0.16528941  0.34677018  1
  O2-  O554  1  0.58908533  0.17707304  0.68948949  1
  O2-  O555  1  0.58780767  0.42567067  0.02344328  1
  O2-  O556  1  0.58442672  0.40742241  0.34715309  1
  O2-  O557  1  0.58905477  0.42868475  0.69363383  1
  O2-  O558  1  0.58828007  0.67055517  0.02212148  1
  O2-  O559  1  0.55144653  0.63365489  0.32816721  1
  O2-  O560  1  0.58086689  0.65751354  0.69000711  1
  O2-  O561  1  0.60468186  0.92968056  0.04222051  1
  O2-  O562  1  0.58027443  0.91298690  0.36096554  1
  O2-  O563  1  0.58183652  0.91795282  0.69078388  1
  O2-  O564  1  0.84066259  0.17108108  0.02628586  1
  O2-  O565  1  0.82602761  0.15019923  0.36138089  1
  O2-  O566  1  0.84145543  0.18113120  0.65525532  1
  O2-  O567  1  0.83604700  0.42427694  0.02613034  1
  O2-  O568  1  0.84571562  0.45081845  0.34264409  1
  O2-  O569  1  0.83686980  0.42637473  0.67470183  1
  O2-  O570  1  0.83618435  0.66883821  0.01693576  1
  O2-  O571  1  0.91364763  0.75724960  0.36143212  1
  O2-  O572  1  0.83256946  0.67180001  0.69050264  1
  O2-  O573  1  0.83018528  0.92392862  0.01356805  1
  O2-  O574  1  0.83809404  0.90303477  0.36391917  1
  O2-  O575  1  0.83236503  0.91894992  0.69536772  1
