# generated using pymatgen
data_H2O
_symmetry_space_group_name_H-M   'P 1'
_cell_length_a   17.96043669
_cell_length_b   17.97163090
_cell_length_c   21.98500673
_cell_angle_alpha   90.00671226
_cell_angle_beta   89.97677308
_cell_angle_gamma   120.01454932
_symmetry_Int_Tables_number   1
_chemical_formula_structural   H2O
_chemical_formula_sum   'H384 O192'
_cell_volume   6144.66045075
_cell_formula_units_Z   192
loop_
 _symmetry_equiv_pos_site_id
 _symmetry_equiv_pos_as_xyz
  1  'x, y, z'
loop_
 _atom_type_symbol
 _atom_type_oxidation_number
  H+  1.0
  O2-  -2.0
loop_
 _atom_site_type_symbol
 _atom_site_label
 _atom_site_symmetry_multiplicity
 _atom_site_fract_x
 _atom_site_fract_y
 _atom_site_fract_z
 _atom_site_occupancy
  H+  H0  1  0.86278713  0.99964136  0.66071470  1
  H+  H1  1  0.63456751  1.01545311  0.32693174  1
  H+  H2  1  0.89117551  0.89369349  0.51402007  1
  H+  H3  1  0.28019357  0.13349753  0.82915266  1
  H+  H4  1  0.98056804  0.36519526  0.33204043  1
  H+  H5  1  0.64198711  0.59205887  0.66117934  1
  H+  H6  1  0.26108994  0.40349914  0.66647167  1
  H+  H7  1  0.96291622  0.62136243  0.84458355  1
  H+  H8  1  0.61411038  -0.01551639  0.49373353  1
  H+  H9  1  0.76127563  0.37170927  0.67717425  1
  H+  H10  1  0.38526778  1.00838477  0.18286876  1
  H+  H11  1  0.37278593  0.75492176  0.65408131  1
  H+  H12  1  0.35055471  0.45819059  0.82869316  1
  H+  H13  1  0.52488539  0.39754963  0.67246841  1
  H+  H14  1  0.78484252  0.15725450  0.67362911  1
  H+  H15  1  0.90204395  0.26398484  0.66215799  1
  H+  H16  1  0.13984536  0.86809204  0.99379965  1
  H+  H17  1  0.11127733  0.98000545  0.16068080  1
  H+  H18  1  0.52263102  0.13250990  0.00274082  1
  H+  H19  1  0.99378029  0.35931430  0.65679295  1
  H+  H20  1  -0.02909925  0.10522813  0.32655126  1
  H+  H21  1  0.34101245  0.67069796  0.41990135  1
  H+  H22  1  0.38196571  0.35882852  0.17709325  1
  H+  H23  1  1.00994618  0.14847472  1.01809884  1
  H+  H24  1  0.64200847  0.37008035  0.17814567  1
  H+  H25  1  0.83512894  0.66379782  0.73719290  1
  H+  H26  1  0.88694383  0.76446935  0.33693463  1
  H+  H27  1  0.39053048  0.02739583  0.99882362  1
  H+  H28  1  0.40355090  0.41768552  0.65498237  1
  H+  H29  1  0.12426881  0.39347740  0.67122740  1
  H+  H30  1  0.71806798  0.09312536  0.83843731  1
  H+  H31  1  0.23072844  0.60971456  0.83035676  1
  H+  H32  1  0.95493280  0.08816795  0.18061808  1
  H+  H33  1  0.83570130  0.87044318  0.67594094  1
  H+  H34  1  0.85597255  0.63907738  0.83746867  1
  H+  H35  1  0.23170707  0.83368420  0.65951743  1
  H+  H36  1  0.38941470  0.01616793  0.33547385  1
  H+  H37  1  0.12319648  0.12406054  0.64528734  1
  H+  H38  1  0.32422976  0.63474288  0.18610867  1
  H+  H39  1  0.14643445  0.65403582  0.00767081  1
  H+  H40  1  0.38711634  0.52774731  0.64193983  1
  H+  H41  1  0.59730854  0.10767222  0.82577163  1
  H+  H42  1  0.11505230  0.48478966  0.31800060  1
  H+  H43  1  0.14052192  0.39807792  0.47591594  1
  H+  H44  1  0.15103252  0.26610606  0.66154499  1
  H+  H45  1  0.22741900  0.10832202  -0.00640960  1
  H+  H46  1  0.47026667  0.08989908  0.84341540  1
  H+  H47  1  0.53029246  0.38825486  0.49135006  1
  H+  H48  1  0.59442982  0.71127311  0.15853297  1
  H+  H49  1  0.36079381  0.95536106  0.66950683  1
  H+  H50  1  0.82908043  0.89900935  0.10566842  1
  H+  H51  1  0.36029375  0.12980129  0.34228118  1
  H+  H52  1  0.10724121  0.22438934  0.48194869  1
  H+  H53  1  0.72536700  0.35144030  0.51345308  1
  H+  H54  1  0.89226931  0.27280341  0.33803958  1
  H+  H55  1  0.62505339  0.73872240  0.32663521  1
  H+  H56  1  0.35335404  0.22596811  0.15959026  1
  H+  H57  1  0.41604209  0.33547575  0.94138013  1
  H+  H58  1  0.47279287  0.11266551  0.18441255  1
  H+  H59  1  0.88780306  0.28261179  0.97119520  1
  H+  H60  1  0.59671760  0.24244335  0.16207377  1
  H+  H61  1  0.73186876  0.59575503  0.66698841  1
  H+  H62  1  0.86430836  0.38327173  0.35346191  1
  H+  H63  1  0.09965419  0.74640276  0.82130514  1
  H+  H64  1  0.65606520  0.14538156  0.65847943  1
  H+  H65  1  0.77333663  0.13327715  0.33924637  1
  H+  H66  1  0.27163624  0.39454144  1.00900707  1
  H+  H67  1  0.72718028  0.86724018  1.00263860  1
  H+  H68  1  0.62959449  0.61367149  0.83525849  1
  H+  H69  1  0.88190176  0.37302783  0.83158021  1
  H+  H70  1  0.17427442  0.29962984  0.15002054  1
  H+  H71  1  0.61968457  0.34767204  0.66057083  1
  H+  H72  1  0.54794111  0.61112147  0.14471213  1
  H+  H73  1  0.92387167  0.32073552  0.58845369  1
  H+  H74  1  0.76489338  0.87466273  0.34130590  1
  H+  H75  1  0.62246165  0.10310645  0.17979460  1
  H+  H76  1  0.14285605  0.11891825  0.83718401  1
  H+  H77  1  0.38604207  0.26477562  0.85301837  1
  H+  H78  1  0.63426308  0.61956465  0.99311168  1
  H+  H79  1  0.17841910  0.33931168  0.25535495  1
  H+  H80  1  0.12172962  0.28703673  0.00538326  1
  H+  H81  1  0.12836052  0.11843325  0.48716642  1
  H+  H82  1  0.32273618  0.16676044  0.10051019  1
  H+  H83  1  0.26096360  0.10847577  0.69646169  1
  H+  H84  1  0.77341242  0.64348659  1.01193055  1
  H+  H85  1  0.11236985  0.13803075  0.33044942  1
  H+  H86  1  0.82248834  0.15858379  0.11698401  1
  H+  H87  1  0.11526523  0.39104779  0.17087725  1
  H+  H88  1  0.46108157  0.84356758  0.65198641  1
  H+  H89  1  0.88020394  0.52293860  0.99680313  1
  H+  H90  1  0.61665920  0.70371244  0.66722785  1
  H+  H91  1  0.85305999  0.36386230  0.16555813  1
  H+  H92  1  0.38261240  0.80800415  0.09196700  1
  H+  H93  1  0.22584304  0.87049930  0.33980029  1
  H+  H94  1  0.35575619  0.88870394  0.15285534  1
  H+  H95  1  0.36267109  -0.03913477  0.82912679  1
  H+  H96  1  0.61304767  0.22111682  0.34135534  1
  H+  H97  1  0.12472723  0.59640460  0.24279476  1
  H+  H98  1  0.36928244  0.39126398  0.48431355  1
  H+  H99  1  0.01397388  0.87624265  0.34281720  1
  H+  H100  1  0.97734821  0.86649860  0.99868581  1
  H+  H101  1  0.07741636  0.19668363  0.19668266  1
  H+  H102  1  0.88235117  0.85168689  0.33429670  1
  H+  H103  1  0.38216267  0.59871182  0.82671179  1
  H+  H104  1  0.86042728  0.12495791  0.82910131  1
  H+  H105  1  0.86020960  0.38709079  1.00345522  1
  H+  H106  1  1.02771288  0.88597806  0.16344033  1
  H+  H107  1  0.52207516  0.39368036  0.01004237  1
  H+  H108  1  0.59167028  1.00498317  0.71107754  1
  H+  H109  1  0.85979017  0.73191359  0.83566546  1
  H+  H110  1  0.64005153  0.36026959  0.33141141  1
  H+  H111  1  0.10764246  0.22880464  0.83188677  1
  H+  H112  1  0.13471635  0.91698653  0.63894722  1
  H+  H113  1  0.50971428  0.12624302  0.48938658  1
  H+  H114  1  0.14231412  0.74440901  0.65654209  1
  H+  H115  1  0.58437169  0.42570488  0.06817303  1
  H+  H116  1  0.31484104  0.60880077  0.50784253  1
  H+  H117  1  0.63675565  0.01263006  0.71116043  1
  H+  H118  1  0.46120312  0.25901210  0.70883752  1
  H+  H119  1  0.52599560  0.62075653  0.66141639  1
  H+  H120  1  0.22082340  0.11936754  0.16974413  1
  H+  H121  1  0.85646115  0.12850110  0.67607902  1
  H+  H122  1  0.08426495  0.41444061  0.76524062  1
  H+  H123  1  0.33250423  0.16565203  0.39913929  1
  H+  H124  1  0.86547696  0.46466670  0.50660432  1
  H+  H125  1  0.63326116  0.11502600  0.50391474  1
  H+  H126  1  0.60902639  0.81501947  0.66414112  1
  H+  H127  1  0.86640452  0.75390143  0.66713141  1
  H+  H128  1  0.61745641  0.88658178  0.33893133  1
  H+  H129  1  0.13824170  0.02766525  0.84076136  1
  H+  H130  1  0.88414354  0.86806715  0.84257412  1
  H+  H131  1  0.91463262  0.59867909  0.15577602  1
  H+  H132  1  0.10241363  0.12799671  0.17251177  1
  H+  H133  1  0.87656376  0.01736107  0.50079600  1
  H+  H134  1  0.86474447  0.08584153  0.18101940  1
  H+  H135  1  0.20579150  0.41845683  0.60497197  1
  H+  H136  1  0.21415956  0.35557835  0.84688791  1
  H+  H137  1  0.24718510  0.61845030  0.66124697  1
  H+  H138  1  0.48016908  0.18575224  0.72181536  1
  H+  H139  1  0.87289704  0.64060411  0.67574392  1
  H+  H140  1  0.33104870  0.48200787  0.71590321  1
  H+  H141  1  0.40215257  0.81647117  0.90537542  1
  H+  H142  1  0.75331427  0.11822121  0.17001500  1
  H+  H143  1  0.48148661  0.10818004  0.33304407  1
  H+  H144  1  0.85013778  -0.05005262  0.16820099  1
  H+  H145  1  0.59419553  0.21671104  0.67117935  1
  H+  H146  1  0.63549878  0.53033756  0.99408929  1
  H+  H147  1  0.75997843  0.88052332  0.49570556  1
  H+  H148  1  0.23905406  0.63393401  0.16203765  1
  H+  H149  1  0.48735397  0.47251542  0.61668578  1
  H+  H150  1  -0.03192971  0.89111147  0.69649379  1
  H+  H151  1  0.61810592  0.47657512  0.33734082  1
  H+  H152  1  0.39055290  0.09649354  0.64776011  1
  H+  H153  1  0.36515964  0.71514942  0.82209529  1
  H+  H154  1  0.38329114  0.85006458  0.84352547  1
  H+  H155  1  0.11870257  0.61595668  0.67719641  1
  H+  H156  1  0.22787170  0.86215785  0.83701820  1
  H+  H157  1  0.11339832  0.99235926  0.48039812  1
  H+  H158  1  0.11139188  0.89179652  0.83010615  1
  H+  H159  1  0.87979211  0.10457329  0.98011203  1
  H+  H160  1  0.54790240  0.84763151  0.74623408  1
  H+  H161  1  0.37162976  0.64639207  0.66478619  1
  H+  H162  1  0.61963811  0.88719557  0.00936750  1
  H+  H163  1  0.63278890  0.27488843  0.99881131  1
  H+  H164  1  0.86115217  0.88450433  1.01195881  1
  H+  H165  1  0.63022272  0.10440997  0.98889467  1
  H+  H166  1  0.37844812  0.34973894  0.84736895  1
  H+  H167  1  0.63448503  0.10559537  0.32709417  1
  H+  H168  1  0.36866823  0.14170118  0.00687768  1
  H+  H169  1  0.82409498  0.91310303  0.73667085  1
  H+  H170  1  0.11214226  0.49061187  0.98388725  1
  H+  H171  1  -0.01900566  0.60272018  0.50365529  1
  H+  H172  1  0.88781425  0.52298864  0.34526079  1
  H+  H173  1  1.01852665  0.37456524  0.18106261  1
  H+  H174  1  0.25070229  0.81488518  0.51443091  1
  H+  H175  1  0.38668740  0.51790421  0.98519506  1
  H+  H176  1  0.35854360  0.13426141  0.49136258  1
  H+  H177  1  0.88120464  0.61179723  0.99722850  1
  H+  H178  1  0.90865035  0.32405067  0.24700258  1
  H+  H179  1  0.88406789  0.71551152  0.16482791  1
  H+  H180  1  0.85907321  0.13334721  0.49383464  1
  H+  H181  1  0.10764824  0.39200854  0.99494828  1
  H+  H182  1  0.86381328  0.73136731  0.01248782  1
  H+  H183  1  0.62135122  0.46770981  0.67841295  1
  H+  H184  1  0.77269966  0.38915199  0.83518796  1
  H+  H185  1  0.57512038  0.74897111  0.47472402  1
  H+  H186  1  0.59111294  0.96750233  0.15609888  1
  H+  H187  1  0.02423673  0.71860558  0.77522246  1
  H+  H188  1  0.23354021  0.35514450  0.49549137  1
  H+  H189  1  0.36327994  0.88661185  0.35246992  1
  H+  H190  1  0.33031438  0.42341664  0.42928890  1
  H+  H191  1  0.02026829  0.38905745  0.82213239  1
  H+  H192  1  0.63500164  0.78042284  -0.00669412  1
  H+  H193  1  0.16811874  0.94505540  0.61612523  1
  H+  H194  1  0.86501818  0.63078910  0.34989658  1
  H+  H195  1  0.22556304  0.10970962  0.32808809  1
  H+  H196  1  0.20331587  0.23737888  0.70090560  1
  H+  H197  1  0.13437629  0.02252793  0.32696152  1
  H+  H198  1  0.64990022  0.06810484  0.23790554  1
  H+  H199  1  0.89525581  0.50127977  0.15750318  1
  H+  H200  1  0.21427744  0.62496621  0.26895417  1
  H+  H201  1  0.14657570  0.87785415  0.17798060  1
  H+  H202  1  0.58071482  0.15988263  0.40022857  1
  H+  H203  1  0.62092480  0.48320545  0.16477236  1
  H+  H204  1  0.12445930  0.71827760  0.49353590  1
  H+  H205  1  0.10971397  0.88178778  0.34628208  1
  H+  H206  1  0.32218286  0.64156194  0.05346884  1
  H+  H207  1  0.75623748  0.61389249  0.17557374  1
  H+  H208  1  0.37671492  0.52138302  0.49666326  1
  H+  H209  1  0.35582915  0.71695817  0.00514877  1
  H+  H210  1  0.36354596  0.86780330  0.67102197  1
  H+  H211  1  1.01360801  0.39398839  0.98590792  1
  H+  H212  1  0.42668560  0.35402279  0.55785082  1
  H+  H213  1  0.12046836  0.39835103  0.32143958  1
  H+  H214  1  0.13950409  0.52365052  0.83229053  1
  H+  H215  1  -0.04608777  0.08584253  0.66011022  1
  H+  H216  1  0.11535044  0.97624036  0.00422656  1
  H+  H217  1  0.39037012  0.26876131  0.32204914  1
  H+  H218  1  0.04234138  -0.01199908  0.69259763  1
  H+  H219  1  0.63016252  1.00068453  0.83769871  1
  H+  H220  1  0.76810716  0.13600853  -0.03025534  1
  H+  H221  1  0.46657622  0.86101612  0.00196522  1
  H+  H222  1  0.27346471  0.89576477  0.00759316  1
  H+  H223  1  0.86134604  0.48009016  0.83143681  1
  H+  H224  1  0.44167548  0.62702437  0.16981553  1
  H+  H225  1  0.52824061  0.39570910  0.16498612  1
  H+  H226  1  0.16898305  0.52459345  0.49074189  1
  H+  H227  1  0.68868471  0.53200309  0.49002443  1
  H+  H228  1  0.97186008  0.10912722  0.84031114  1
  H+  H229  1  0.26710330  0.08273454  0.67174332  1
  H+  H230  1  0.27186632  0.89884413  0.16922092  1
  H+  H231  1  0.38308179  0.09465902  0.84943210  1
  H+  H232  1  0.85960667  0.97270929  0.01204528  1
  H+  H233  1  0.70912051  0.84465633  0.66189992  1
  H+  H234  1  1.01555639  0.13507641  0.48364048  1
  H+  H235  1  0.35777721  0.49320267  0.34121773  1
  H+  H236  1  0.34328424  0.93484149  0.40818301  1
  H+  H237  1  0.72470075  0.82002979  0.17848908  1
  H+  H238  1  0.13860617  0.77950042  0.33454749  1
  H+  H239  1  0.65072432  0.31627522  0.60172041  1
  H+  H240  1  0.68486554  0.64049291  0.18027441  1
  H+  H241  1  0.47753836  0.76405248  0.71094254  1
  H+  H242  1  0.74816989  0.88079486  0.83986432  1
  H+  H243  1  0.51388421  0.60595950  0.81709497  1
  H+  H244  1  0.88748543  0.84545699  0.17784640  1
  H+  H245  1  0.11751530  0.64686016  0.33237059  1
  H+  H246  1  0.63310940  0.36527039  1.00203936  1
  H+  H247  1  0.25887365  0.38804648  0.16378251  1
  H+  H248  1  0.83140493  0.16764678  -0.08561570  1
  H+  H249  1  0.52046520  0.63843246  -0.00784126  1
  H+  H250  1  0.27443479  0.14476206  0.49061654  1
  H+  H251  1  0.60031181  0.21707409  0.49350338  1
  H+  H252  1  1.03417544  0.58821977  0.16098153  1
  H+  H253  1  0.97504612  0.61297726  0.33821240  1
  H+  H254  1  0.44821167  0.62256828  0.48732535  1
  H+  H255  1  0.64441738  0.61812156  0.32573843  1
  H+  H256  1  0.63059528  0.87176295  0.50905648  1
  H+  H257  1  0.80992020  0.66179310  0.50363006  1
  H+  H258  1  0.86015024  0.12905811  0.34215827  1
  H+  H259  1  0.39411754  0.27942440  0.50605031  1
  H+  H260  1  0.72366877  0.35484667  0.17449062  1
  H+  H261  1  0.08542029  0.91795756  0.06495758  1
  H+  H262  1  0.82329753  0.41060107  0.73211960  1
  H+  H263  1  0.73628305  0.62977580  0.84309455  1
  H+  H264  1  0.12696679  0.36049249  0.84306421  1
  H+  H265  1  0.52130582  0.37505741  0.83274188  1
  H+  H266  1  0.47999298  0.35688736  0.32190020  1
  H+  H267  1  0.50079964  0.87688250  0.14095800  1
  H+  H268  1  0.15717512  0.78790230  -0.00283686  1
  H+  H269  1  0.12011196  0.47902146  0.67232961  1
  H+  H270  1  0.39108592  0.78164069  0.34763865  1
  H+  H271  1  0.64043389  0.35828522  0.50763766  1
  H+  H272  1  0.26766501  0.40392245  0.33869786  1
  H+  H273  1  0.77597785  0.63354281  0.34566105  1
  H+  H274  1  0.36377808  0.53138530  0.16892120  1
  H+  H275  1  0.38444940  0.36633427  -0.00052625  1
  H+  H276  1  1.02010784  0.90612877  0.49020024  1
  H+  H277  1  0.77007867  0.38405660  0.01239874  1
  H+  H278  1  0.96888950  0.86165516  0.85310444  1
  H+  H279  1  0.44101153  0.70850931  0.41344215  1
  H+  H280  1  0.87718574  0.25678413  0.19168108  1
  H+  H281  1  0.85798089  0.95999428  0.34716883  1
  H+  H282  1  0.88311506  0.35498302  0.51942092  1
  H+  H283  1  0.51515498  0.11791756  0.66270554  1
  H+  H284  1  0.13701737  0.27762193  0.31358385  1
  H+  H285  1  0.65120194  1.06442588  -0.07132725  1
  H+  H286  1  -0.01872189  0.61537035  0.65941707  1
  H+  H287  1  0.40374556  0.63080641  0.33329705  1
  H+  H288  1  0.38674230  0.60609001  0.97865115  1
  H+  H289  1  0.16498295  0.08504167  0.23172928  1
  H+  H290  1  0.35619884  0.76024003  0.15655995  1
  H+  H291  1  0.41945160  0.33137698  0.23392671  1
  H+  H292  1  0.96778494  0.94559974  0.55970505  1
  H+  H293  1  0.81995378  0.90322024  0.43534363  1
  H+  H294  1  0.40795975  0.59534652  0.26655164  1
  H+  H295  1  0.08004555  0.17044725  0.38642042  1
  H+  H296  1  0.33763817  0.43317433  0.06681901  1
  H+  H297  1  0.16714388  0.58128338  0.91595496  1
  H+  H298  1  0.52167401  0.86672129  0.83872203  1
  H+  H299  1  0.68743244  0.12182959  0.59700985  1
  H+  H300  1  0.17086274  0.08105997  0.93394603  1
  H+  H301  1  0.41975925  0.07858160  0.93618304  1
  H+  H302  1  0.88315609  0.26502701  0.51199487  1
  H+  H303  1  0.34032931  0.66584804  0.75616203  1
  H+  H304  1  0.83243363  0.16622515  0.43462340  1
  H+  H305  1  0.32878594  0.92702787  0.06986124  1
  H+  H306  1  0.61497475  0.97838730  0.00521398  1
  H+  H307  1  0.72499312  0.11856693  0.50363049  1
  H+  H308  1  0.88648063  0.59301675  0.50193842  1
  H+  H309  1  0.09381990  0.66773487  0.39882096  1
  H+  H310  1  0.58547281  0.91776534  0.39800153  1
  H+  H311  1  0.90774512  0.07315657  0.56138331  1
  H+  H312  1  0.13082814  0.67872586  0.07300974  1
  H+  H313  1  0.92041955  0.82205101  0.23849687  1
  H+  H314  1  0.29939480  0.95792068  0.50432985  1
  H+  H315  1  0.07439066  0.91865987  0.41746033  1
  H+  H316  1  0.66972623  0.59667785  0.90490433  1
  H+  H317  1  0.15480181  0.33462184  0.94004360  1
  H+  H318  1  0.17096383  0.32610013  0.55292236  1
  H+  H319  1  0.69233247  0.85249402  0.90019337  1
  H+  H320  1  0.52138663  0.90120547  0.49377519  1
  H+  H321  1  0.64272102  0.36266509  0.84540775  1
  H+  H322  1  0.40739110  0.45852211  0.14272134  1
  H+  H323  1  0.67090991  0.33018620  0.27364756  1
  H+  H324  1  0.83248736  0.40400167  0.44848433  1
  H+  H325  1  0.41121227  0.56959458  0.88720361  1
  H+  H326  1  0.37794767  0.86459240  0.00463891  1
  H+  H327  1  0.12548083  0.63109236  0.49021789  1
  H+  H328  1  0.91203463  0.83583376  0.94167154  1
  H+  H329  1  0.92218413  0.94934563  0.78060139  1
  H+  H330  1  0.18712912  0.58498152  0.60092336  1
  H+  H331  1  0.84748041  0.66217021  0.10342210  1
  H+  H332  1  0.53547770  0.65000839  0.32437417  1
  H+  H333  1  0.88302763  0.28199297  0.83229585  1
  H+  H334  1  0.92293294  0.59405844  0.60016320  1
  H+  H335  1  0.61694062  0.87501298  0.83305271  1
  H+  H336  1  0.36546870  0.22951925  0.00808856  1
  H+  H337  1  0.66536237  0.79687784  0.23795016  1
  H+  H338  1  0.06025424  0.17922255  0.08147231  1
  H+  H339  1  0.90632578  0.58394625  0.90645692  1
  H+  H340  1  0.82665024  0.39385889  0.10288049  1
  H+  H341  1  0.06101597  0.92207039  0.78249223  1
  H+  H342  1  0.42095105  0.07035343  0.25526703  1
  H+  H343  1  0.31648642  0.39285828  0.77383675  1
  H+  H344  1  0.92936572  0.27512455  0.07515511  1
  H+  H345  1  0.11722745  0.43796661  0.41762022  1
  H+  H346  1  0.58756390  0.41712756  0.39594109  1
  H+  H347  1  0.68099556  0.58675929  0.27105308  1
  H+  H348  1  0.58211588  0.16254653  0.06172821  1
  H+  H349  1  0.67735781  0.34347898  0.90651733  1
  H+  H350  1  0.33642904  0.90282408  0.76784339  1
  H+  H351  1  0.41899126  0.58772965  0.58321333  1
  H+  H352  1  0.10637125  0.51034627  0.14730342  1
  H+  H353  1  0.57815312  0.40227590  0.77256217  1
  H+  H354  1  0.77485890  0.38176938  0.35255831  1
  H+  H355  1  0.57760975  0.63550238  0.75873602  1
  H+  H356  1  0.14492826  0.08368298  0.54910637  1
  H+  H357  1  0.40824066  0.91914314  0.51714529  1
  H+  H358  1  0.08283947  0.65036041  0.73261959  1
  H+  H359  1  0.18904696  0.81329047  0.56601755  1
  H+  H360  1  0.57901783  0.91800335  0.07837848  1
  H+  H361  1  0.91746399  0.34940713  0.91766762  1
  H+  H362  1  0.41158687  0.85077258  0.56220745  1
  H+  H363  1  0.56809507  0.67033927  0.05585629  1
  H+  H364  1  0.83116916  0.16095295  0.77301513  1
  H+  H365  1  0.88960249  0.01357261  0.83332055  1
  H+  H366  1  0.91713058  0.06898336  0.93265023  1
  H+  H367  1  0.08896979  0.17984765  0.76891285  1
  H+  H368  1  0.36422178  0.17016760  0.78386610  1
  H+  H369  1  0.65181456  0.82388710  0.56322030  1
  H+  H370  1  0.40881768  0.06620940  0.58360015  1
  H+  H371  1  0.90129986  0.82349836  0.61051974  1
  H+  H372  1  0.22282972  0.60042475  0.97851001  1
  H+  H373  1  0.51422568  0.20767650  0.12070745  1
  H+  H374  1  0.90095013  0.06372898  0.27399741  1
  H+  H375  1  0.17652862  0.85093759  0.23884765  1
  H+  H376  1  0.47116619  0.86868695  0.33145594  1
  H+  H377  1  0.17145497  0.84051185  0.89805418  1
  H+  H378  1  0.15766441  0.05941162  0.64119781  1
  H+  H379  1  0.70551206  0.90022292  0.28057992  1
  H+  H380  1  0.81502137  0.63533444  0.43511340  1
  H+  H381  1  0.96280231  0.26178323  0.07356025  1
  H+  H382  1  0.55872583  0.69295249  0.41411015  1
  H+  H383  1  0.56506409  0.13857532  0.76864413  1
  O2-  O384  1  0.06384107  0.15429472  0.16464423  1
  O2-  O385  1  0.07453169  0.16394183  0.46553434  1
  O2-  O386  1  0.08266932  0.17000753  0.81296906  1
  O2-  O387  1  0.07835406  0.41702188  0.16904668  1
  O2-  O388  1  0.12543721  0.44158791  0.46257214  1
  O2-  O389  1  0.08234364  0.41412569  0.81080496  1
  O2-  O390  1  0.10014593  0.61504784  0.16943759  1
  O2-  O391  1  0.09138214  0.65806229  0.47744981  1
  O2-  O392  1  0.05290768  0.69476777  0.79935499  1
  O2-  O393  1  0.08681343  0.91959223  0.14607841  1
  O2-  O394  1  0.07753055  0.92856476  0.46887696  1
  O2-  O395  1  0.07655595  0.92077113  0.82578714  1
  O2-  O396  1  0.31726691  0.16582302  0.14569938  1
  O2-  O397  1  0.33573372  0.17336117  0.47833746  1
  O2-  O398  1  0.34439413  0.16154579  0.82678568  1
  O2-  O399  1  0.34909117  0.44714563  0.13598642  1
  O2-  O400  1  0.33288371  0.41728112  0.47563508  1
  O2-  O401  1  0.31713630  0.39464947  0.81896684  1
  O2-  O402  1  0.29328347  0.66845834  0.18530071  1
  O2-  O403  1  0.28297672  0.63845510  0.49407536  1
  O2-  O404  1  0.33736374  0.65741927  0.80296070  1
  O2-  O405  1  0.33389521  0.92986007  0.15050850  1
  O2-  O406  1  0.40295238  1.07437897  0.51113269  1
  O2-  O407  1  0.33255385  0.90025485  0.81354070  1
  O2-  O408  1  0.54954821  0.18777570  0.14101990  1
  O2-  O409  1  0.57193229  0.15772542  0.47604610  1
  O2-  O410  1  0.56090972  0.13201226  0.81340152  1
  O2-  O411  1  0.58893254  0.42307034  0.14969864  1
  O2-  O412  1  0.59200810  0.41570188  0.47635813  1
  O2-  O413  1  0.58090225  0.40136093  0.81748365  1
  O2-  O414  1  0.54622452  0.66256968  0.13308958  1
  O2-  O415  1  0.52927737  0.70398905  0.44856601  1
  O2-  O416  1  0.57534118  0.63434272  0.80428915  1
  O2-  O417  1  0.56497388  0.91161851  0.13335893  1
  O2-  O418  1  0.58201516  0.92360264  0.47897970  1
  O2-  O419  1  0.57775333  0.89579035  0.81682454  1
  O2-  O420  1  0.81632335  0.14717974  0.16060839  1
  O2-  O421  1  0.83099324  0.16639740  0.48016649  1
  O2-  O422  1  0.82886493  0.15677512  0.81858949  1
  O2-  O423  1  0.82191045  0.39219460  0.14853087  1
  O2-  O424  1  0.83139913  0.40249860  0.49411922  1
  O2-  O425  1  0.83389536  0.41946936  0.81725151  1
  O2-  O426  1  0.85315186  0.65574141  0.14829113  1
  O2-  O427  1  0.80238520  0.61350480  0.47891852  1
  O2-  O428  1  0.82767037  0.67106693  0.81980535  1
  O2-  O429  1  0.82747422  0.89123997  0.15087068  1
  O2-  O430  1  0.82149057  0.91094950  0.48104874  1
  O2-  O431  1  0.86742887  0.93165078  0.80151240  1
  O2-  O432  1  0.15942248  0.08657884  0.18668771  1
  O2-  O433  1  0.15817678  0.08780033  0.50487150  1
  O2-  O434  1  0.17520275  0.09029917  0.85047490  1
  O2-  O435  1  0.19565982  0.34950547  0.17670293  1
  O2-  O436  1  0.17045077  0.32363228  0.50796040  1
  O2-  O437  1  0.15337490  0.32789107  0.86184229  1
  O2-  O438  1  0.13351751  0.57200989  0.13070415  1
  O2-  O439  1  0.19384583  0.58433773  0.51486262  1
  O2-  O440  1  0.17157788  0.58370216  0.84771690  1
  O2-  O441  1  0.18275280  0.85444931  0.19407633  1
  O2-  O442  1  0.20048315  0.82156827  0.52001649  1
  O2-  O443  1  0.16791285  0.84024283  0.85259468  1
  O2-  O444  1  0.41970858  0.06811584  0.20587928  1
  O2-  O445  1  0.35731523  -0.01544985  0.48623094  1
  O2-  O446  1  0.41019220  0.06049340  0.86267972  1
  O2-  O447  1  0.42000524  0.33599719  0.18703761  1
  O2-  O448  1  0.42772173  0.34271400  0.51385044  1
  O2-  O449  1  0.41341891  0.32652579  0.86552814  1
  O2-  O450  1  0.38512331  0.59055030  0.18945832  1
  O2-  O451  1  0.39580026  0.58140504  0.51112085  1
  O2-  O452  1  0.40755566  0.56316191  0.84188481  1
  O2-  O453  1  0.39400885  0.81863787  0.13567135  1
  O2-  O454  1  0.42089286  0.87185042  0.51925399  1
  O2-  O455  1  0.41203592  0.81907164  0.86127130  1
  O2-  O456  1  0.64623017  0.06652110  0.19096852  1
  O2-  O457  1  0.66559847  0.08786601  0.52092813  1
  O2-  O458  1  0.65800047  0.06089832  0.85438842  1
  O2-  O459  1  0.66353689  0.33103801  0.19164963  1
  O2-  O460  1  0.66214022  0.32084134  0.52310836  1
  O2-  O461  1  0.68098187  0.34174050  0.86182492  1
  O2-  O462  1  0.69496804  0.59331826  0.19036014  1
  O2-  O463  1  0.62640714  0.50305600  0.50093481  1
  O2-  O464  1  0.67326162  0.59818529  0.85876281  1
  O2-  O465  1  0.66996902  0.77453174  0.19693818  1
  O2-  O466  1  0.65582792  0.83406126  0.51830925  1
  O2-  O467  1  0.68910403  0.85038265  0.85546640  1
  O2-  O468  1  0.89425384  0.05475460  0.19537189  1
  O2-  O469  1  0.91179121  0.07787394  0.51621928  1
  O2-  O470  1  0.91152173  0.07418209  0.85442638  1
  O2-  O471  1  0.90803708  0.31880467  0.20132999  1
  O2-  O472  1  0.91418778  0.32327345  0.53156757  1
  O2-  O473  1  0.91574697  0.34265627  0.84520657  1
  O2-  O474  1  0.94167105  0.56250577  0.15778269  1
  O2-  O475  1  0.92165281  0.57049938  0.52053849  1
  O2-  O476  1  0.90329127  0.58624745  0.86010838  1
  O2-  O477  1  0.92318670  0.82100568  0.19324094  1
  O2-  O478  1  0.94100120  0.89262813  0.53583436  1
  O2-  O479  1  0.90673191  0.83205242  0.86424513  1
  O2-  O480  1  0.16517821  0.08230781  0.31171434  1
  O2-  O481  1  0.11069538  0.06786459  0.62695416  1
  O2-  O482  1  0.16742294  0.07398777  0.97865744  1
  O2-  O483  1  0.16690019  0.33856067  0.29971939  1
  O2-  O484  1  0.19211461  0.37195860  0.63377146  1
  O2-  O485  1  0.15610569  0.34506900  0.98492512  1
  O2-  O486  1  0.15366938  0.59486845  0.28136284  1
  O2-  O487  1  0.18448301  0.58151161  0.64583937  1
  O2-  O488  1  0.16304321  0.57613140  0.96339312  1
  O2-  O489  1  0.16611354  0.84230607  0.32327668  1
  O2-  O490  1  0.17626931  0.80194751  0.63728803  1
  O2-  O491  1  0.17640572  0.84485348  0.97725161  1
  O2-  O492  1  0.42010890  0.07655221  0.31715546  1
  O2-  O493  1  0.41252772  0.06145366  0.62981572  1
  O2-  O494  1  0.42345752  0.08699478  0.98195006  1
  O2-  O495  1  0.42167421  0.32676428  0.30374157  1
  O2-  O496  1  0.44730753  0.41355890  0.62941156  1
  O2-  O497  1  0.41737598  0.33739915  0.98715237  1
  O2-  O498  1  0.42459064  0.59722550  0.31017220  1
  O2-  O499  1  0.42738891  0.58685417  0.62863541  1
  O2-  O500  1  0.41822356  0.57669426  0.96523503  1
  O2-  O501  1  0.40776440  0.83642833  0.32627600  1
  O2-  O502  1  0.40226529  0.81938008  0.63602706  1
  O2-  O503  1  0.40370266  0.82651228  0.99630537  1
  O2-  O504  1  0.66398611  0.07603891  0.30901322  1
  O2-  O505  1  0.70647037  0.14923998  0.63763341  1
  O2-  O506  1  0.65717430  0.07007058  0.97464241  1
  O2-  O507  1  0.66952517  0.32768511  0.31885261  1
  O2-  O508  1  0.64377411  0.31085423  0.64675851  1
  O2-  O509  1  0.66645434  0.33711576  0.98926498  1
  O2-  O510  1  0.67355673  0.58431353  0.31596716  1
  O2-  O511  1  0.67201684  0.55977681  0.65149631  1
  O2-  O512  1  0.66684333  0.59106448  0.97874046  1
  O2-  O513  1  0.67929674  0.85079424  0.30780865  1
  O2-  O514  1  0.65255812  0.80586271  0.64197220  1
  O2-  O515  1  0.66750264  0.84394292  0.98529942  1
  O2-  O516  1  0.90748856  0.07087993  0.31910315  1
  O2-  O517  1  0.89665332  0.06045467  0.64242357  1
  O2-  O518  1  0.91188482  0.07301628  0.97795812  1
  O2-  O519  1  0.91750607  0.33300478  0.32282465  1
  O2-  O520  1  0.93371523  0.32119677  0.64035591  1
  O2-  O521  1  0.91834375  0.34579226  0.96402697  1
  O2-  O522  1  0.91259786  0.58228290  0.32918868  1
  O2-  O523  1  0.92935672  0.61386715  0.64280051  1
  O2-  O524  1  0.90864824  0.58118222  0.97866730  1
  O2-  O525  1  0.91708125  0.82488586  0.32024254  1
  O2-  O526  1  0.88832529  0.81662483  0.65420311  1
  O2-  O527  1  0.91460708  0.83590841  0.98731651  1
  O2-  O528  1  0.05964470  0.19636931  0.03910505  1
  O2-  O529  1  0.08063102  0.16887584  0.34101732  1
  O2-  O530  1  0.14559306  0.21569092  0.68441904  1
  O2-  O531  1  0.07582660  0.42658861  0.00178148  1
  O2-  O532  1  0.09211785  0.42910240  0.33949829  1
  O2-  O533  1  0.08806451  0.41788169  0.68718052  1
  O2-  O534  1  0.15381336  0.70270115  0.03292955  1
  O2-  O535  1  0.08999614  0.67556493  0.35408379  1
  O2-  O536  1  0.08262242  0.64177539  0.68828219  1
  O2-  O537  1  0.08292428  0.91453784  0.01966897  1
  O2-  O538  1  0.07562530  0.91118602  0.35933325  1
  O2-  O539  1  0.01055553  0.94101149  0.72163540  1
  O2-  O540  1  0.33519235  0.16835868  0.02206664  1
  O2-  O541  1  0.32840774  0.15949041  0.35380937  1
  O2-  O542  1  0.43227294  0.19782858  0.71847993  1
  O2-  O543  1  0.33343458  0.42398339  0.01983034  1
  O2-  O544  1  0.32185489  0.43704627  0.36165693  1
  O2-  O545  1  0.32435892  0.43119260  0.69473766  1
  O2-  O546  1  0.32848811  0.65325402  0.00988488  1
  O2-  O547  1  0.38812101  0.69397233  0.38975336  1
  O2-  O548  1  0.34363385  0.67451307  0.68511155  1
  O2-  O549  1  0.33391362  0.92297661  0.02494892  1
  O2-  O550  1  0.33515215  0.92239017  0.36412734  1
  O2-  O551  1  0.33563763  0.89942599  0.69075547  1
  O2-  O552  1  0.58498470  0.16130713  0.01701846  1
  O2-  O553  1  0.58214021  0.15925296  0.35433131  1
  O2-  O554  1  0.56407969  0.15631070  0.68967798  1
  O2-  O555  1  0.58420982  0.42572179  0.02286993  1
  O2-  O556  1  0.58840314  0.41516423  0.35079917  1
  O2-  O557  1  0.57833583  0.40520455  0.69111152  1
  O2-  O558  1  0.57905549  0.67281899  0.01109804  1
  O2-  O559  1  0.59486109  0.67861866  0.34199874  1
  O2-  O560  1  0.58331949  0.64230754  0.68109773  1
  O2-  O561  1  0.58615563  0.91779354  0.02399922  1
  O2-  O562  1  0.58581787  0.91760228  0.35256955  1
  O2-  O563  1  0.53098592  0.81910610  0.70534476  1
  O2-  O564  1  0.83064712  0.16922345  -0.04100725  1
  O2-  O565  1  0.83266291  0.16287799  0.35625812  1
  O2-  O566  1  0.84141176  0.16995504  0.69382650  1
  O2-  O567  1  0.83104488  0.41227870  0.02715945  1
  O2-  O568  1  0.83344109  0.41164575  0.37090999  1
  O2-  O569  1  0.82257978  0.40389530  0.68762022  1
  O2-  O570  1  0.83318766  0.67059761  0.02773038  1
  O2-  O571  1  0.83440314  0.66281020  0.36483210  1
  O2-  O572  1  0.83395296  0.66301685  0.69214745  1
  O2-  O573  1  0.82847631  0.91244292  0.02816862  1
  O2-  O574  1  0.82631070  0.89891217  0.36046987  1
  O2-  O575  1  0.81096967  0.90629391  0.69023765  1
