# generated using pymatgen
data_H2O
_symmetry_space_group_name_H-M   'P 1'
_cell_length_a   17.99467897
_cell_length_b   18.00064610
_cell_length_c   22.00708405
_cell_angle_alpha   90.00158927
_cell_angle_beta   89.99831221
_cell_angle_gamma   120.01241582
_symmetry_Int_Tables_number   1
_chemical_formula_structural   H2O
_chemical_formula_sum   'H384 O192'
_cell_volume   6172.64047128
_cell_formula_units_Z   192
loop_
 _symmetry_equiv_pos_site_id
 _symmetry_equiv_pos_as_xyz
  1  'x, y, z'
loop_
 _atom_type_symbol
 _atom_type_oxidation_number
  H+  1.0
  O2-  -2.0
loop_
 _atom_site_type_symbol
 _atom_site_label
 _atom_site_symmetry_multiplicity
 _atom_site_fract_x
 _atom_site_fract_y
 _atom_site_fract_z
 _atom_site_occupancy
  H+  H0  1  0.36564688  0.13206526  0.15401075  1
  H+  H1  1  0.13210288  0.76196381  0.50916753  1
  H+  H2  1  0.61204568  0.74481031  0.32065815  1
  H+  H3  1  0.22149238  0.11603391  0.32275479  1
  H+  H4  1  0.37703129  0.24004447  0.16785137  1
  H+  H5  1  0.89577405  0.11641784  0.50718771  1
  H+  H6  1  0.93002600  0.80824882  0.85045766  1
  H+  H7  1  0.36500379  0.24016160  0.48552780  1
  H+  H8  1  0.36862130  0.89493548  0.16621713  1
  H+  H9  1  0.72742632  0.35258555  0.16826659  1
  H+  H10  1  0.91463188  1.03188271  0.84149512  1
  H+  H11  1  0.88838433  0.02469089  0.17603231  1
  H+  H12  1  0.87678385  0.64343316  -0.00062683  1
  H+  H13  1  0.88719638  0.24797685  0.48573449  1
  H+  H14  1  0.51141455  0.62927136  0.67038702  1
  H+  H15  1  0.11376476  0.64663557  0.69981240  1
  H+  H16  1  0.88241058  0.51844306  0.51255627  1
  H+  H17  1  0.11975701  -0.01245317  0.66843565  1
  H+  H18  1  1.02186627  0.63319347  0.68230203  1
  H+  H19  1  0.52120970  0.87175716  0.33436074  1
  H+  H20  1  0.88659665  0.90439300  0.82971851  1
  H+  H21  1  0.58803693  0.92333244  -0.05679968  1
  H+  H22  1  0.64288033  0.11464360  0.64994386  1
  H+  H23  1  0.88954777  0.50956875  0.67016734  1
  H+  H24  1  -0.03055944  0.35258662  -0.00074432  1
  H+  H25  1  0.64674036  0.61296242  0.98689987  1
  H+  H26  1  0.33055856  0.41127791  0.71159695  1
  H+  H27  1  0.31969579  0.07953724  0.48165885  1
  H+  H28  1  0.10527480  0.93133215  0.77609018  1
  H+  H29  1  0.39154580  0.11535965  0.67262183  1
  H+  H30  1  0.87480116  0.50708299  0.17016349  1
  H+  H31  1  0.64378733  0.87071863  0.30492156  1
  H+  H32  1  0.33175014  0.36740486  0.84374352  1
  H+  H33  1  0.13776788  0.27451057  -0.00058426  1
  H+  H34  1  0.47843858  0.87673692  0.17519706  1
  H+  H35  1  0.54083316  0.57906781  0.04943778  1
  H+  H36  1  0.49104171  0.60424110  0.82265605  1
  H+  H37  1  0.11147185  0.39310457  0.66670430  1
  H+  H38  1  0.36167328  0.76787908  0.65717555  1
  H+  H39  1  0.26775086  0.62933737  0.48431603  1
  H+  H40  1  0.90138555  0.76893007  0.65270544  1
  H+  H41  1  0.01970909  0.64048956  0.33789965  1
  H+  H42  1  0.63638449  0.27140813  0.99490295  1
  H+  H43  1  0.69118215  0.38908587  0.69579731  1
  H+  H44  1  0.02855990  0.13541452  0.67845075  1
  H+  H45  1  0.70231354  0.59092049  0.82740003  1
  H+  H46  1  0.79033413  0.89583061  1.00895020  1
  H+  H47  1  0.27993070  0.39390125  0.15927529  1
  H+  H48  1  0.17150191  -0.02279302  0.46413734  1
  H+  H49  1  0.49125303  0.08190876  0.86620362  1
  H+  H50  1  0.36068203  0.22598064  0.51849948  1
  H+  H51  1  0.97801588  0.36118431  0.17578253  1
  H+  H52  1  0.87578833  0.36460778  0.50177445  1
  H+  H53  1  0.52855593  0.14191347  0.47766220  1
  H+  H54  1  0.35313315  0.72393733  0.49024645  1
  H+  H55  1  0.63311396  0.09451860  0.31810707  1
  H+  H56  1  0.12708961  0.11763562  0.51583564  1
  H+  H57  1  0.86414355  0.37956618  0.16038598  1
  H+  H58  1  0.97844310  0.11901823  0.99967371  1
  H+  H59  1  0.61166305  0.49206020  0.16731556  1
  H+  H60  1  0.62048953  0.99607249  -0.00850326  1
  H+  H61  1  0.67411428  0.84589749  0.59547352  1
  H+  H62  1  0.91527167  0.32784648  -0.06266813  1
  H+  H63  1  0.36609627  0.76165515  0.84284185  1
  H+  H64  1  0.16481305  0.62269913  0.62544154  1
  H+  H65  1  0.20351808  0.14717715  0.82691108  1
  H+  H66  1  0.22145496  0.13045326  -0.01615975  1
  H+  H67  1  0.12408218  0.76307700  0.84514165  1
  H+  H68  1  0.83768914  0.61882345  0.16564326  1
  H+  H69  1  0.86444771  -0.02343526  0.49181748  1
  H+  H70  1  0.61800308  0.96902420  0.15622218  1
  H+  H71  1  0.22924450  0.60316087  0.17293757  1
  H+  H72  1  0.35144355  0.87364765  0.83208159  1
  H+  H73  1  0.83356025  0.41007871  0.10058610  1
  H+  H74  1  0.88746227  0.38718466  0.34393781  1
  H+  H75  1  0.88166195  0.65926521  0.46050360  1
  H+  H76  1  0.12996468  0.37250721  0.36560843  1
  H+  H77  1  0.39024783  0.85805820  0.32992219  1
  H+  H78  1  0.36870317  0.73894564  1.01241697  1
  H+  H79  1  0.50920709  0.36877858  0.82743471  1
  H+  H80  1  0.75150506  0.62167970  0.16141090  1
  H+  H81  1  0.62018347  0.21140608  0.33116934  1
  H+  H82  1  0.63344055  0.31953943  0.56325635  1
  H+  H83  1  0.75333099  0.12548863  0.84891489  1
  H+  H84  1  1.02453390  0.13877625  0.16169509  1
  H+  H85  1  0.61070116  0.36759216  0.15727083  1
  H+  H86  1  0.10177658  -0.02529381  0.17285348  1
  H+  H87  1  0.45908350  0.05129009  0.53445553  1
  H+  H88  1  0.33812078  0.94011913  -0.05254158  1
  H+  H89  1  0.12591476  0.48317321  0.44945554  1
  H+  H90  1  0.26269073  0.63068076  0.33602937  1
  H+  H91  1  0.37850549  0.52691664  0.99539404  1
  H+  H92  1  0.06360296  0.66355038  0.77908206  1
  H+  H93  1  0.52037931  0.65356992  0.48377526  1
  H+  H94  1  0.64199640  0.10262268  0.16817927  1
  H+  H95  1  0.37992775  0.61760131  0.99432478  1
  H+  H96  1  0.35897560  0.62929660  0.16537379  1
  H+  H97  1  0.25611461  0.40609782  0.67093533  1
  H+  H98  1  0.63732958  0.70900022  0.17032076  1
  H+  H99  1  0.37287737  0.61146015  0.32897241  1
  H+  H100  1  0.62193731  0.49663169  0.83672444  1
  H+  H101  1  -0.02368652  0.60904463  -0.00311549  1
  H+  H102  1  0.86482270  0.47329225  0.82555508  1
  H+  H103  1  0.73168535  0.89160223  0.83446416  1
  H+  H104  1  0.41506676  0.31510946  0.23268387  1
  H+  H105  1  0.27438111  0.66074151  0.01460632  1
  H+  H106  1  0.53539468  0.15184890  0.66854282  1
  H+  H107  1  0.73181442  0.10647440  0.49990817  1
  H+  H108  1  0.76411432  0.38223992  0.49192967  1
  H+  H109  1  0.43828893  0.37016047  0.66976354  1
  H+  H110  1  0.36605413  0.48485444  0.16022504  1
  H+  H111  1  0.86985034  0.13761533  0.16235626  1
  H+  H112  1  0.13969399  0.35802229  0.17817721  1
  H+  H113  1  0.64977961  0.78743208  0.99140489  1
  H+  H114  1  0.46723260  0.62163250  0.32801815  1
  H+  H115  1  0.61999429  0.00399782  0.81047688  1
  H+  H116  1  0.57878918  0.59986386  0.82405004  1
  H+  H117  1  0.89627138  0.86717597  1.00327178  1
  H+  H118  1  0.12078947  0.60781614  0.84600792  1
  H+  H119  1  0.39081492  0.04212434  1.00407754  1
  H+  H120  1  0.27766350  0.39321297  0.01052262  1
  H+  H121  1  0.33878841  -0.04227265  0.83397846  1
  H+  H122  1  0.08013728  0.40545367  0.10735482  1
  H+  H123  1  0.35351189  0.22252737  0.68871681  1
  H+  H124  1  0.42482336  0.59435458  0.59452192  1
  H+  H125  1  0.58682277  0.49615208  0.64529866  1
  H+  H126  1  0.12800438  0.89106360  0.83236341  1
  H+  H127  1  0.87804180  -0.01521969  1.01208316  1
  H+  H128  1  0.63781123  0.35575766  0.84329404  1
  H+  H129  1  0.37148334  0.85099072  0.50230752  1
  H+  H130  1  0.88907820  0.27178346  0.17256282  1
  H+  H131  1  0.33861188  0.42831211  0.06936737  1
  H+  H132  1  0.22579582  0.86822245  0.16986203  1
  H+  H133  1  0.14287347  0.60754820  0.17061982  1
  H+  H134  1  0.87032184  0.89140827  0.48861984  1
  H+  H135  1  0.89259908  0.52446169  0.32664000  1
  H+  H136  1  0.35694188  0.88445076  0.67251430  1
  H+  H137  1  0.27908892  0.87927077  0.33416625  1
  H+  H138  1  0.27422190  0.62379966  0.66070538  1
  H+  H139  1  0.77563609  0.88952278  0.32903761  1
  H+  H140  1  0.65389740  0.87748777  0.99248078  1
  H+  H141  1  0.14282569  0.26563161  0.33186584  1
  H+  H142  1  0.87214922  0.88622258  0.66971194  1
  H+  H143  1  0.21064283  0.09490592  0.15640651  1
  H+  H144  1  1.03166388  0.87414219  1.03561605  1
  H+  H145  1  0.21007693  0.55252858  0.97895759  1
  H+  H146  1  0.85088570  0.63023559  0.32632566  1
  H+  H147  1  0.66301724  0.26226761  0.59484734  1
  H+  H148  1  0.55472661  0.89511465  0.72740337  1
  H+  H149  1  0.02484838  0.13418697  0.34408818  1
  H+  H150  1  0.10597609  0.37415779  0.01076320  1
  H+  H151  1  0.18118217  0.28699129  0.84161065  1
  H+  H152  1  0.02793904  0.88374996  0.66538146  1
  H+  H153  1  0.42832922  0.33562279  0.53170951  1
  H+  H154  1  0.47421070  0.10107629  0.84322151  1
  H+  H155  1  0.72434715  0.61816958  0.65933657  1
  H+  H156  1  0.62711086  0.42798207  0.48167732  1
  H+  H157  1  0.54003510  0.42847909  0.48373427  1
  H+  H158  1  0.89020125  0.77807868  0.32260766  1
  H+  H159  1  0.63903798  0.87250502  0.48501060  1
  H+  H160  1  0.13329390  0.61048227  0.32472989  1
  H+  H161  1  0.82679227  0.91971298  0.10241470  1
  H+  H162  1  1.00152117  0.63184241  0.83681762  1
  H+  H163  1  0.59933312  0.53916992  0.31929006  1
  H+  H164  1  0.09395423  0.16892526  0.73557132  1
  H+  H165  1  0.21179906  0.60992410  0.83956092  1
  H+  H166  1  0.13788686  0.75750385  0.99738627  1
  H+  H167  1  0.47672047  0.12072238  0.31957154  1
  H+  H168  1  0.48065456  0.36096232  0.31896256  1
  H+  H169  1  0.14048813  0.86328029  0.32047295  1
  H+  H170  1  0.65605985  0.27814233  0.83528798  1
  H+  H171  1  0.02691273  0.88526540  0.33536654  1
  H+  H172  1  0.90443652  0.78748319  0.49247829  1
  H+  H173  1  0.32139077  0.12788053  0.84113190  1
  H+  H174  1  0.92544712  0.08369148  0.93870221  1
  H+  H175  1  0.10482132  0.88245158  0.18140715  1
  H+  H176  1  0.12606266  0.88609637  0.49506057  1
  H+  H177  1  0.38829313  0.53921691  0.50163400  1
  H+  H178  1  0.58419035  0.85883466  0.67160121  1
  H+  H179  1  0.72535096  0.12753431  1.00130294  1
  H+  H180  1  0.11133666  0.14572560  0.00478919  1
  H+  H181  1  0.10312124  0.47305018  0.82576349  1
  H+  H182  1  0.98016311  0.11130014  0.50882868  1
  H+  H183  1  0.91552736  0.12001781  0.84564073  1
  H+  H184  1  0.85402539  0.37864676  0.67181684  1
  H+  H185  1  0.59695311  0.57205433  0.16116969  1
  H+  H186  1  0.50919088  0.62641378  0.00800084  1
  H+  H187  1  0.34084500  0.62375123  0.82546022  1
  H+  H188  1  0.09596754  0.45703309  0.01048335  1
  H+  H189  1  0.38406697  0.53354601  0.65515300  1
  H+  H190  1  0.41278427  0.33753334  0.90225941  1
  H+  H191  1  -0.01940718  0.35946298  0.84005520  1
  H+  H192  1  0.22511606  0.37103393  0.50013588  1
  H+  H193  1  0.78967475  0.72393095  0.84725427  1
  H+  H194  1  0.93922008  0.22024018  0.44407623  1
  H+  H195  1  0.42034107  0.84740377  0.23557990  1
  H+  H196  1  0.74895406  0.63890206  0.50270757  1
  H+  H197  1  0.61608893  0.21194522  0.15807967  1
  H+  H198  1  0.37448260  0.27388969  0.84513680  1
  H+  H199  1  0.76370739  0.63570655  0.32326409  1
  H+  H200  1  0.86613478  0.61488863  0.84526711  1
  H+  H201  1  0.61002506  0.29846361  0.68868070  1
  H+  H202  1  0.64557398  0.46587879  0.32609001  1
  H+  H203  1  0.38573068  0.76698092  0.32451787  1
  H+  H204  1  0.11089208  0.62005944  1.01681979  1
  H+  H205  1  0.38781071  0.27661760  0.32655825  1
  H+  H206  1  0.38680680  0.62639755  0.50269031  1
  H+  H207  1  0.49041354  0.41394372  0.57374833  1
  H+  H208  1  0.88905871  0.35312506  0.84225858  1
  H+  H209  1  0.23234068  0.35552618  0.33039144  1
  H+  H210  1  0.77858640  0.38509542  0.82892655  1
  H+  H211  1  0.47628928  0.33957221  0.17071663  1
  H+  H212  1  0.61140964  0.91426526  0.81788886  1
  H+  H213  1  0.47962566  0.62977138  0.18311149  1
  H+  H214  1  0.08319926  0.16320611  0.43555485  1
  H+  H215  1  1.02885225  0.63260988  0.49442677  1
  H+  H216  1  0.11759316  0.63181275  0.48741352  1
  H+  H217  1  0.21937946  0.84690881  0.84140612  1
  H+  H218  1  0.99143995  0.87603380  0.49882478  1
  H+  H219  1  0.37173700  0.41420684  0.49765195  1
  H+  H220  1  0.27202966  0.12926543  0.68185317  1
  H+  H221  1  1.01567548  0.89754309  0.85019487  1
  H+  H222  1  0.45416937  0.84689633  0.65947115  1
  H+  H223  1  0.88156678  0.22438417  0.83276196  1
  H+  H224  1  0.87241905  0.26239009  0.32207260  1
  H+  H225  1  0.88684676  0.11090685  0.32404251  1
  H+  H226  1  0.36176247  0.14941837  0.00842805  1
  H+  H227  1  0.24321335  0.09818850  0.48901153  1
  H+  H228  1  0.87943452  0.74516569  -0.00289272  1
  H+  H229  1  0.92210929  0.28726378  0.63597528  1
  H+  H230  1  0.78367564  0.64439149  -0.00697364  1
  H+  H231  1  0.13745058  0.77280147  0.32177056  1
  H+  H232  1  0.86995021  0.62319161  0.66742031  1
  H+  H233  1  0.11270434  0.86580925  0.02902404  1
  H+  H234  1  0.85850050  0.13356698  0.00652466  1
  H+  H235  1  0.47718287  0.36925977  -0.00519067  1
  H+  H236  1  0.66012895  0.15962740  0.81545908  1
  H+  H237  1  0.23214373  0.87036941  0.66684843  1
  H+  H238  1  0.41351311  0.08094919  0.57931541  1
  H+  H239  1  0.88418941  0.52340072  0.99761963  1
  H+  H240  1  0.73397187  0.10770319  0.16987080  1
  H+  H241  1  0.64346291  0.34957988  0.32539321  1
  H+  H242  1  0.06314693  0.64860866  0.19708709  1
  H+  H243  1  0.95152759  0.60333494  0.16134309  1
  H+  H244  1  0.87520621  0.76071710  0.16241711  1
  H+  H245  1  0.73185057  0.85936955  0.49590785  1
  H+  H246  1  0.61011445  0.63902050  0.67505465  1
  H+  H247  1  0.13478303  0.36236871  0.48829079  1
  H+  H248  1  0.47783931  0.11005568  0.16546253  1
  H+  H249  1  0.47864378  0.87330820  0.99530001  1
  H+  H250  1  0.26881005  0.01431748  0.89981973  1
  H+  H251  1  0.12535601  0.89004234  0.66903230  1
  H+  H252  1  0.63717243  0.13100189  1.00097082  1
  H+  H253  1  0.13324757  0.27522768  0.65459859  1
  H+  H254  1  0.83258582  0.41942534  0.43532920  1
  H+  H255  1  0.89761992  0.58451829  0.90336216  1
  H+  H256  1  0.59780831  0.90697183  0.41731312  1
  H+  H257  1  0.61007097  0.96273091  0.33010336  1
  H+  H258  1  0.34714028  -0.03377558  0.49563976  1
  H+  H259  1  0.11240859  0.12978365  0.34420216  1
  H+  H260  1  0.11969855  0.48469455  0.65856132  1
  H+  H261  1  0.72912539  0.87321323  0.65582437  1
  H+  H262  1  0.88960201  0.10787302  0.66442908  1
  H+  H263  1  0.61932629  0.21301016  0.49891288  1
  H+  H264  1  0.05352677  0.38973111  0.37294485  1
  H+  H265  1  0.38550158  0.02392893  0.16853036  1
  H+  H266  1  0.13189699  0.10609702  0.67134602  1
  H+  H267  1  -0.00920584  0.38161721  0.65341880  1
  H+  H268  1  0.87586268  0.85001144  0.16737809  1
  H+  H269  1  0.11354699  0.46965334  0.16442433  1
  H+  H270  1  0.62861581  -0.03108863  0.47887993  1
  H+  H271  1  0.64136929  0.10039238  0.49686293  1
  H+  H272  1  0.62233961  0.47328435  1.00695184  1
  H+  H273  1  0.65436921  0.56124436  0.49947136  1
  H+  H274  1  0.17263512  0.57336538  0.56893252  1
  H+  H275  1  0.13919672  0.78232634  0.67048228  1
  H+  H276  1  0.87486920  -0.02395536  0.67195302  1
  H+  H277  1  0.11305042  0.22874504  0.49240400  1
  H+  H278  1  0.76223134  0.11493358  0.67835596  1
  H+  H279  1  0.67756993  0.60938918  0.59664621  1
  H+  H280  1  0.39038551  0.37522010  0.99714158  1
  H+  H281  1  0.69257681  0.86079609  0.24631845  1
  H+  H282  1  0.77493975  0.38667431  0.00774772  1
  H+  H283  1  0.36434640  0.48088233  0.34044577  1
  H+  H284  1  0.83921939  0.20573640  0.69328666  1
  H+  H285  1  0.15608482  0.33281790  0.59375976  1
  H+  H286  1  0.63358789  0.76861616  0.49210756  1
  H+  H287  1  0.35173664  0.50390677  0.84565368  1
  H+  H288  1  0.08108963  0.66815119  0.39662273  1
  H+  H289  1  0.59620070  0.42502504  0.38743333  1
  H+  H290  1  0.39607270  0.57369238  0.89823690  1
  H+  H291  1  0.64271591  0.57438400  0.25511085  1
  H+  H292  1  0.33061132  0.66186923  0.10693920  1
  H+  H293  1  0.86052667  0.22381548  0.00814703  1
  H+  H294  1  0.36863271  0.64226756  0.67101992  1
  H+  H295  1  0.09076911  0.91307130  0.39211552  1
  H+  H296  1  1.00673245  0.87468083  0.17885828  1
  H+  H297  1  0.85244540  0.92433163  0.76776125  1
  H+  H298  1  0.11962637  0.73799589  0.16523736  1
  H+  H299  1  0.33128779  0.90682212  0.39558044  1
  H+  H300  1  0.88732434  0.60373517  0.53736292  1
  H+  H301  1  0.55273080  0.21817149  0.05144351  1
  H+  H302  1  0.55999541  0.64145333  0.74227366  1
  H+  H303  1  0.32977823  0.91320617  0.73486037  1
  H+  H304  1  0.59205900  0.15454435  0.39038555  1
  H+  H305  1  0.07625329  0.41965994  0.76470324  1
  H+  H306  1  0.33547463  0.91732948  0.10393936  1
  H+  H307  1  0.16290195  0.82333800  0.56943527  1
  H+  H308  1  0.82907559  0.16109672  0.39047723  1
  H+  H309  1  0.16036578  0.08097358  0.60871210  1
  H+  H310  1  0.36097919  0.23789911  0.00941031  1
  H+  H311  1  0.82796812  0.91498403  0.39254617  1
  H+  H312  1  0.83848539  0.65225586  0.72364665  1
  H+  H313  1  0.67037819  0.57676167  0.92820358  1
  H+  H314  1  0.86431203  0.38771887  0.00718617  1
  H+  H315  1  0.91956522  0.34581945  0.55771071  1
  H+  H316  1  0.15591505  0.56944533  0.93040647  1
  H+  H317  1  0.31826767  0.15417763  0.39074241  1
  H+  H318  1  0.39531583  0.82080765  0.56326325  1
  H+  H319  1  0.89361701  0.86777251  0.32728943  1
  H+  H320  1  0.32514072  0.66331287  0.39497572  1
  H+  H321  1  0.13625026  0.02452434  0.32517536  1
  H+  H322  1  0.61439144  0.18733812  0.71573863  1
  H+  H323  1  0.37181524  0.39531149  0.33832205  1
  H+  H324  1  0.92287973  0.08514057  0.60338144  1
  H+  H325  1  0.15719172  0.81500143  0.93655994  1
  H+  H326  1  0.41430568  0.58641462  0.23920161  1
  H+  H327  1  0.92973242  0.56778757  0.61039464  1
  H+  H328  1  0.36618013  0.07124426  0.91954686  1
  H+  H329  1  0.57469978  0.38228340  0.77197260  1
  H+  H330  1  0.66711140  0.06665296  0.25933120  1
  H+  H331  1  0.57878395  0.39743352  0.09775500  1
  H+  H332  1  0.84389253  0.15381068  0.77857183  1
  H+  H333  1  0.17047398  0.83453541  0.23155884  1
  H+  H334  1  0.08299898  0.17227483  0.06776003  1
  H+  H335  1  0.31632584  0.65650797  0.76547639  1
  H+  H336  1  0.33317630  0.17007316  0.09721955  1
  H+  H337  1  0.42082535  0.10146432  0.25926747  1
  H+  H338  1  0.57714802  0.90920333  0.09947318  1
  H+  H339  1  0.08256644  0.65504587  0.07349672  1
  H+  H340  1  0.36652049  0.14987135  0.33135954  1
  H+  H341  1  0.67419692  0.33185673  0.93506163  1
  H+  H342  1  0.93924618  0.85140140  0.94331074  1
  H+  H343  1  0.16232007  0.11648633  0.92558489  1
  H+  H344  1  0.69639615  0.85125163  0.13992833  1
  H+  H345  1  0.73188469  0.35036115  0.32324978  1
  H+  H346  1  0.38679419  0.86943909  0.99264622  1
  H+  H347  1  0.40152941  0.82102460  0.90225395  1
  H+  H348  1  0.92144512  0.08501625  0.23465411  1
  H+  H349  1  0.11657899  0.22590400  0.16327784  1
  H+  H350  1  0.90965638  0.57579890  0.26382395  1
  H+  H351  1  0.26444689  0.87845186  -0.00875161  1
  H+  H352  1  0.57446302  0.40368106  0.65576772  1
  H+  H353  1  0.17915509  0.33804124  0.94234947  1
  H+  H354  1  0.04964737  0.14421964  0.83514700  1
  H+  H355  1  0.34488959  0.32656557  0.64359039  1
  H+  H356  1  0.83262736  0.40762152  0.73476873  1
  H+  H357  1  0.61019106  0.65724703  0.32702502  1
  H+  H358  1  0.32179583  0.16570152  0.77533864  1
  H+  H359  1  0.66819246  0.32095967  0.22733713  1
  H+  H360  1  0.67748288  0.85892108  0.89378720  1
  H+  H361  1  0.83328790  0.68191171  0.41249529  1
  H+  H362  1  0.16244996  0.57647342  0.26801558  1
  H+  H363  1  0.66983693  0.07102712  0.59914988  1
  H+  H364  1  0.48238818  0.13248871  0.99942744  1
  H+  H365  1  0.17224875  0.32902286  0.23607943  1
  H+  H366  1  0.12515990  0.10132569  0.15227464  1
  H+  H367  1  0.58300914  0.15545860  0.09798358  1
  H+  H368  1  0.83817760  0.16540852  0.10234741  1
  H+  H369  1  0.58737413  0.69028800  0.10739066  1
  H+  H370  1  0.39307900  0.02714615  0.67076074  1
  H+  H371  1  0.26103973  0.87636151  0.49296094  1
  H+  H372  1  0.61818026  0.38274114  0.00320404  1
  H+  H373  1  0.76344569  0.12013430  0.33304396  1
  H+  H374  1  0.57695901  0.68575971  0.42222273  1
  H+  H375  1  0.68252597  0.10857775  0.90087353  1
  H+  H376  1  0.93073252  0.83145637  0.59413325  1
  H+  H377  1  0.94338291  0.46722594  0.38532981  1
  H+  H378  1  0.90828502  0.32793050  0.26576373  1
  H+  H379  1  0.33726307  0.42549817  0.43313842  1
  H+  H380  1  0.81764437  0.73941160  0.78061313  1
  H+  H381  1  0.56957282  0.14941380  0.80617449  1
  H+  H382  1  0.12101724  0.02567731  0.52024486  1
  H+  H383  1  0.88991615  0.02354958  0.32488315  1
  O2-  O384  1  0.08386746  0.16732366  0.14460489  1
  O2-  O385  1  0.08242067  0.16634266  0.48186670  1
  O2-  O386  1  0.11023414  0.17524508  0.81724347  1
  O2-  O387  1  0.08164421  0.40723152  0.15260600  1
  O2-  O388  1  0.10164845  0.49202122  0.48719155  1
  O2-  O389  1  0.07264642  0.41388042  0.80936196  1
  O2-  O390  1  0.08568447  0.67282973  0.15706573  1
  O2-  O391  1  0.08674299  0.66575811  0.47673874  1
  O2-  O392  1  0.06278890  0.65884645  0.82413860  1
  O2-  O393  1  0.07100702  0.91174083  0.19173146  1
  O2-  O394  1  0.11344975  0.92977012  0.47639333  1
  O2-  O395  1  0.10824209  0.93209655  0.82040100  1
  O2-  O396  1  0.33494239  0.16521888  0.14342246  1
  O2-  O397  1  0.27112731  0.07740708  0.45994376  1
  O2-  O398  1  0.31162141  0.17066750  0.81948170  1
  O2-  O399  1  0.33782329  0.42744183  0.14075300  1
  O2-  O400  1  0.33231869  0.43015109  0.47844768  1
  O2-  O401  1  0.29415106  0.39047533  0.82927588  1
  O2-  O402  1  0.32269402  0.65321942  0.15116928  1
  O2-  O403  1  0.32972421  0.66378328  0.47237086  1
  O2-  O404  1  0.31191716  0.65541888  0.81080914  1
  O2-  O405  1  0.33224966  0.92082101  0.14794454  1
  O2-  O406  1  0.32060041  0.90936962  0.47645435  1
  O2-  O407  1  0.31928923  0.90221904  0.81362426  1
  O2-  O408  1  0.58505275  0.15124728  0.14381174  1
  O2-  O409  1  0.58967929  0.16073643  0.47290049  1
  O2-  O410  1  0.62929934  0.18682578  0.79340109  1
  O2-  O411  1  0.57508666  0.39355468  0.14335534  1
  O2-  O412  1  0.59542287  0.45074055  0.46014115  1
  O2-  O413  1  0.57146230  0.39419708  0.81521875  1
  O2-  O414  1  0.58650237  0.70415749  0.15079717  1
  O2-  O415  1  0.58021938  0.68429192  0.46718217  1
  O2-  O416  1  0.55047652  0.62929306  0.80557868  1
  O2-  O417  1  0.58111449  0.90790234  0.14345639  1
  O2-  O418  1  0.60430809  0.90915453  0.46360812  1
  O2-  O419  1  0.58331873  0.94374497  0.79892209  1
  O2-  O420  1  0.83878581  0.16760698  0.14776515  1
  O2-  O421  1  0.88334296  0.19520316  0.46418610  1
  O2-  O422  1  0.85348721  0.16119403  0.82305847  1
  O2-  O423  1  0.83099493  0.40812000  0.14611422  1
  O2-  O424  1  0.82338457  0.42236029  0.48013596  1
  O2-  O425  1  0.83845832  0.41308518  0.81209422  1
  O2-  O426  1  0.81258055  0.65312685  0.15053756  1
  O2-  O427  1  0.84744840  0.68736280  0.45759915  1
  O2-  O428  1  0.81504888  0.70496651  0.81584245  1
  O2-  O429  1  0.82260258  0.91412731  0.14874083  1
  O2-  O430  1  0.83522982  0.91690823  0.47511745  1
  O2-  O431  1  0.85286018  0.92944626  0.81297272  1
  O2-  O432  1  0.14835069  0.06115644  0.15033665  1
  O2-  O433  1  0.15379274  0.08529461  0.53531311  1
  O2-  O434  1  0.14283701  0.12051328  0.84170519  1
  O2-  O435  1  0.17239596  0.32919312  0.19067562  1
  O2-  O436  1  0.16313389  0.33770009  0.51234766  1
  O2-  O437  1  0.21390412  0.34228000  0.86385930  1
  O2-  O438  1  0.16605079  0.57243172  0.18688254  1
  O2-  O439  1  0.16317435  0.58101080  0.50498785  1
  O2-  O440  1  0.15305963  0.57888153  0.85890279  1
  O2-  O441  1  0.16552800  0.83511666  0.18554835  1
  O2-  O442  1  0.16014403  0.82306891  0.52450992  1
  O2-  O443  1  0.16025841  0.82362925  0.85946005  1
  O2-  O444  1  0.41705848  0.08690199  0.17899086  1
  O2-  O445  1  0.41950254  0.07356770  0.53427933  1
  O2-  O446  1  0.32706675  0.04257478  0.88358127  1
  O2-  O447  1  0.41556834  0.30808334  0.18687495  1
  O2-  O448  1  0.46078184  0.39860228  0.53307142  1
  O2-  O449  1  0.40925041  0.33592652  0.85672419  1
  O2-  O450  1  0.41963164  0.58780140  0.19363156  1
  O2-  O451  1  0.42075801  0.59878662  0.51778173  1
  O2-  O452  1  0.38990710  0.56644933  0.85321922  1
  O2-  O453  1  0.42087122  0.86057150  0.19151708  1
  O2-  O454  1  0.39713729  0.81745103  0.51816063  1
  O2-  O455  1  0.39116056  0.82119707  0.85832438  1
  O2-  O456  1  0.67274964  0.07310916  0.18376023  1
  O2-  O457  1  0.67178730  0.07064536  0.51181931  1
  O2-  O458  1  0.69207881  0.10958556  0.85635840  1
  O2-  O459  1  0.66585424  0.32127757  0.18229120  1
  O2-  O460  1  0.66715471  0.29156389  0.55606048  1
  O2-  O461  1  0.67712154  0.33464343  0.85603781  1
  O2-  O462  1  0.63317791  0.55331045  0.18109731  1
  O2-  O463  1  0.69443683  0.60895370  0.52537263  1
  O2-  O464  1  0.64959327  0.55803719  0.85113045  1
  O2-  O465  1  0.73686243  0.89854821  0.16617590  1
  O2-  O466  1  0.66987388  0.83311535  0.50827398  1
  O2-  O467  1  0.67341465  0.86988925  0.85058561  1
  O2-  O468  1  0.92033561  0.08559518  0.18889688  1
  O2-  O469  1  0.91916026  0.08097395  0.52395843  1
  O2-  O470  1  0.94763676  0.09085137  0.85947218  1
  O2-  O471  1  0.91577018  0.33226913  0.18795726  1
  O2-  O472  1  0.90555854  0.33354439  0.51405196  1
  O2-  O473  1  0.92032461  0.32491837  0.85817484  1
  O2-  O474  1  0.90004035  0.56812844  0.18569956  1
  O2-  O475  1  0.92132196  0.57576340  0.53188193  1
  O2-  O476  1  0.89418168  0.58287219  0.85793815  1
  O2-  O477  1  0.91264952  0.82430625  0.16478477  1
  O2-  O478  1  0.93260909  0.84325330  0.51497089  1
  O2-  O479  1  0.95398990  0.86653421  0.86635515  1
  O2-  O480  1  0.15926194  0.08558387  0.31373209  1
  O2-  O481  1  0.16040218  0.07351835  0.65449102  1
  O2-  O482  1  0.16166641  0.10489509  0.96941114  1
  O2-  O483  1  0.17146658  0.32621359  0.31664250  1
  O2-  O484  1  0.15656123  0.33442654  0.63902199  1
  O2-  O485  1  0.16998389  0.33725561  0.98665498  1
  O2-  O486  1  0.16291118  0.57885347  0.31309330  1
  O2-  O487  1  0.17839442  0.57756624  0.61778938  1
  O2-  O488  1  0.16234116  0.56371194  0.97623199  1
  O2-  O489  1  0.17001355  0.83212330  0.30489665  1
  O2-  O490  1  0.16937540  0.84084853  0.65238552  1
  O2-  O491  1  0.16563414  0.81714790  0.98166429  1
  O2-  O492  1  0.42350585  0.11555849  0.30301341  1
  O2-  O493  1  0.42386014  0.08809990  0.65579242  1
  O2-  O494  1  0.41676758  0.09974967  0.98600671  1
  O2-  O495  1  0.42029015  0.33484695  0.30592103  1
  O2-  O496  1  0.37761790  0.32683083  0.67901071  1
  O2-  O497  1  0.41680823  0.34153060  0.98054379  1
  O2-  O498  1  0.40684230  0.58268653  0.31536579  1
  O2-  O499  1  0.42638915  0.59308193  0.64031200  1
  O2-  O500  1  0.40941972  0.58729370  0.97826626  1
  O2-  O501  1  0.42187982  0.82881633  0.31320841  1
  O2-  O502  1  0.39326653  0.82845015  0.64312541  1
  O2-  O503  1  0.41686412  0.83597529  0.98607807  1
  O2-  O504  1  0.66434158  0.06413811  0.30518699  1
  O2-  O505  1  0.67107741  0.08059818  0.64330492  1
  O2-  O506  1  0.66593865  0.10147812  0.98352414  1
  O2-  O507  1  0.67286498  0.31950940  0.30840613  1
  O2-  O508  1  0.62815963  0.35966930  0.69632312  1
  O2-  O509  1  0.67274472  0.33395810  0.98031312  1
  O2-  O510  1  0.65080127  0.58536041  0.30025425  1
  O2-  O511  1  0.66733653  0.60147353  0.64222465  1
  O2-  O512  1  0.68125110  0.58734661  0.97296813  1
  O2-  O513  1  0.67838143  0.84475527  0.28950799  1
  O2-  O514  1  0.67108648  0.85197738  0.63953500  1
  O2-  O515  1  0.68595238  0.84780368  0.98080213  1
  O2-  O516  1  0.92194394  0.08485180  0.31094941  1
  O2-  O517  1  0.92539842  0.08420198  0.64882035  1
  O2-  O518  1  0.91787574  0.08365988  0.98370131  1
  O2-  O519  1  0.90410386  0.32447258  0.31115621  1
  O2-  O520  1  0.92901615  0.34447857  0.63779657  1
  O2-  O521  1  0.90966187  0.32752370  0.98265321  1
  O2-  O522  1  0.91046077  0.58191126  0.30901752  1
  O2-  O523  1  0.92486429  0.57138191  0.65529643  1
  O2-  O524  1  0.91597212  0.58450111  0.98203824  1
  O2-  O525  1  0.92775499  0.84019484  0.31680615  1
  O2-  O526  1  0.93297401  0.83008995  0.63968280  1
  O2-  O527  1  0.92330557  0.83404249  0.98682500  1
  O2-  O528  1  0.08056286  0.17523643  0.02227917  1
  O2-  O529  1  0.08374454  0.16206969  0.36192727  1
  O2-  O530  1  0.09066484  0.16500101  0.69040214  1
  O2-  O531  1  0.07025988  0.39844541  0.02745858  1
  O2-  O532  1  0.10015289  0.39019018  0.39590358  1
  O2-  O533  1  0.08518929  0.42814402  0.67952032  1
  O2-  O534  1  0.08130457  0.65158790  0.02859167  1
  O2-  O535  1  0.08050112  0.66908260  0.35124666  1
  O2-  O536  1  0.07956903  0.67494541  0.70094714  1
  O2-  O537  1  0.08155602  0.88124480  0.05826867  1
  O2-  O538  1  0.08997013  0.91456656  0.34739908  1
  O2-  O539  1  0.08989501  0.91955766  0.68144618  1
  O2-  O540  1  0.32917487  0.17717773  0.02418001  1
  O2-  O541  1  0.33237555  0.17619865  0.34883364  1
  O2-  O542  1  0.33139498  0.16045509  0.69812614  1
  O2-  O543  1  0.33929989  0.42773743  0.02264479  1
  O2-  O544  1  0.33908936  0.42060373  0.35656275  1
  O2-  O545  1  0.31185675  0.44667231  0.69035408  1
  O2-  O546  1  0.33351096  0.67654951  0.02450113  1
  O2-  O547  1  0.32508372  0.66141656  0.34942946  1
  O2-  O548  1  0.32670351  0.65922647  0.68534117  1
  O2-  O549  1  0.32922700  0.92061233  -0.01026675  1
  O2-  O550  1  0.33777820  0.90463789  0.35115071  1
  O2-  O551  1  0.33012704  0.91888075  0.68958343  1
  O2-  O552  1  0.56899899  0.18331124  0.02681624  1
  O2-  O553  1  0.58782296  0.15110168  0.34561448  1
  O2-  O554  1  0.59881308  0.19190296  0.67259307  1
  O2-  O555  1  0.58816435  0.41295637  0.02037425  1
  O2-  O556  1  0.59864284  0.41268139  0.34304350  1
  O2-  O557  1  0.54376788  0.43349301  0.64132819  1
  O2-  O558  1  0.56276532  0.63480334  0.02964435  1
  O2-  O559  1  0.58022609  0.68743500  0.34083170  1
  O2-  O560  1  0.56929504  0.65519626  0.69438829  1
  O2-  O561  1  0.59351979  0.93151501  -0.01273290  1
  O2-  O562  1  0.58479564  0.90233207  0.34560818  1
  O2-  O563  1  0.53382482  0.85714192  0.69116368  1
  O2-  O564  1  0.82847691  0.16315766  0.02344114  1
  O2-  O565  1  0.82542076  0.15632742  0.34568336  1
  O2-  O566  1  0.82189834  0.14533453  0.69741072  1
  O2-  O567  1  0.83598112  0.42000547  0.02257579  1
  O2-  O568  1  0.88536888  0.43628346  0.36837495  1
  O2-  O569  1  0.82657918  0.40958466  0.68952043  1
  O2-  O570  1  0.84549468  0.67705396  0.00732551  1
  O2-  O571  1  0.82242341  0.66301674  0.34000438  1
  O2-  O572  1  0.84136357  0.65716673  0.67948365  1
  O2-  O573  1  0.84818852  0.92383578  0.02819802  1
  O2-  O574  1  0.83412133  0.91895937  0.34768785  1
  O2-  O575  1  0.84450108  0.91619448  0.68816707  1
