# generated using pymatgen
data_H2O
_symmetry_space_group_name_H-M   'P 1'
_cell_length_a   18.00264045
_cell_length_b   18.00365384
_cell_length_c   22.01461199
_cell_angle_alpha   89.98351287
_cell_angle_beta   89.99543816
_cell_angle_gamma   120.01870103
_symmetry_Int_Tables_number   1
_chemical_formula_structural   H2O
_chemical_formula_sum   'H384 O192'
_cell_volume   6178.12406741
_cell_formula_units_Z   192
loop_
 _symmetry_equiv_pos_site_id
 _symmetry_equiv_pos_as_xyz
  1  'x, y, z'
loop_
 _atom_type_symbol
 _atom_type_oxidation_number
  H+  1.0
  O2-  -2.0
loop_
 _atom_site_type_symbol
 _atom_site_label
 _atom_site_symmetry_multiplicity
 _atom_site_fract_x
 _atom_site_fract_y
 _atom_site_fract_z
 _atom_site_occupancy
  H+  H0  1  0.64296433  0.85180301  -0.02035042  1
  H+  H1  1  0.88570180  0.26861209  0.17700638  1
  H+  H2  1  0.59651833  0.49941765  0.14673347  1
  H+  H3  1  0.47907491  0.12842658  0.17555230  1
  H+  H4  1  0.63925238  0.61554126  0.66545248  1
  H+  H5  1  0.47709486  0.61696315  0.66467324  1
  H+  H6  1  0.61881797  0.72999433  0.67077543  1
  H+  H7  1  0.23570893  0.11871875  0.66225185  1
  H+  H8  1  0.14396706  0.77730460  0.66249531  1
  H+  H9  1  0.50259764  0.85768031  0.00703926  1
  H+  H10  1  0.35411414  0.63362256  0.01422571  1
  H+  H11  1  0.42024095  0.58373660  0.24209525  1
  H+  H12  1  0.23342157  0.86798125  0.66333771  1
  H+  H13  1  0.15017874  0.13247675  0.01314077  1
  H+  H14  1  0.36355502  0.00554733  0.49796712  1
  H+  H15  1  0.07800196  0.92746865  0.21949899  1
  H+  H16  1  0.15174681  0.86171144  0.17750529  1
  H+  H17  1  0.54594606  0.49564774  0.47321747  1
  H+  H18  1  0.62195738  0.22638451  0.67858607  1
  H+  H19  1  0.91528266  0.07985253  0.94203716  1
  H+  H20  1  0.58583234  0.67559761  0.73256293  1
  H+  H21  1  0.86589898  0.46702596  0.48313648  1
  H+  H22  1  0.11199824  0.63326269  0.66881475  1
  H+  H23  1  0.13427827  0.51707281  -0.01479607  1
  H+  H24  1  0.86757372  0.38709998  0.66032504  1
  H+  H25  1  0.27516556  0.63820886  0.34319665  1
  H+  H26  1  0.10910751  0.51762212  0.83803107  1
  H+  H27  1  0.72996453  0.12419584  0.97717144  1
  H+  H28  1  0.48468434  0.12287908  0.51514320  1
  H+  H29  1  0.47628819  0.38422160  0.16119221  1
  H+  H30  1  0.36850506  0.89082417  0.83129530  1
  H+  H31  1  0.13072616  0.11679398  0.34145899  1
  H+  H32  1  0.02337275  0.38161165  0.16937719  1
  H+  H33  1  0.11480878  0.52032906  0.51187575  1
  H+  H34  1  0.90180609  0.51963311  0.82901600  1
  H+  H35  1  0.37360798  0.84478992  0.21418638  1
  H+  H36  1  0.79007144  0.08168990  0.12735709  1
  H+  H37  1  0.85863411  0.22948637  0.33844519  1
  H+  H38  1  0.13213220  0.52213993  0.66625938  1
  H+  H39  1  0.61799393  0.37124396  0.26863231  1
  H+  H40  1  0.66975593  0.26583211  0.00195607  1
  H+  H41  1  0.85104525  0.88626865  0.16660485  1
  H+  H42  1  0.73063573  0.83970799  0.51911617  1
  H+  H43  1  0.97697319  0.36734487  0.65805026  1
  H+  H44  1  0.97095507  0.85688036  0.64996178  1
  H+  H45  1  0.61365655  0.47746110  0.66754101  1
  H+  H46  1  0.86648314  0.43256870  0.06600724  1
  H+  H47  1  0.14807857  0.27181152  0.32904565  1
  H+  H48  1  0.37013502  0.72742407  0.02251684  1
  H+  H49  1  0.87722723  0.64546245  0.33795573  1
  H+  H50  1  0.60748549  0.72287779  0.00027210  1
  H+  H51  1  0.78656922  0.18030587  0.80431591  1
  H+  H52  1  0.60774866  0.26349112  0.84193811  1
  H+  H53  1  0.13974565  0.05458308  0.83534493  1
  H+  H54  1  0.11631102  0.72237908  0.15670654  1
  H+  H55  1  0.64043869  1.02329891  0.66592958  1
  H+  H56  1  0.37084455  0.23100919  0.67106535  1
  H+  H57  1  0.72805972  0.61319211  0.66476527  1
  H+  H58  1  0.87697694  -0.04228154  0.82918478  1
  H+  H59  1  1.02254993  0.14004480  0.34524202  1
  H+  H60  1  0.12125698  0.17789707  0.82194460  1
  H+  H61  1  0.29275938  0.15055622  0.00896288  1
  H+  H62  1  0.57043037  0.86156561  0.48008581  1
  H+  H63  1  0.36741397  0.48228607  0.68007125  1
  H+  H64  1  0.10496012  -0.07609182  0.79925302  1
  H+  H65  1  0.27079909  0.63591543  0.67011891  1
  H+  H66  1  0.35737187  0.72745653  0.66910938  1
  H+  H67  1  0.11485485  0.97644055  0.66033727  1
  H+  H68  1  0.35106499  0.89259061  -0.02313690  1
  H+  H69  1  0.12550636  0.23785086  0.66892681  1
  H+  H70  1  0.89519718  0.28032395  0.64023516  1
  H+  H71  1  0.60845179  0.64898129  0.82922877  1
  H+  H72  1  0.51183700  0.34215513  0.97167686  1
  H+  H73  1  0.15162309  0.06161740  0.76470571  1
  H+  H74  1  0.36454496  0.48354740  0.16891223  1
  H+  H75  1  0.98364119  0.86620686  0.32527770  1
  H+  H76  1  0.60490475  0.90010192  0.18005775  1
  H+  H77  1  0.88852202  0.40192041  0.00226072  1
  H+  H78  1  0.61236108  0.13144611  1.01021017  1
  H+  H79  1  0.82827129  0.31080710  0.94057386  1
  H+  H80  1  0.61944655  0.40935330  0.33850275  1
  H+  H81  1  0.74299708  0.38857347  0.33360896  1
  H+  H82  1  0.05413591  0.41620076  0.75229119  1
  H+  H83  1  0.64536286  0.04063502  0.95381103  1
  H+  H84  1  1.01850681  0.38226479  1.01584152  1
  H+  H85  1  0.18670293  0.10321508  0.06791359  1
  H+  H86  1  0.13238970  0.25346888  0.50825979  1
  H+  H87  1  0.93496371  0.62514235  0.97855206  1
  H+  H88  1  0.60913351  0.86860396  0.67387567  1
  H+  H89  1  0.25972209  0.39009440  0.83235280  1
  H+  H90  1  0.88139644  1.02593811  0.00307207  1
  H+  H91  1  0.64134099  0.55704260  0.34064503  1
  H+  H92  1  0.38925926  0.36506166  0.66228990  1
  H+  H93  1  0.59926460  0.58765885  0.49771202  1
  H+  H94  1  0.11874328  -0.02159377  0.34383090  1
  H+  H95  1  0.66544665  0.95463978  0.04561951  1
  H+  H96  1  0.03687000  0.13829264  0.15693853  1
  H+  H97  1  0.65044702  1.01874524  0.82011055  1
  H+  H98  1  0.87201564  0.13246052  0.48752933  1
  H+  H99  1  0.83507128  0.71089063  0.18516333  1
  H+  H100  1  0.39647802  0.11497149  0.98523989  1
  H+  H101  1  0.11117951  0.62883082  0.81921713  1
  H+  H102  1  0.89457717  0.76909983  0.50073678  1
  H+  H103  1  0.11211440  0.88019235  -0.04670581  1
  H+  H104  1  0.41464525  0.33453382  0.60040550  1
  H+  H105  1  0.61217728  0.15683120  0.17141598  1
  H+  H106  1  0.91926183  0.33768139  0.91172175  1
  H+  H107  1  0.36031717  0.39265905  0.16557943  1
  H+  H108  1  0.74184956  0.87803477  0.32344683  1
  H+  H109  1  0.87069123  0.89154448  0.32979069  1
  H+  H110  1  0.29588541  0.16195131  0.14221293  1
  H+  H111  1  0.37257560  0.86553790  0.50569373  1
  H+  H112  1  0.85048716  0.17929792  0.71451595  1
  H+  H113  1  0.63053820  0.35725625  0.83065282  1
  H+  H114  1  0.13296981  0.36562676  0.99792872  1
  H+  H115  1  0.17114797  0.08855099  0.60525178  1
  H+  H116  1  0.54131462  0.44333393  0.35816905  1
  H+  H117  1  0.59660419  0.37717995  0.49914159  1
  H+  H118  1  0.22146243  0.11208566  0.51087059  1
  H+  H119  1  0.40744851  0.26200664  0.98249778  1
  H+  H120  1  0.86645283  0.63286893  0.49322761  1
  H+  H121  1  0.02363685  0.63540669  0.15560924  1
  H+  H122  1  0.75520351  0.35923067  0.00057115  1
  H+  H123  1  0.29162192  0.97513874  0.44859523  1
  H+  H124  1  0.63012746  0.78552058  0.17019827  1
  H+  H125  1  0.38148887  0.15781746  0.15542329  1
  H+  H126  1  0.35757570  0.71482755  0.17218674  1
  H+  H127  1  0.71690171  0.12405238  0.17739600  1
  H+  H128  1  0.83313598  0.16078933  0.43488829  1
  H+  H129  1  0.35544553  0.22744695  0.50348049  1
  H+  H130  1  0.46177059  0.61571511  -0.00837048  1
  H+  H131  1  0.16588144  0.38619473  0.63500469  1
  H+  H132  1  0.38695968  0.61601601  0.66602734  1
  H+  H133  1  0.91116889  0.99045218  0.47696120  1
  H+  H134  1  0.27571722  0.38035629  0.48870486  1
  H+  H135  1  0.36784456  0.98317087  0.67528702  1
  H+  H136  1  0.38338550  0.91711981  0.13442437  1
  H+  H137  1  0.97330403  0.60790463  0.50499427  1
  H+  H138  1  -0.00924229  0.12232816  0.65259116  1
  H+  H139  1  0.66753054  0.09044839  0.27787198  1
  H+  H140  1  0.52371597  0.38771681  0.66722801  1
  H+  H141  1  0.38152123  0.52517497  0.83894578  1
  H+  H142  1  0.37738767  0.59960057  0.33328081  1
  H+  H143  1  0.46775334  0.86410222  0.19315562  1
  H+  H144  1  0.17788376  0.33933888  0.24823449  1
  H+  H145  1  0.37175003  0.47053532  0.33839175  1
  H+  H146  1  0.58426275  0.62639737  1.01513224  1
  H+  H147  1  0.48595289  0.11772978  0.66717818  1
  H+  H148  1  0.40314561  0.76408102  0.34646721  1
  H+  H149  1  1.01863476  0.63062064  0.81572965  1
  H+  H150  1  0.59056679  0.50856143  1.04725220  1
  H+  H151  1  0.11945761  0.29007988  0.84144474  1
  H+  H152  1  0.02361555  0.14412208  0.00486808  1
  H+  H153  1  0.88146465  0.60388159  0.17757234  1
  H+  H154  1  0.10752385  0.72230777  0.34097756  1
  H+  H155  1  0.92397854  0.53197548  0.98650903  1
  H+  H156  1  0.14015978  0.37397310  0.18467595  1
  H+  H157  1  0.38520104  0.61115352  0.18335316  1
  H+  H158  1  0.93735378  0.82920808  0.17750957  1
  H+  H159  1  0.42752893  0.09253211  0.60691205  1
  H+  H160  1  0.90813560  0.12343020  0.16963762  1
  H+  H161  1  0.21514649  0.60106512  0.50714781  1
  H+  H162  1  0.72299967  0.87475109  0.16889031  1
  H+  H163  1  0.09852988  0.38261520  0.70911213  1
  H+  H164  1  0.89500200  0.02910540  0.17197370  1
  H+  H165  1  0.39794316  0.28937466  0.16586904  1
  H+  H166  1  0.49040014  0.09057880  0.35580737  1
  H+  H167  1  0.90555546  0.79763947  -0.00942104  1
  H+  H168  1  0.54171130  0.60363379  0.41670066  1
  H+  H169  1  0.76994657  0.62389647  0.82953916  1
  H+  H170  1  0.49853145  0.33456428  0.31490435  1
  H+  H171  1  0.78534576  0.87375393  0.82566470  1
  H+  H172  1  0.06740558  0.38775612  0.36422004  1
  H+  H173  1  0.11641230  0.88240207  0.49764335  1
  H+  H174  1  0.13569360  0.60755592  0.17106182  1
  H+  H175  1  0.86215741  0.72253320  0.67122873  1
  H+  H176  1  0.34931317  0.47700795  0.00754856  1
  H+  H177  1  0.73665365  0.87174364  0.65110555  1
  H+  H178  1  0.46842972  0.85862821  0.65403404  1
  H+  H179  1  0.62722631  1.03869450  0.18666197  1
  H+  H180  1  0.86170838  0.35669957  0.31961344  1
  H+  H181  1  0.46695791  0.60262164  0.34187056  1
  H+  H182  1  0.22551980  0.86789295  0.50877150  1
  H+  H183  1  0.36438508  0.89247048  0.67326536  1
  H+  H184  1  0.95191554  0.42105299  0.48727058  1
  H+  H185  1  0.96849839  0.10206712  0.55558626  1
  H+  H186  1  0.23685391  0.86046309  0.16411129  1
  H+  H187  1  0.25889665  0.62570991  0.82082994  1
  H+  H188  1  0.80868853  0.38557332  0.81984778  1
  H+  H189  1  0.72972287  0.11432631  0.33560847  1
  H+  H190  1  0.23729482  0.38024704  0.18072070  1
  H+  H191  1  0.37012322  0.76151386  0.84232724  1
  H+  H192  1  0.90287057  0.82537455  0.24593430  1
  H+  H193  1  0.16984640  0.58886360  0.26918490  1
  H+  H194  1  0.58255739  0.09617600  0.35796588  1
  H+  H195  1  0.53915422  0.88413914  0.34847080  1
  H+  H196  1  0.40779750  0.08450168  0.27228373  1
  H+  H197  1  0.97297511  0.60319230  0.32893816  1
  H+  H198  1  0.36842379  0.22837849  0.34348381  1
  H+  H199  1  0.83876746  0.46816131  0.33256239  1
  H+  H200  1  0.37787463  0.10893135  0.33275411  1
  H+  H201  1  0.64446554  0.29506035  0.16490186  1
  H+  H202  1  0.13911209  0.61753578  0.32857779  1
  H+  H203  1  0.88973112  0.52140182  0.65827124  1
  H+  H204  1  0.88527548  0.25069422  0.80762074  1
  H+  H205  1  0.59905905  0.96107827  0.49852180  1
  H+  H206  1  0.86560507  0.89424566  1.01119054  1
  H+  H207  1  0.37777799  0.61176256  0.83533122  1
  H+  H208  1  0.63852381  0.36127907  0.67006446  1
  H+  H209  1  0.72524626  0.09825607  0.50670279  1
  H+  H210  1  0.07393690  0.16358067  0.40788365  1
  H+  H211  1  0.64298828  0.11245529  0.66353102  1
  H+  H212  1  0.61031663  0.13146065  0.50516148  1
  H+  H213  1  0.86653685  0.14417664  0.33804003  1
  H+  H214  1  0.89427753  1.02966897  0.32440220  1
  H+  H215  1  0.43261027  0.87328426  1.03409839  1
  H+  H216  1  0.88440621  0.75278675  0.82898988  1
  H+  H217  1  0.66603950  0.88609990  0.83599947  1
  H+  H218  1  0.53782557  0.83944686  0.72430719  1
  H+  H219  1  0.22544011  0.84734575  0.33303656  1
  H+  H220  1  0.78649333  0.65018992  0.49529921  1
  H+  H221  1  0.09622021  0.47356557  0.32624752  1
  H+  H222  1  0.14897435  0.13125192  0.14658244  1
  H+  H223  1  0.55182570  0.12448456  0.83277901  1
  H+  H224  1  0.22821911  0.86594894  0.99715890  1
  H+  H225  1  0.72833360  0.36259946  0.66525964  1
  H+  H226  1  0.67462460  0.57991753  1.01748577  1
  H+  H227  1  0.24367582  0.37510206  0.65866435  1
  H+  H228  1  0.39592149  0.12845337  0.51615882  1
  H+  H229  1  0.52732610  0.13593989  0.01079390  1
  H+  H230  1  0.11122569  0.63444446  0.49569352  1
  H+  H231  1  0.51666595  0.64875453  0.16618029  1
  H+  H232  1  0.90373350  0.12293589  0.64159263  1
  H+  H233  1  0.84267885  0.65330954  0.02094541  1
  H+  H234  1  0.38545055  0.26555648  0.83352582  1
  H+  H235  1  0.62836447  0.43967817  -0.01772143  1
  H+  H236  1  0.84924587  0.41659487  0.72439536  1
  H+  H237  1  0.12605805  0.14901122  0.67401022  1
  H+  H238  1  0.63810920  0.35570333  0.98036750  1
  H+  H239  1  1.05176204  0.64178369  0.99859716  1
  H+  H240  1  0.11200654  0.23640029  0.00114321  1
  H+  H241  1  0.86110015  0.88801838  0.65645283  1
  H+  H242  1  0.27400535  0.14640131  0.34962275  1
  H+  H243  1  0.35410250  0.63893762  0.50015057  1
  H+  H244  1  0.24459395  0.35450845  0.32583928  1
  H+  H245  1  0.85663278  0.22802214  -0.00967268  1
  H+  H246  1  0.89264484  0.52128841  0.16944974  1
  H+  H247  1  0.88824497  0.61023461  0.65948459  1
  H+  H248  1  0.59398611  0.64028178  0.35614695  1
  H+  H249  1  0.22360635  0.36810014  0.99585716  1
  H+  H250  1  0.77411568  0.88599389  1.00605134  1
  H+  H251  1  0.56865896  0.73036486  0.43505680  1
  H+  H252  1  0.29478184  0.12510861  0.81657881  1
  H+  H253  1  0.69691234  0.60750858  0.18976159  1
  H+  H254  1  0.38221813  0.36173145  0.51023757  1
  H+  H255  1  0.36098659  0.85686308  0.35386873  1
  H+  H256  1  0.62740291  -0.01625867  0.33975148  1
  H+  H257  1  -0.01978425  0.89257713  -0.01340853  1
  H+  H258  1  0.68959692  0.36547528  0.21510792  1
  H+  H259  1  0.78692074  0.13854014  0.65944209  1
  H+  H260  1  0.90349380  0.39450191  0.81889158  1
  H+  H261  1  0.38314901  0.38721116  0.33851561  1
  H+  H262  1  0.13677631  0.01854877  0.51208203  1
  H+  H263  1  0.61763504  0.62263064  0.17532305  1
  H+  H264  1  0.71074970  0.70588795  0.53756279  1
  H+  H265  1  0.72814011  0.87979742  0.51380223  1
  H+  H266  1  -0.02000152  0.10903468  0.84295975  1
  H+  H267  1  0.09066120  0.11092913  0.50664226  1
  H+  H268  1  0.12109956  0.88968586  0.33945130  1
  H+  H269  1  0.39106940  0.53611217  0.50758018  1
  H+  H270  1  0.16534059  1.04984581  0.16196919  1
  H+  H271  1  -0.01905765  0.84060475  0.81204327  1
  H+  H272  1  0.41051223  0.58652514  0.56981758  1
  H+  H273  1  0.11697541  0.88788475  0.65466665  1
  H+  H274  1  0.45863884  0.36547921  0.82914754  1
  H+  H275  1  0.38973080  1.04131040  0.16655984  1
  H+  H276  1  0.10708139  0.34297743  0.45612596  1
  H+  H277  1  0.50583117  0.48145856  0.77603229  1
  H+  H278  1  0.95858494  0.36757183  0.31786553  1
  H+  H279  1  0.22404805  0.60602887  0.17456909  1
  H+  H280  1  0.13735289  0.75667501  0.00961090  1
  H+  H281  1  0.63853376  0.89111607  0.33407772  1
  H+  H282  1  0.12498396  0.00537858  1.00765381  1
  H+  H283  1  0.16248467  0.61498960  0.98833487  1
  H+  H284  1  0.86729317  0.97956572  0.65071040  1
  H+  H285  1  1.02233337  0.63476313  0.66881295  1
  H+  H286  1  0.11279230  0.72368854  0.49467785  1
  H+  H287  1  0.85920743  0.13986076  -0.00134785  1
  H+  H288  1  0.16985097  0.83018341  0.56916938  1
  H+  H289  1  0.83112187  0.91894935  0.10343662  1
  H+  H290  1  0.87084530  0.38448004  0.15923837  1
  H+  H291  1  0.90544261  0.32741097  0.23639626  1
  H+  H292  1  0.65050607  0.57547279  0.89740599  1
  H+  H293  1  0.62962016  0.27401181  0.51205819  1
  H+  H294  1  0.56602918  0.14237562  0.44656648  1
  H+  H295  1  0.08149136  0.18597547  0.76052785  1
  H+  H296  1  0.58381049  0.17572753  0.10754989  1
  H+  H297  1  0.88839449  0.89297995  0.47962496  1
  H+  H298  1  0.06204035  0.88166298  0.73784940  1
  H+  H299  1  0.56990997  0.67891333  0.10291426  1
  H+  H300  1  0.09532011  0.66816471  0.06717368  1
  H+  H301  1  0.37372682  0.14245671  0.67189666  1
  H+  H302  1  0.63069407  0.86793263  0.08047065  1
  H+  H303  1  0.07067471  0.37700167  0.84453134  1
  H+  H304  1  0.83826491  0.40883206  0.42457582  1
  H+  H305  1  0.36375921  0.18382003  0.06026270  1
  H+  H306  1  0.35457693  0.17063151  0.76138181  1
  H+  H307  1  0.98209823  0.04160526  0.88527281  1
  H+  H308  1  0.57759575  0.41538913  0.43743877  1
  H+  H309  1  0.23922474  0.05632610  0.90683183  1
  H+  H310  1  0.68838701  0.62299791  0.57692718  1
  H+  H311  1  0.92948586  0.09388860  0.26821678  1
  H+  H312  1  0.67911740  0.82966918  0.92108838  1
  H+  H313  1  -0.02005775  0.39347258  0.54695929  1
  H+  H314  1  0.83311800  0.66162940  0.73106450  1
  H+  H315  1  0.57011440  0.92612976  0.12457209  1
  H+  H316  1  0.15419471  0.34324104  0.90397657  1
  H+  H317  1  0.22648610  0.08978163  0.91173377  1
  H+  H318  1  0.16667093  0.09876973  0.28120651  1
  H+  H319  1  0.82147015  0.16299223  0.08720397  1
  H+  H320  1  0.43359753  0.08662458  0.92706236  1
  H+  H321  1  0.09474948  0.91604125  0.04022110  1
  H+  H322  1  0.33552951  0.93119685  0.08062868  1
  H+  H323  1  0.91435510  0.57742792  0.56394938  1
  H+  H324  1  0.65662889  0.33103728  0.57080651  1
  H+  H325  1  0.43310179  0.82193379  0.28781047  1
  H+  H326  1  0.43749682  0.33305352  0.26188555  1
  H+  H327  1  0.40347741  0.81579480  0.90237716  1
  H+  H328  1  0.11077720  0.47327712  0.16718764  1
  H+  H329  1  0.98300520  0.85906612  0.50665050  1
  H+  H330  1  0.78598255  0.39277306  0.14935180  1
  H+  H331  1  0.08797850  0.17544077  0.09449543  1
  H+  H332  1  0.60369043  0.42170481  0.11774334  1
  H+  H333  1  0.67675615  0.84925493  0.26606594  1
  H+  H334  1  0.36423548  0.98665194  -0.01275027  1
  H+  H335  1  0.66483479  0.83477244  0.59818234  1
  H+  H336  1  0.07816038  0.41394414  0.07460401  1
  H+  H337  1  0.33141065  0.90139626  0.40295967  1
  H+  H338  1  0.93672237  0.58058065  0.88827080  1
  H+  H339  1  0.89598859  0.77224208  0.33002091  1
  H+  H340  1  0.33148089  0.17004810  0.44339528  1
  H+  H341  1  0.85148276  0.92701783  0.38984376  1
  H+  H342  1  0.85899614  0.62105222  0.82595039  1
  H+  H343  1  0.08023854  0.66295908  0.40028125  1
  H+  H344  1  0.32893658  0.41727783  0.73743777  1
  H+  H345  1  0.32334254  0.66230888  0.76412780  1
  H+  H346  1  0.90880938  0.82151207  0.59385827  1
  H+  H347  1  0.66950953  0.13457158  0.88148995  1
  H+  H348  1  0.46237033  0.86594664  0.50650713  1
  H+  H349  1  0.92926868  0.70394189  0.05595008  1
  H+  H350  1  0.32092431  0.42094327  0.06767978  1
  H+  H351  1  0.34190781  0.37700529  0.83365962  1
  H+  H352  1  0.08241170  0.66041782  0.75194600  1
  H+  H353  1  0.06253421  0.91885850  0.14925280  1
  H+  H354  1  0.63646973  0.59643538  0.27786238  1
  H+  H355  1  0.03514579  0.36666995  0.46035769  1
  H+  H356  1  0.88868486  0.85024229  0.82807773  1
  H+  H357  1  0.63941221  0.78547027  0.83168513  1
  H+  H358  1  0.42312639  0.11959111  0.83547732  1
  H+  H359  1  0.17571431  0.32451095  0.55876390  1
  H+  H360  1  0.62296821  0.95045257  0.76758242  1
  H+  H361  1  0.17524368  0.82909750  0.26995661  1
  H+  H362  1  0.55867789  0.43920785  0.75131521  1
  H+  H363  1  0.43165121  0.32156282  0.91725113  1
  H+  H364  1  0.34328696  0.41600349  0.43475724  1
  H+  H365  1  0.15451232  0.58054850  0.89323937  1
  H+  H366  1  0.40496124  0.83458617  0.59683006  1
  H+  H367  1  0.79903032  0.65272786  0.12737460  1
  H+  H368  1  0.34519053  0.92688735  0.77246200  1
  H+  H369  1  0.33403781  0.66106582  0.10932644  1
  H+  H370  1  0.32779515  0.65971147  0.40571590  1
  H+  H371  1  0.66924508  0.07332593  0.56708228  1
  H+  H372  1  0.51742780  0.64491564  0.82632713  1
  H+  H373  1  0.60037148  0.16485439  0.73620238  1
  H+  H374  1  0.61838518  0.53327552  0.83232221  1
  H+  H375  1  0.91917558  0.57854399  0.26754994  1
  H+  H376  1  0.41026025  1.02434187  0.83823032  1
  H+  H377  1  0.08937241  0.91456382  0.43765043  1
  H+  H378  1  0.16020752  0.57482011  0.60247348  1
  H+  H379  1  0.40396778  0.58484064  0.93189629  1
  H+  H380  1  0.34809951  0.72525901  0.49616248  1
  H+  H381  1  0.84946403  0.67629701  0.39766013  1
  H+  H382  1  0.51825076  0.71055902  0.49513185  1
  H+  H383  1  0.46766915  0.35372699  0.50818442  1
  O2-  O384  1  0.09504661  0.17031992  0.13901841  1
  O2-  O385  1  0.06252902  0.14477838  0.49221607  1
  O2-  O386  1  0.07616249  0.18771009  0.80637039  1
  O2-  O387  1  0.08336788  0.41177350  0.15315911  1
  O2-  O388  1  0.05990929  0.34111190  0.43258309  1
  O2-  O389  1  0.04052934  0.40714088  0.82781470  1
  O2-  O390  1  0.08382698  0.66318374  0.13939348  1
  O2-  O391  1  0.08118857  0.66385065  0.47875865  1
  O2-  O392  1  0.08091194  0.65994271  0.79988627  1
  O2-  O393  1  0.10611820  0.93285800  0.18040649  1
  O2-  O394  1  0.08957391  0.91636192  0.48288062  1
  O2-  O395  1  0.06036937  0.86867008  0.78261406  1
  O2-  O396  1  0.35925598  0.19234878  0.13396972  1
  O2-  O397  1  0.32697948  0.16593547  0.48870821  1
  O2-  O398  1  0.35509494  0.16680562  0.80717418  1
  O2-  O399  1  0.32879669  0.42312009  0.15349255  1
  O2-  O400  1  0.33793060  0.41737946  0.47963721  1
  O2-  O401  1  0.31950779  0.41328658  0.81698619  1
  O2-  O402  1  0.32929212  0.65593843  0.15564090  1
  O2-  O403  1  0.31982442  0.66421813  0.48255603  1
  O2-  O404  1  0.32055178  0.65680722  0.80944258  1
  O2-  O405  1  0.33949949  0.93232740  0.12595086  1
  O2-  O406  1  0.31933899  0.95230568  0.47463959  1
  O2-  O407  1  0.35055826  0.93222883  0.81731069  1
  O2-  O408  1  0.58321306  0.18583187  0.15220400  1
  O2-  O409  1  0.57895887  0.16061299  0.49083660  1
  O2-  O410  1  0.61238622  0.16529572  0.81710890  1
  O2-  O411  1  0.57046826  0.45123050  0.11551598  1
  O2-  O412  1  0.55904289  0.39837248  0.48124546  1
  O2-  O413  1  0.53877623  0.45534610  0.79053333  1
  O2-  O414  1  0.57621870  0.68384181  0.14804027  1
  O2-  O415  1  0.54394442  0.54901548  0.47771659  1
  O2-  O416  1  0.57848607  0.67750122  0.81149326  1
  O2-  O417  1  0.57022602  0.92837887  0.16925367  1
  O2-  O418  1  0.55212835  0.90490472  0.48377261  1
  O2-  O419  1  0.64149477  0.96145288  0.81013680  1
  O2-  O420  1  0.81474564  0.14368222  0.13089730  1
  O2-  O421  1  0.83000299  0.15043860  0.47937374  1
  O2-  O422  1  0.84382663  0.19278588  0.79126343  1
  O2-  O423  1  0.84891333  0.42056522  0.14020792  1
  O2-  O424  1  0.86174072  0.41450857  0.46596316  1
  O2-  O425  1  0.86614421  0.42229926  0.80346645  1
  O2-  O426  1  0.80844852  0.64965591  0.17062587  1
  O2-  O427  1  0.84344251  0.66945540  0.47650245  1
  O2-  O428  1  0.82894043  0.65226877  0.81238006  1
  O2-  O429  1  0.82945655  0.92292902  0.14910782  1
  O2-  O430  1  0.87368396  0.93330879  0.45937694  1
  O2-  O431  1  0.84694949  0.89790659  0.81452312  1
  O2-  O432  1  0.19080792  0.10670062  0.14313449  1
  O2-  O433  1  0.16110654  0.07886616  0.52725570  1
  O2-  O434  1  0.17107051  0.04720302  0.80199066  1
  O2-  O435  1  0.17658158  0.34892394  0.19930407  1
  O2-  O436  1  0.17142512  0.31585120  0.51431936  1
  O2-  O437  1  0.14936032  0.34892772  0.85856501  1
  O2-  O438  1  0.16279679  0.57626518  0.18891596  1
  O2-  O439  1  0.15742140  0.57806559  0.52694893  1
  O2-  O440  1  0.14873960  0.57934663  0.84681198  1
  O2-  O441  1  0.17962933  0.82697580  0.18339720  1
  O2-  O442  1  0.16622052  0.82886933  0.52360306  1
  O2-  O443  1  0.12920977  0.83668365  0.94167208  1
  O2-  O444  1  0.41658708  0.09771954  0.18667886  1
  O2-  O445  1  0.42271177  0.09475884  0.53092130  1
  O2-  O446  1  0.44857002  0.08690512  0.85356739  1
  O2-  O447  1  0.42300997  0.34790039  0.18472272  1
  O2-  O448  1  0.40756212  0.32744879  0.52733429  1
  O2-  O449  1  0.40544419  0.32429999  0.85139754  1
  O2-  O450  1  0.42121677  0.58563756  0.19615903  1
  O2-  O451  1  0.40765626  0.59287017  0.52531668  1
  O2-  O452  1  0.41282291  0.58656647  0.85129471  1
  O2-  O453  1  0.40978490  0.81937075  0.20829513  1
  O2-  O454  1  0.39896850  0.83380035  0.52190152  1
  O2-  O455  1  0.40058273  0.82105486  0.85853824  1
  O2-  O456  1  0.66095443  0.10046229  0.19814449  1
  O2-  O457  1  0.66484299  0.07024714  0.52216553  1
  O2-  O458  1  0.66736984  0.13032383  0.83619234  1
  O2-  O459  1  0.68212570  0.35852031  0.17100958  1
  O2-  O460  1  0.65208593  0.33360017  0.52633615  1
  O2-  O461  1  0.58825352  0.30460784  0.85043546  1
  O2-  O462  1  0.63368057  0.58048391  0.19143691  1
  O2-  O463  1  0.69997389  0.64734134  0.53448728  1
  O2-  O464  1  0.66052993  0.58752700  0.85397528  1
  O2-  O465  1  0.66075680  0.84900890  0.17968557  1
  O2-  O466  1  0.56541332  0.75826122  0.47314678  1
  O2-  O467  1  0.68204074  0.84255009  0.84887020  1
  O2-  O468  1  0.93255295  0.08960281  0.18613618  1
  O2-  O469  1  0.97177581  0.09615307  0.50981598  1
  O2-  O470  1  0.94277565  0.05969604  0.86991698  1
  O2-  O471  1  0.91470791  0.32850097  0.18992281  1
  O2-  O472  1  1.00326768  0.42308316  0.50815955  1
  O2-  O473  1  0.94814765  0.35167697  0.84301863  1
  O2-  O474  1  0.92143835  0.58210562  0.18464051  1
  O2-  O475  1  0.91237971  0.57793924  0.51879416  1
  O2-  O476  1  0.92719365  0.58114654  0.84347585  1
  O2-  O477  1  0.88527566  0.81630316  0.19937177  1
  O2-  O478  1  0.92105894  0.82896557  0.51817817  1
  O2-  O479  1  0.92229733  0.81654404  0.83724511  1
  O2-  O480  1  0.16368992  0.08874997  0.32483453  1
  O2-  O481  1  0.17322193  0.09018948  0.65093938  1
  O2-  O482  1  0.18371616  0.10291018  1.02211686  1
  O2-  O483  1  0.18514177  0.32762958  0.30878790  1
  O2-  O484  1  0.18407025  0.34383090  0.63951563  1
  O2-  O485  1  0.16219868  0.33695772  0.97891211  1
  O2-  O486  1  0.17257333  0.59016532  0.31433489  1
  O2-  O487  1  0.16302009  0.58030783  0.64825432  1
  O2-  O488  1  0.16473744  0.57174927  0.96267151  1
  O2-  O489  1  0.16790003  0.83105275  0.31421924  1
  O2-  O490  1  0.17363508  0.83636896  0.64565799  1
  O2-  O491  1  0.16260777  0.82964615  1.00137285  1
  O2-  O492  1  0.40076715  0.07320443  0.31625637  1
  O2-  O493  1  0.42528787  0.09005571  0.65260446  1
  O2-  O494  1  0.42427599  0.08113439  0.97283951  1
  O2-  O495  1  0.44052345  0.32550425  0.30674469  1
  O2-  O496  1  0.41917935  0.33524970  0.64661447  1
  O2-  O497  1  0.44632580  0.32103728  0.96268203  1
  O2-  O498  1  0.41046910  0.57264891  0.31760955  1
  O2-  O499  1  0.41544339  0.58309572  0.65278219  1
  O2-  O500  1  0.40147265  0.58297443  0.97716127  1
  O2-  O501  1  0.43842871  0.82592939  0.33253661  1
  O2-  O502  1  0.40728337  0.83229517  0.64268538  1
  O2-  O503  1  0.44308562  0.84391541  1.00089268  1
  O2-  O504  1  0.66792161  0.07890091  0.32187989  1
  O2-  O505  1  0.67207175  0.08066394  0.64837879  1
  O2-  O506  1  0.67070458  0.10226475  0.95962734  1
  O2-  O507  1  0.63032926  0.36177003  0.30999885  1
  O2-  O508  1  0.66580686  0.32831810  0.65572865  1
  O2-  O509  1  0.70481190  0.31749916  0.97683390  1
  O2-  O510  1  0.65380823  0.61250658  0.32024315  1
  O2-  O511  1  0.66814372  0.58525711  0.64789646  1
  O2-  O512  1  0.61323521  0.54537162  1.00975391  1
  O2-  O513  1  0.67955991  0.85124114  0.31073326  1
  O2-  O514  1  0.67051330  0.83527496  0.64235470  1
  O2-  O515  1  0.67526785  0.82389444  0.96724700  1
  O2-  O516  1  0.92496620  0.09236451  0.31313053  1
  O2-  O517  1  0.93692800  0.09443810  0.62849064  1
  O2-  O518  1  0.91115233  0.08613776  0.98665321  1
  O2-  O519  1  0.89521869  0.32910939  0.30604400  1
  O2-  O520  1  0.92588892  0.34327433  0.63150019  1
  O2-  O521  1  0.88576328  0.32251309  0.95245638  1
  O2-  O522  1  0.91333744  0.57650582  0.31233574  1
  O2-  O523  1  0.92168537  0.58317457  0.64487464  1
  O2-  O524  1  0.95906428  0.58908420  0.96495423  1
  O2-  O525  1  0.92295882  0.83425465  0.31074776  1
  O2-  O526  1  0.90883934  0.82298704  0.63969881  1
  O2-  O527  1  0.91759059  0.85544908  0.97967506  1
  O2-  O528  1  0.08490862  0.17561196  0.01713384  1
  O2-  O529  1  0.08190182  0.16668028  0.36329442  1
  O2-  O530  1  0.09475879  0.17946619  0.68713448  1
  O2-  O531  1  0.07814936  0.41501325  0.02890583  1
  O2-  O532  1  0.05766727  0.41073928  0.32545810  1
  O2-  O533  1  0.07234339  0.41866340  0.70863224  1
  O2-  O534  1  0.10761672  0.67838645  0.02159509  1
  O2-  O535  1  0.07861110  0.66145396  0.35477733  1
  O2-  O536  1  0.08318014  0.66479158  0.68517912  1
  O2-  O537  1  0.08760416  0.94026487  0.00261348  1
  O2-  O538  1  0.08780764  0.91663185  0.35512082  1
  O2-  O539  1  0.08057629  0.91324517  0.66668323  1
  O2-  O540  1  0.35608660  0.17558470  0.01451768  1
  O2-  O541  1  0.33387034  0.17218649  0.36441269  1
  O2-  O542  1  0.34061000  0.17048669  0.68673515  1
  O2-  O543  1  0.31786902  0.41702594  0.02290228  1
  O2-  O544  1  0.34631754  0.40942214  0.35322525  1
  O2-  O545  1  0.33575040  0.41989398  0.69230177  1
  O2-  O546  1  0.33521170  0.66860334  0.03779840  1
  O2-  O547  1  0.33446549  0.66201068  0.36034351  1
  O2-  O548  1  0.33095859  0.66764806  0.68566365  1
  O2-  O549  1  0.32905072  0.92289509  0.00118432  1
  O2-  O550  1  0.31178436  0.86239571  0.36800218  1
  O2-  O551  1  0.33458792  0.92234342  0.68973555  1
  O2-  O552  1  0.58475809  0.16079644  0.03035034  1
  O2-  O553  1  0.53659099  0.09449994  0.38296741  1
  O2-  O554  1  0.59330562  0.16431289  0.69141589  1
  O2-  O555  1  0.59891430  0.37859711  -0.00794630  1
  O2-  O556  1  0.59918636  0.45771448  0.36978520  1
  O2-  O557  1  0.58201750  0.41934029  0.68686993  1
  O2-  O558  1  0.56700224  0.67003435  0.02315996  1
  O2-  O559  1  0.54917689  0.64392731  0.38230424  1
  O2-  O560  1  0.58646714  0.67036360  0.68740121  1
  O2-  O561  1  0.61354499  0.89917346  0.05223486  1
  O2-  O562  1  0.60388863  0.92104088  0.35334608  1
  O2-  O563  1  0.56953331  0.88526818  0.69494299  1
  O2-  O564  1  0.82653572  0.16995173  0.00990269  1
  O2-  O565  1  0.83216120  0.16919011  0.35408904  1
  O2-  O566  1  0.84912147  0.17247850  0.66915152  1
  O2-  O567  1  0.86810021  0.43894698  0.02044186  1
  O2-  O568  1  0.80362448  0.40628700  0.34331322  1
  O2-  O569  1  0.83910675  0.41692610  0.67995283  1
  O2-  O570  1  0.90385188  0.69339133  0.01539919  1
  O2-  O571  1  0.85740244  0.68470874  0.35295184  1
  O2-  O572  1  0.83236279  0.66134559  0.68593688  1
  O2-  O573  1  0.83030113  0.92030280  0.02703882  1
  O2-  O574  1  0.84306058  0.92464542  0.34379720  1
  O2-  O575  1  0.83046607  0.91996950  0.66519275  1
