# generated using pymatgen
data_H2O
_symmetry_space_group_name_H-M   'P 1'
_cell_length_a   18.00181609
_cell_length_b   18.00650460
_cell_length_c   22.02129181
_cell_angle_alpha   90.00766890
_cell_angle_beta   89.97922000
_cell_angle_gamma   120.00976667
_symmetry_Int_Tables_number   1
_chemical_formula_structural   H2O
_chemical_formula_sum   'H384 O192'
_cell_volume   6181.25103341
_cell_formula_units_Z   192
loop_
 _symmetry_equiv_pos_site_id
 _symmetry_equiv_pos_as_xyz
  1  'x, y, z'
loop_
 _atom_type_symbol
 _atom_type_oxidation_number
  H+  1.0
  O2-  -2.0
loop_
 _atom_site_type_symbol
 _atom_site_label
 _atom_site_symmetry_multiplicity
 _atom_site_fract_x
 _atom_site_fract_y
 _atom_site_fract_z
 _atom_site_occupancy
  H+  H0  1  0.29365364  0.27649810  0.75100908  1
  H+  H1  1  0.86431398  0.22610650  0.34643333  1
  H+  H2  1  0.10342170  0.22373584  1.01360318  1
  H+  H3  1  0.38477711  0.10686772  0.65240049  1
  H+  H4  1  0.07185878  0.90388065  0.10418884  1
  H+  H5  1  0.25294451  0.12689771  0.34055187  1
  H+  H6  1  0.75098885  0.96537260  0.21422430  1
  H+  H7  1  0.30624606  0.45351378  0.83059038  1
  H+  H8  1  0.89516601  0.05078022  0.50960292  1
  H+  H9  1  0.50718236  0.38247068  0.49183411  1
  H+  H10  1  0.09463919  0.28945357  0.17106701  1
  H+  H11  1  1.01577294  0.29762142  0.45860816  1
  H+  H12  1  0.14997070  0.59600804  0.14624869  1
  H+  H13  1  0.85832433  0.50392677  0.31858955  1
  H+  H14  1  0.45209345  0.09241147  -0.04154786  1
  H+  H15  1  0.61106291  0.88193892  0.49473670  1
  H+  H16  1  0.39058082  0.24335233  0.67765161  1
  H+  H17  1  1.01313358  0.62938665  0.98419165  1
  H+  H18  1  0.54094301  0.38198724  0.82914026  1
  H+  H19  1  0.85122281  0.22587844  0.50204663  1
  H+  H20  1  0.88209835  0.76635392  0.17375433  1
  H+  H21  1  0.78163640  0.89307876  0.16509570  1
  H+  H22  1  0.38244505  0.76820101  0.65584944  1
  H+  H23  1  0.10535248  -0.00310289  0.67845811  1
  H+  H24  1  0.02351092  0.38930687  0.34021753  1
  H+  H25  1  0.10623070  0.00442104  0.17258860  1
  H+  H26  1  0.18740025  0.37085352  0.17401324  1
  H+  H27  1  0.83602938  0.91771457  0.76536344  1
  H+  H28  1  0.85566776  0.46383312  0.66211358  1
  H+  H29  1  0.86849661  0.62350480  0.80951512  1
  H+  H30  1  0.45631849  0.72553337  0.38268552  1
  H+  H31  1  0.41537511  0.33436084  0.60524867  1
  H+  H32  1  0.63396479  0.63183083  0.65161931  1
  H+  H33  1  0.42842375  0.19676028  0.71757063  1
  H+  H34  1  0.37343502  0.20409601  0.83827246  1
  H+  H35  1  0.90156594  0.27778509  0.18268212  1
  H+  H36  1  0.22060616  0.85533620  0.84162959  1
  H+  H37  1  0.64473626  0.03148862  0.14434632  1
  H+  H38  1  0.87450672  0.68904616  0.41899188  1
  H+  H39  1  0.51438691  0.87610181  0.66368827  1
  H+  H40  1  0.13132849  0.77910194  0.98717929  1
  H+  H41  1  0.09569694  0.39056418  0.84866381  1
  H+  H42  1  0.62749700  0.03006603  0.87776768  1
  H+  H43  1  0.88307601  0.02583905  0.65582924  1
  H+  H44  1  0.60379108  0.12781552  0.67308613  1
  H+  H45  1  0.71933478  0.62087831  0.65430117  1
  H+  H46  1  0.86131910  0.73274409  0.33392575  1
  H+  H47  1  0.55126912  0.38075926  0.16293807  1
  H+  H48  1  0.73376903  0.11159843  0.51067904  1
  H+  H49  1  0.34812415  0.09709325  0.32308315  1
  H+  H50  1  0.64699952  0.52721437  0.17465715  1
  H+  H51  1  0.76699399  0.88272864  0.67350614  1
  H+  H52  1  0.07310279  0.90946083  0.77166495  1
  H+  H53  1  0.37177453  0.27213849  0.50888569  1
  H+  H54  1  0.77839633  0.63789735  0.16797421  1
  H+  H55  1  0.86548660  0.86621049  0.16129054  1
  H+  H56  1  0.10665454  0.88544973  1.01354165  1
  H+  H57  1  0.77593567  0.89281137  0.32974462  1
  H+  H58  1  0.74673134  0.84596674  0.98989122  1
  H+  H59  1  0.52099985  0.67834896  0.82541693  1
  H+  H60  1  0.52364011  0.62685777  0.16112890  1
  H+  H61  1  0.35905629  0.76293719  -0.00145832  1
  H+  H62  1  0.39972173  0.33062507  0.82840488  1
  H+  H63  1  0.32336800  0.44403022  0.85957969  1
  H+  H64  1  0.88204694  0.76981166  0.99752605  1
  H+  H65  1  0.90069027  0.61508222  0.16947047  1
  H+  H66  1  0.13603171  0.52375476  0.33565631  1
  H+  H67  1  0.86209544  0.97673585  0.30936285  1
  H+  H68  1  0.26981868  0.63130259  0.66166000  1
  H+  H69  1  0.20176225  0.37725632  0.86108957  1
  H+  H70  1  0.86579010  0.38712540  0.00569155  1
  H+  H71  1  0.92670416  0.54041711  0.48932365  1
  H+  H72  1  0.63881784  0.80914600  0.83595117  1
  H+  H73  1  0.65327527  0.12376013  0.13457704  1
  H+  H74  1  0.26209844  0.38220330  0.33777362  1
  H+  H75  1  0.86955839  0.10715908  0.84425538  1
  H+  H76  1  0.63741312  0.61161993  0.17085156  1
  H+  H77  1  0.35976069  0.01761493  0.50109494  1
  H+  H78  1  0.79164502  0.84505177  0.50725228  1
  H+  H79  1  0.40437661  0.56248696  0.84483093  1
  H+  H80  1  0.40027062  0.78496375  0.33614848  1
  H+  H81  1  0.68107761  0.85528171  0.89769347  1
  H+  H82  1  0.95866076  0.35820301  0.50743841  1
  H+  H83  1  0.10373639  0.87943043  0.16677237  1
  H+  H84  1  0.11600385  0.22178282  0.64944118  1
  H+  H85  1  0.63380677  0.86990204  0.32976197  1
  H+  H86  1  0.67592030  0.15091229  1.00685838  1
  H+  H87  1  0.12682573  0.86294551  0.33140651  1
  H+  H88  1  0.63281274  0.23553471  0.15499866  1
  H+  H89  1  0.36685470  0.48926799  0.65969525  1
  H+  H90  1  0.07269060  0.67078833  -0.07318213  1
  H+  H91  1  0.79111652  0.69231392  0.77870566  1
  H+  H92  1  0.08563774  0.13855011  0.16899544  1
  H+  H93  1  0.63665223  0.86051720  0.65403455  1
  H+  H94  1  0.35746033  0.72883452  0.49665475  1
  H+  H95  1  0.86385032  0.59633852  0.31716985  1
  H+  H96  1  0.81071612  0.45791403  0.48769679  1
  H+  H97  1  0.13017467  0.36679684  0.32980628  1
  H+  H98  1  0.73338662  0.35904921  0.83169710  1
  H+  H99  1  0.47162643  0.10634848  0.65038931  1
  H+  H100  1  0.08845253  0.23411336  0.86276175  1
  H+  H101  1  0.41969965  0.83777829  0.24617637  1
  H+  H102  1  0.46694498  0.34276638  0.34952204  1
  H+  H103  1  0.13581110  0.78892277  0.67103702  1
  H+  H104  1  0.88529447  0.86284425  0.84305207  1
  H+  H105  1  0.22495314  0.36995933  0.65433850  1
  H+  H106  1  0.13229828  0.28181969  0.50900123  1
  H+  H107  1  0.37344895  0.52830915  0.18178840  1
  H+  H108  1  0.59576688  0.41324675  0.09762581  1
  H+  H109  1  0.38187296  0.52836172  0.50431535  1
  H+  H110  1  0.13598056  0.36707297  0.00825021  1
  H+  H111  1  0.25899221  0.88225112  1.01194200  1
  H+  H112  1  0.72912074  0.77391623  0.94319939  1
  H+  H113  1  0.87378867  0.36811394  0.50917219  1
  H+  H114  1  0.15125212  0.11371978  0.64363679  1
  H+  H115  1  0.33616554  0.61093324  1.02918595  1
  H+  H116  1  0.01483768  0.87322820  0.83090333  1
  H+  H117  1  0.91518275  0.57527849  0.22894946  1
  H+  H118  1  0.35497158  0.73143057  0.82266789  1
  H+  H119  1  0.62167408  0.43557220  0.34887581  1
  H+  H120  1  0.11621119  0.02614407  0.49538355  1
  H+  H121  1  0.35876658  0.85161634  0.99683600  1
  H+  H122  1  0.36370502  0.47874043  0.00203972  1
  H+  H123  1  0.61333311  0.22648748  0.82736703  1
  H+  H124  1  0.88430130  0.60258496  0.65041470  1
  H+  H125  1  1.01596336  0.64294463  0.81355900  1
  H+  H126  1  0.35657971  0.63874324  0.49643222  1
  H+  H127  1  0.11576739  0.63768438  0.34965907  1
  H+  H128  1  0.62469443  0.32715669  0.33104605  1
  H+  H129  1  0.76464544  0.36404448  0.33896964  1
  H+  H130  1  0.85956529  0.63443512  1.02118388  1
  H+  H131  1  0.85813226  0.12983219  0.67364600  1
  H+  H132  1  0.62644511  0.60399075  0.50099238  1
  H+  H133  1  0.37206515  0.28916798  0.13350350  1
  H+  H134  1  0.61219809  0.13947514  0.83160149  1
  H+  H135  1  0.22279419  0.36012473  0.99920033  1
  H+  H136  1  0.69305431  0.09207440  1.04946861  1
  H+  H137  1  0.63538401  0.24543550  0.49853251  1
  H+  H138  1  0.09546148  0.36392992  0.49431699  1
  H+  H139  1  0.90921801  0.83521027  0.60246635  1
  H+  H140  1  0.23143781  0.09235896  0.84639379  1
  H+  H141  1  0.22449479  0.86278949  0.17898713  1
  H+  H142  1  0.38429925  -0.01624516  0.68349243  1
  H+  H143  1  0.33985938  0.13214361  0.49749814  1
  H+  H144  1  0.73690664  0.92313984  0.52537288  1
  H+  H145  1  0.87936422  0.26450470  0.66101843  1
  H+  H146  1  0.47057590  0.37920685  0.66743665  1
  H+  H147  1  0.63153068  0.47071921  0.83489541  1
  H+  H148  1  0.13151523  0.36202949  0.65683691  1
  H+  H149  1  0.64036556  0.58681703  0.85493508  1
  H+  H150  1  0.22196671  0.61048411  0.34249636  1
  H+  H151  1  0.65622472  0.29271918  0.98814026  1
  H+  H152  1  0.56989564  0.15662455  -0.01751009  1
  H+  H153  1  0.34842763  0.88111601  0.83794813  1
  H+  H154  1  0.90324157  0.29079430  0.99187146  1
  H+  H155  1  0.13957877  0.00556386  0.84594176  1
  H+  H156  1  0.85572402  0.37399931  0.66593066  1
  H+  H157  1  0.26726460  0.63985866  0.81887478  1
  H+  H158  1  0.35684361  0.11260013  0.01556130  1
  H+  H159  1  0.78784031  0.14254368  0.15055629  1
  H+  H160  1  0.02781368  0.13308532  0.64947692  1
  H+  H161  1  0.48591853  0.87275673  0.18630592  1
  H+  H162  1  0.87729197  0.36316157  0.82650617  1
  H+  H163  1  0.74786485  0.36390395  0.17767155  1
  H+  H164  1  0.15957579  0.88171162  0.65522579  1
  H+  H165  1  0.86493985  0.14087277  0.50590509  1
  H+  H166  1  0.87810003  0.27287089  0.83101441  1
  H+  H167  1  0.62921867  0.01668709  0.65874060  1
  H+  H168  1  0.37870965  0.86301570  0.50774989  1
  H+  H169  1  0.60216296  0.19937002  0.33316489  1
  H+  H170  1  0.87724132  1.02131579  0.84185003  1
  H+  H171  1  0.35338574  0.46887981  0.33909561  1
  H+  H172  1  0.86934476  0.72495381  0.66642045  1
  H+  H173  1  0.64491377  0.09985626  0.32472662  1
  H+  H174  1  0.86688793  0.97629883  0.01272834  1
  H+  H175  1  0.61015702  0.65048532  0.33666203  1
  H+  H176  1  0.46922241  0.86575216  0.84369220  1
  H+  H177  1  0.62708627  0.98426203  0.34311675  1
  H+  H178  1  0.16385492  0.57887190  0.58986585  1
  H+  H179  1  0.46963062  0.86393546  0.50579933  1
  H+  H180  1  0.74300393  0.61810374  0.84362673  1
  H+  H181  1  0.20336381  0.11540064  0.49308869  1
  H+  H182  1  0.61761721  0.12268325  0.49276890  1
  H+  H183  1  0.34770223  0.21336591  0.34632286  1
  H+  H184  1  0.97191641  0.85845551  0.17224169  1
  H+  H185  1  0.88963446  0.36185148  0.33026912  1
  H+  H186  1  0.38717386  0.65281095  0.17383509  1
  H+  H187  1  0.66176514  0.36765559  0.17297218  1
  H+  H188  1  0.99846642  0.38417598  0.83281630  1
  H+  H189  1  0.12843928  0.85139110  0.83975744  1
  H+  H190  1  0.85754561  0.47581209  0.80285663  1
  H+  H191  1  0.60297711  0.61876247  0.00708348  1
  H+  H192  1  0.03319606  0.63234125  0.16523386  1
  H+  H193  1  0.57173992  0.15736953  0.73117237  1
  H+  H194  1  0.63758409  0.51528984  1.00141808  1
  H+  H195  1  0.50667151  0.11989565  0.89538054  1
  H+  H196  1  0.96945410  0.87410770  0.66199467  1
  H+  H197  1  0.60962286  0.68339423  0.81117159  1
  H+  H198  1  0.40766577  0.82673931  0.90230433  1
  H+  H199  1  0.34505665  0.96128966  0.34807077  1
  H+  H200  1  0.09770510  0.48241082  0.82942193  1
  H+  H201  1  0.11214041  0.47114265  0.66184916  1
  H+  H202  1  0.53034600  0.90070859  0.34387579  1
  H+  H203  1  0.39431284  0.76105908  0.17882772  1
  H+  H204  1  0.49097200  0.63028494  0.64747264  1
  H+  H205  1  0.92134033  0.62637457  0.49265991  1
  H+  H206  1  0.39697032  0.36852164  0.98041464  1
  H+  H207  1  0.90178795  0.36555215  0.18019184  1
  H+  H208  1  0.59118155  0.50524045  0.68236989  1
  H+  H209  1  0.37838773  0.86198795  0.33273106  1
  H+  H210  1  0.11245155  0.47146342  0.99666373  1
  H+  H211  1  0.33371425  0.17910957  0.20514795  1
  H+  H212  1  0.97530959  0.10596518  0.99723415  1
  H+  H213  1  0.61444209  0.71055693  0.00339113  1
  H+  H214  1  0.09735197  0.22079025  0.31985261  1
  H+  H215  1  0.11303793  0.72448990  0.34936820  1
  H+  H216  1  0.38506672  0.63889574  0.84087037  1
  H+  H217  1  1.01191444  0.13350405  0.30185253  1
  H+  H218  1  0.60948836  0.98642941  0.79430611  1
  H+  H219  1  0.39101472  0.61315774  0.33091922  1
  H+  H220  1  0.23238875  0.10797243  0.66510797  1
  H+  H221  1  0.41154818  0.83184390  0.59860384  1
  H+  H222  1  0.77217552  0.64606122  0.34317606  1
  H+  H223  1  0.14507690  0.78351011  0.52024148  1
  H+  H224  1  0.76962637  0.63241827  0.01587380  1
  H+  H225  1  0.38387122  0.27458732  -0.01423346  1
  H+  H226  1  0.88192488  0.51138086  0.01293343  1
  H+  H227  1  0.10030852  0.97375111  0.34329483  1
  H+  H228  1  0.01221897  0.88434612  0.34043933  1
  H+  H229  1  0.61916423  0.38646401  0.00292044  1
  H+  H230  1  0.68580934  0.93559857  0.00204413  1
  H+  H231  1  0.42123507  0.12549484  0.17335602  1
  H+  H232  1  0.36426317  0.88683209  0.16863046  1
  H+  H233  1  0.17927538  0.09900869  0.15938595  1
  H+  H234  1  0.01556568  -0.12017404  1.01519520  1
  H+  H235  1  0.35729946  0.02336697  1.02165726  1
  H+  H236  1  0.24961307  0.14426115  -0.00808812  1
  H+  H237  1  0.46911972  0.61329943  0.99979602  1
  H+  H238  1  0.87906005  0.77162163  0.49918743  1
  H+  H239  1  0.51414769  0.11031215  0.33742143  1
  H+  H240  1  0.87529093  0.76897654  0.84318199  1
  H+  H241  1  -0.00314731  0.13243025  0.16877334  1
  H+  H242  1  0.89038211  0.15141755  0.01308421  1
  H+  H243  1  0.37577043  0.36304657  0.51070677  1
  H+  H244  1  0.64749532  0.90865555  0.98245074  1
  H+  H245  1  0.21792141  0.60934232  0.98499580  1
  H+  H246  1  0.90568841  0.32628992  0.60203234  1
  H+  H247  1  0.13964917  0.77107477  0.17810928  1
  H+  H248  1  0.38114600  0.35093643  0.34773560  1
  H+  H249  1  0.96549556  0.74994308  0.44825465  1
  H+  H250  1  0.25735967  0.87330716  0.34478826  1
  H+  H251  1  0.43802298  0.38530374  0.11765764  1
  H+  H252  1  0.60591695  0.72374034  0.49305132  1
  H+  H253  1  0.00409822  0.88523240  0.49440377  1
  H+  H254  1  0.87693558  0.47848803  0.16132517  1
  H+  H255  1  0.47387079  0.60712991  0.32636100  1
  H+  H256  1  0.14934708  0.07118789  0.26840985  1
  H+  H257  1  0.26276738  0.88268119  0.50590165  1
  H+  H258  1  0.88110836  0.86816267  0.32234816  1
  H+  H259  1  0.11870307  0.10884486  0.32094732  1
  H+  H260  1  0.76719541  0.12813653  0.67430451  1
  H+  H261  1  0.71662810  0.34943670  0.64918157  1
  H+  H262  1  0.12724448  0.61158566  0.83011618  1
  H+  H263  1  0.62148982  0.91339351  0.82747002  1
  H+  H264  1  0.06321884  0.64630598  0.50364185  1
  H+  H265  1  0.13017107  0.60903241  0.97330904  1
  H+  H266  1  0.76908417  0.13937988  0.82978819  1
  H+  H267  1  0.56997327  0.97934735  0.01830887  1
  H+  H268  1  0.29892617  0.39850517  0.22689968  1
  H+  H269  1  0.13285108  0.86459952  0.51816285  1
  H+  H270  1  0.48511418  0.88745299  0.01728771  1
  H+  H271  1  0.25506079  0.59485592  0.07244804  1
  H+  H272  1  0.62213959  0.54255878  0.32385608  1
  H+  H273  1  0.87749867  1.10929129  0.19272177  1
  H+  H274  1  0.41723788  0.58785704  0.23844136  1
  H+  H275  1  0.52564288  0.37968415  1.00569055  1
  H+  H276  1  0.39585000  0.62259253  0.65124108  1
  H+  H277  1  0.13925493  0.60694497  0.65222790  1
  H+  H278  1  0.74264807  0.35477679  0.49206368  1
  H+  H279  1  0.77876608  0.89744240  0.82511932  1
  H+  H280  1  1.02267728  0.38360077  0.66653275  1
  H+  H281  1  0.63180757  0.76450024  0.65223588  1
  H+  H282  1  0.64655766  0.36193332  0.83508694  1
  H+  H283  1  0.57573434  0.67277716  0.39757822  1
  H+  H284  1  0.73738780  0.10854078  0.33323299  1
  H+  H285  1  0.37052145  -0.02259516  0.16346232  1
  H+  H286  1  0.15751461  0.83206547  0.27234550  1
  H+  H287  1  0.62777177  0.26312632  0.65213135  1
  H+  H288  1  0.42724258  0.08281653  0.23309326  1
  H+  H289  1  0.91285082  0.83350582  0.26687551  1
  H+  H290  1  0.10338685  0.14608249  0.74899847  1
  H+  H291  1  0.08784512  0.66969987  0.10605249  1
  H+  H292  1  1.01139053  0.15990903  0.50596987  1
  H+  H293  1  0.09341513  0.15209726  0.48785037  1
  H+  H294  1  0.89256302  0.58203764  0.86186822  1
  H+  H295  1  0.31399635  0.90033613  0.44223299  1
  H+  H296  1  0.20446430  0.61578166  0.50017298  1
  H+  H297  1  0.33195753  0.92060353  0.78022368  1
  H+  H298  1  0.35204010  0.68565641  0.11549314  1
  H+  H299  1  0.29047007  0.35342439  0.77995942  1
  H+  H300  1  0.82320539  0.16077073  0.76646338  1
  H+  H301  1  0.91231041  0.82889850  0.93682195  1
  H+  H302  1  0.08334174  0.66149019  0.72339537  1
  H+  H303  1  0.07604934  0.40639039  0.40104210  1
  H+  H304  1  1.00860112  0.14149091  0.86238957  1
  H+  H305  1  0.16576989  0.84221956  0.93241519  1
  H+  H306  1  0.16326267  0.58256817  0.88713757  1
  H+  H307  1  0.39458966  0.34645306  0.23277260  1
  H+  H308  1  0.14673437  0.34212960  0.26487936  1
  H+  H309  1  0.10919183  0.72826699  0.82671433  1
  H+  H310  1  0.87201758  0.88808771  0.01093893  1
  H+  H311  1  0.16641386  0.34391587  0.56803304  1
  H+  H312  1  0.59916445  0.18705277  0.05390830  1
  H+  H313  1  0.10707915  0.43617208  0.15958075  1
  H+  H314  1  1.02166172  0.62569561  0.66629037  1
  H+  H315  1  0.83149084  0.16926584  0.40677293  1
  H+  H316  1  0.10984209  0.67885466  0.44031310  1
  H+  H317  1  0.57111166  0.90172937  0.72359742  1
  H+  H318  1  0.83294126  0.90454942  0.09597009  1
  H+  H319  1  0.10010594  0.14835321  0.78333116  1
  H+  H320  1  0.31072502  0.01648696  0.27945450  1
  H+  H321  1  0.67596196  0.57556538  0.94279401  1
  H+  H322  1  0.57509786  0.39234731  0.41266526  1
  H+  H323  1  0.82654184  0.40705690  0.74940478  1
  H+  H324  1  0.68306930  0.34988565  0.92806250  1
  H+  H325  1  0.39709024  0.07833166  0.55749934  1
  H+  H326  1  0.30089377  0.19774677  0.05234476  1
  H+  H327  1  0.62081411  0.90600096  0.16626893  1
  H+  H328  1  0.31866370  0.90450934  0.07227026  1
  H+  H329  1  0.82043861  0.40531567  0.39837469  1
  H+  H330  1  0.54529932  0.14477384  0.15604576  1
  H+  H331  1  0.64376369  0.01982777  0.51012551  1
  H+  H332  1  0.58536348  0.91597117  0.43571342  1
  H+  H333  1  0.40929159  0.59941817  0.94326305  1
  H+  H334  1  0.62995608  0.77905885  0.32294655  1
  H+  H335  1  0.91830785  0.57363670  0.59347525  1
  H+  H336  1  0.57876764  0.65266941  0.10035285  1
  H+  H337  1  0.84258258  0.41389938  0.10488919  1
  H+  H338  1  0.92491572  0.33483500  0.27191952  1
  H+  H339  1  0.31847240  0.13853330  0.14035393  1
  H+  H340  1  0.90323536  0.33453006  0.92838467  1
  H+  H341  1  0.02890742  0.98605589  0.71891061  1
  H+  H342  1  0.26558375  0.39326516  0.49755610  1
  H+  H343  1  0.51287834  0.63898473  0.49141183  1
  H+  H344  1  0.68737807  0.84851927  0.57443580  1
  H+  H345  1  0.90699922  0.07411922  0.94140752  1
  H+  H346  1  0.33343422  0.15224750  0.77898990  1
  H+  H347  1  0.68627984  0.10075962  0.92334498  1
  H+  H348  1  0.84163677  0.66111452  0.72209792  1
  H+  H349  1  0.88241475  0.56512522  0.95703442  1
  H+  H350  1  0.41828681  0.59125522  0.56282809  1
  H+  H351  1  0.58051447  0.68048689  0.71172724  1
  H+  H352  1  0.32719798  0.66391734  0.72249530  1
  H+  H353  1  0.90870972  0.09021824  0.59509798  1
  H+  H354  1  0.58376130  0.14507746  0.43223289  1
  H+  H355  1  0.83390531  0.66896109  0.10714213  1
  H+  H356  1  0.66265381  0.31046243  0.55805566  1
  H+  H357  1  0.43337233  0.32815711  0.89600907  1
  H+  H358  1  0.38836122  0.89833550  0.68733605  1
  H+  H359  1  0.68921133  0.87355812  0.24084277  1
  H+  H360  1  0.14950702  0.34411352  0.92387257  1
  H+  H361  1  0.36112918  0.39990922  0.67122659  1
  H+  H362  1  0.66331386  0.31319053  0.26805997  1
  H+  H363  1  0.31541499  0.16467464  0.43834002  1
  H+  H364  1  0.56451542  0.91503373  0.11027742  1
  H+  H365  1  0.59896020  0.47045658  0.49006907  1
  H+  H366  1  0.34502160  0.40648184  0.05169853  1
  H+  H367  1  0.85492980  0.88131158  0.67348805  1
  H+  H368  1  0.86864528  0.18107064  0.10870765  1
  H+  H369  1  0.81113114  0.16548355  0.01825354  1
  H+  H370  1  0.57181445  0.44268152  0.73951824  1
  H+  H371  1  0.06437309  0.90728844  0.43572030  1
  H+  H372  1  0.44042465  0.38130461  0.22968117  1
  H+  H373  1  0.16397204  0.08312487  0.92656078  1
  H+  H374  1  0.32463975  0.38332106  0.16170267  1
  H+  H375  1  0.36476919  0.68583446  0.41432071  1
  H+  H376  1  0.77882323  0.39317393  0.00814031  1
  H+  H377  1  0.66513013  0.59428412  0.26350112  1
  H+  H378  1  0.06727631  0.16305138  0.07158174  1
  H+  H379  1  0.32346978  0.41713213  0.43766038  1
  H+  H380  1  0.13062896  0.11638638  -0.01494999  1
  H+  H381  1  0.66495681  0.08030139  0.60211923  1
  H+  H382  1  0.65626508  0.57833291  0.56048343  1
  H+  H383  1  0.09127397  0.43729448  0.06423126  1
  O2-  O384  1  0.05595507  0.16744669  0.15195635  1
  O2-  O385  1  0.06967221  0.19146149  0.48580936  1
  O2-  O386  1  0.07159556  0.17358796  0.86629823  1
  O2-  O387  1  0.09558702  0.47541772  0.13416712  1
  O2-  O388  1  0.04392961  0.35789235  0.47062627  1
  O2-  O389  1  0.06509169  0.41675678  0.82435678  1
  O2-  O390  1  0.09449752  0.66364448  0.14937241  1
  O2-  O391  1  0.11942157  0.68715215  0.48629929  1
  O2-  O392  1  0.07876511  0.66587439  0.81279721  1
  O2-  O393  1  0.07041190  0.90608166  0.15133002  1
  O2-  O394  1  0.06210089  0.90032050  0.48087287  1
  O2-  O395  1  0.07482415  0.89880108  0.81567443  1
  O2-  O396  1  0.35932584  0.18739363  0.16472317  1
  O2-  O397  1  0.31532916  0.16955898  0.48300258  1
  O2-  O398  1  0.33556945  0.14513846  0.82310951  1
  O2-  O399  1  0.30103115  0.41492531  0.18429484  1
  O2-  O400  1  0.32727635  0.42255954  0.48251812  1
  O2-  O401  1  0.32156417  0.32246977  0.78091330  1
  O2-  O402  1  0.36508187  0.69317162  0.15991866  1
  O2-  O403  1  0.32984108  0.67047486  0.47736904  1
  O2-  O404  1  0.32898837  0.67100773  0.80707866  1
  O2-  O405  1  0.33322678  0.91567241  0.15337790  1
  O2-  O406  1  0.32197049  0.90725954  0.48676093  1
  O2-  O407  1  0.31553861  0.90825169  0.82407561  1
  O2-  O408  1  0.60012372  0.17855444  0.13393561  1
  O2-  O409  1  0.58666369  0.15139675  0.47673494  1
  O2-  O410  1  0.57879221  0.16462641  0.81551960  1
  O2-  O411  1  0.60544652  0.41998055  0.14328218  1
  O2-  O412  1  0.56581964  0.41043078  0.47377563  1
  O2-  O413  1  0.60116730  0.41521077  0.81274735  1
  O2-  O414  1  0.58273144  0.65191071  0.14531884  1
  O2-  O415  1  0.57308852  0.66787284  0.47343300  1
  O2-  O416  1  0.57822965  0.71373064  0.80501970  1
  O2-  O417  1  0.57650793  0.92124301  0.15524726  1
  O2-  O418  1  0.58059204  0.91181512  0.48138386  1
  O2-  O419  1  0.57867454  0.92823698  0.81044791  1
  O2-  O420  1  0.85186968  0.17143251  0.15265488  1
  O2-  O421  1  0.82753646  0.16651772  0.48665742  1
  O2-  O422  1  0.82751580  0.16787308  0.81228135  1
  O2-  O423  1  0.84502641  0.41620634  0.15017064  1
  O2-  O424  1  0.81080991  0.40605419  0.47504544  1
  O2-  O425  1  0.83138380  0.41345098  0.79583545  1
  O2-  O426  1  0.83877803  0.66872140  0.15251044  1
  O2-  O427  1  0.90687302  0.70628709  0.45906702  1
  O2-  O428  1  0.81582170  0.67403725  0.81074611  1
  O2-  O429  1  0.83306875  0.89775839  0.14251395  1
  O2-  O430  1  0.84407416  0.85755085  0.48388618  1
  O2-  O431  1  0.83879203  0.91938988  0.81122778  1
  O2-  O432  1  0.13132948  0.06623830  0.18657252  1
  O2-  O433  1  0.13988955  0.08807898  0.49072664  1
  O2-  O434  1  0.17039794  0.06594141  0.85938794  1
  O2-  O435  1  0.12674857  0.34991204  0.18467734  1
  O2-  O436  1  0.16727386  0.34541635  0.52199897  1
  O2-  O437  1  0.14421596  0.35356014  0.87799850  1
  O2-  O438  1  0.17547687  0.55914080  0.13721235  1
  O2-  O439  1  0.14740301  0.57900394  0.51844095  1
  O2-  O440  1  0.15787210  0.57949588  0.84169606  1
  O2-  O441  1  0.16358343  0.83129695  0.19260610  1
  O2-  O442  1  0.16832679  0.84282757  0.53638285  1
  O2-  O443  1  0.15824094  0.82190001  0.85768458  1
  O2-  O444  1  0.44094841  0.08705032  0.18884634  1
  O2-  O445  1  0.38255581  0.07792571  0.51398528  1
  O2-  O446  1  0.50188532  0.09519593  0.93587356  1
  O2-  O447  1  0.37689929  0.34314373  0.11796211  1
  O2-  O448  1  0.40552942  0.33225032  0.52524189  1
  O2-  O449  1  0.44056865  0.31990187  0.85198386  1
  O2-  O450  1  0.41504125  0.58900933  0.19232829  1
  O2-  O451  1  0.41410817  0.59045472  0.51643312  1
  O2-  O452  1  0.42499216  0.62035128  0.86052222  1
  O2-  O453  1  0.42294506  0.83713479  0.19937146  1
  O2-  O454  1  0.40982648  0.83203359  0.52125380  1
  O2-  O455  1  0.40954288  0.82777364  0.85709568  1
  O2-  O456  1  0.68319839  0.09007963  0.12804498  1
  O2-  O457  1  0.67215388  0.07868556  0.52708821  1
  O2-  O458  1  0.67247875  0.09032996  0.87949507  1
  O2-  O459  1  0.68497422  0.33247342  0.18983570  1
  O2-  O460  1  0.66726576  0.30803149  0.51245596  1
  O2-  O461  1  0.67619734  0.33128426  0.85223500  1
  O2-  O462  1  0.67199765  0.58669280  0.19006139  1
  O2-  O463  1  0.65512472  0.57291260  0.51532307  1
  O2-  O464  1  0.68367264  0.57296927  0.86796719  1
  O2-  O465  1  0.71114682  0.90635362  0.20104852  1
  O2-  O466  1  0.70098378  0.86088943  0.52791032  1
  O2-  O467  1  0.67644354  0.86735614  0.85438889  1
  O2-  O468  1  0.89587670  0.06640632  0.20462282  1
  O2-  O469  1  0.91206837  0.10413426  0.53090592  1
  O2-  O470  1  0.89418112  0.07516189  0.86485063  1
  O2-  O471  1  0.93142530  0.33724209  0.19853263  1
  O2-  O472  1  0.90169006  0.33730724  0.52710175  1
  O2-  O473  1  0.90711541  0.33411528  0.84569170  1
  O2-  O474  1  0.93078516  0.58482267  0.18382675  1
  O2-  O475  1  0.93789602  0.58876170  0.51536339  1
  O2-  O476  1  0.90031226  0.59085852  0.81829378  1
  O2-  O477  1  0.90967107  0.82918911  0.18610302  1
  O2-  O478  1  0.88721883  0.82381495  0.52180916  1
  O2-  O479  1  0.91039246  0.82900621  0.86060857  1
  O2-  O480  1  0.15133098  0.07651538  0.31315432  1
  O2-  O481  1  0.17814765  0.07628818  0.64361504  1
  O2-  O482  1  0.16835063  0.09406087  0.97266475  1
  O2-  O483  1  0.15903566  0.33799816  0.30832029  1
  O2-  O484  1  0.16422234  0.33373298  0.64054970  1
  O2-  O485  1  0.16038463  0.33064503  0.99053502  1
  O2-  O486  1  0.16727961  0.58486438  0.32141206  1
  O2-  O487  1  0.17089847  0.57874226  0.63632414  1
  O2-  O488  1  0.16292748  0.57928378  0.96300795  1
  O2-  O489  1  0.15986777  0.83477135  0.31749180  1
  O2-  O490  1  0.14849984  0.84357273  0.68960227  1
  O2-  O491  1  0.16348129  0.84119445  0.97845405  1
  O2-  O492  1  0.36409947  0.05624026  0.30004348  1
  O2-  O493  1  0.41108496  0.07451500  0.63548351  1
  O2-  O494  1  0.39362002  0.08640972  1.01990241  1
  O2-  O495  1  0.40561971  0.31392478  0.33776785  1
  O2-  O496  1  0.41394817  0.33214297  0.65055433  1
  O2-  O497  1  0.42675738  0.33559475  0.97265482  1
  O2-  O498  1  0.41264045  0.57736842  0.31168500  1
  O2-  O499  1  0.42705989  0.59490157  0.63395845  1
  O2-  O500  1  0.40726038  0.58645883  0.98731216  1
  O2-  O501  1  0.41705649  0.84125092  0.31609381  1
  O2-  O502  1  0.41648675  0.83018814  0.64378632  1
  O2-  O503  1  0.38897445  0.82048575  0.98097799  1
  O2-  O504  1  0.67778148  0.07089292  0.31517137  1
  O2-  O505  1  0.66088976  0.07878679  0.64792010  1
  O2-  O506  1  0.70061088  0.11114983  1.00595217  1
  O2-  O507  1  0.65695559  0.30091934  0.31251627  1
  O2-  O508  1  0.65797934  0.31974408  0.63183446  1
  O2-  O509  1  0.68246973  0.35438034  0.97367923  1
  O2-  O510  1  0.66259726  0.59991122  0.30931180  1
  O2-  O511  1  0.65956096  0.59339090  0.64010495  1
  O2-  O512  1  0.66818362  0.57687739  0.98811192  1
  O2-  O513  1  0.66229455  0.84007490  0.30982781  1
  O2-  O514  1  0.67064456  0.83360523  0.64088810  1
  O2-  O515  1  0.70028064  0.80055813  0.96365937  1
  O2-  O516  1  0.90506731  0.07257811  0.26892287  1
  O2-  O517  1  0.91096521  0.08667707  0.64358299  1
  O2-  O518  1  0.91225661  0.07362284  0.98670434  1
  O2-  O519  1  0.92393004  0.33473769  0.31803054  1
  O2-  O520  1  0.90830570  0.32561631  0.64759559  1
  O2-  O521  1  0.90883947  0.34334155  0.97273197  1
  O2-  O522  1  0.87610786  0.55669966  0.29420811  1
  O2-  O523  1  0.91250139  0.56922589  0.63845764  1
  O2-  O524  1  0.90721183  0.57474405  0.99750391  1
  O2-  O525  1  0.91098717  0.83360047  0.31187109  1
  O2-  O526  1  0.91073548  0.83040569  0.64700571  1
  O2-  O527  1  0.91171114  0.83019094  0.98260152  1
  O2-  O528  1  0.07294653  0.16252709  0.02664138  1
  O2-  O529  1  0.06708697  0.15769270  0.32401490  1
  O2-  O530  1  0.09067343  0.15891585  0.65507307  1
  O2-  O531  1  0.09383954  0.41975455  0.02164199  1
  O2-  O532  1  0.08435066  0.41889659  0.35652925  1
  O2-  O533  1  0.08349134  0.41213475  0.67924562  1
  O2-  O534  1  0.07481752  0.66284855  -0.02929255  1
  O2-  O535  1  0.08960461  0.66865314  0.37001540  1
  O2-  O536  1  0.08299180  0.65767360  0.67883059  1
  O2-  O537  1  0.07189244  0.90525029  0.03593575  1
  O2-  O538  1  0.07205185  0.91268166  0.35742928  1
  O2-  O539  1  0.05183335  0.95191528  0.70137411  1
  O2-  O540  1  0.31390150  0.18251397  0.01310623  1
  O2-  O541  1  0.31379091  0.14908174  0.35402338  1
  O2-  O542  1  0.37522149  0.18587472  0.69819959  1
  O2-  O543  1  0.33636988  0.41525751  0.00905656  1
  O2-  O544  1  0.32198120  0.40892948  0.35418106  1
  O2-  O545  1  0.33023261  0.43151782  0.67823832  1
  O2-  O546  1  0.30367646  0.63727153  0.04704441  1
  O2-  O547  1  0.39580599  0.69965295  0.37192378  1
  O2-  O548  1  0.33089819  0.66457924  0.67773145  1
  O2-  O549  1  0.31944979  0.90730154  0.02723368  1
  O2-  O550  1  0.31827393  0.90062820  0.36062336  1
  O2-  O551  1  0.38375715  0.94136503  0.71238448  1
  O2-  O552  1  0.61880653  0.19712027  0.01094485  1
  O2-  O553  1  0.57429580  0.13886069  0.34906517  1
  O2-  O554  1  0.57147658  0.15700031  0.68603911  1
  O2-  O555  1  0.58501152  0.41016164  0.02352525  1
  O2-  O556  1  0.57830223  0.38047557  0.36488499  1
  O2-  O557  1  0.54483212  0.45701052  0.70601886  1
  O2-  O558  1  0.57459600  0.65224257  0.01948572  1
  O2-  O559  1  0.57383961  0.67405643  0.35177311  1
  O2-  O560  1  0.58524804  0.67994429  0.66766392  1
  O2-  O561  1  0.53564185  0.92745345  0.04205252  1
  O2-  O562  1  0.58877363  0.92182923  0.36005358  1
  O2-  O563  1  0.57614728  0.90733668  0.67919758  1
  O2-  O564  1  0.87291988  0.19220093  0.02967443  1
  O2-  O565  1  0.83048145  0.16644046  0.36167142  1
  O2-  O566  1  0.82670717  0.15892288  0.69120558  1
  O2-  O567  1  0.83741337  0.41778401  0.02684807  1
  O2-  O568  1  0.82419132  0.40396121  0.35286382  1
  O2-  O569  1  0.82354624  0.40420065  0.67883614  1
  O2-  O570  1  0.83045153  0.66771364  0.03072398  1
  O2-  O571  1  0.83426406  0.67258286  0.35105450  1
  O2-  O572  1  0.83815552  0.66259673  0.67768361  1
  O2-  O573  1  0.83791645  0.91428048  0.02748311  1
  O2-  O574  1  0.83889852  0.92346132  0.33451431  1
  O2-  O575  1  0.82759383  0.91350580  0.68974894  1
