# generated using pymatgen
data_H2O
_symmetry_space_group_name_H-M   'P 1'
_cell_length_a   17.98366452
_cell_length_b   17.98089451
_cell_length_c   21.99782106
_cell_angle_alpha   90.04348299
_cell_angle_beta   89.99673748
_cell_angle_gamma   119.96540369
_symmetry_Int_Tables_number   1
_chemical_formula_structural   H2O
_chemical_formula_sum   'H384 O192'
_cell_volume   6162.41473445
_cell_formula_units_Z   192
loop_
 _symmetry_equiv_pos_site_id
 _symmetry_equiv_pos_as_xyz
  1  'x, y, z'
loop_
 _atom_type_symbol
 _atom_type_oxidation_number
  H+  1.0
  O2-  -2.0
loop_
 _atom_site_type_symbol
 _atom_site_label
 _atom_site_symmetry_multiplicity
 _atom_site_fract_x
 _atom_site_fract_y
 _atom_site_fract_z
 _atom_site_occupancy
  H+  H0  1  0.77918482  0.89580749  0.67472372  1
  H+  H1  1  0.12257018  0.73409732  0.15200130  1
  H+  H2  1  0.15681174  0.29531333  0.51293373  1
  H+  H3  1  0.62349851  0.51000619  0.35112037  1
  H+  H4  1  0.17355181  -0.00065818  0.17620594  1
  H+  H5  1  0.19345034  0.53416436  0.29810000  1
  H+  H6  1  0.88353534  0.15574966  0.49081000  1
  H+  H7  1  0.35779882  0.21953782  0.83805849  1
  H+  H8  1  0.63107584  0.77433515  -0.00654543  1
  H+  H9  1  0.38117768  0.61261422  0.83668041  1
  H+  H10  1  0.11491388  0.64647417  0.49038934  1
  H+  H11  1  0.35921706  0.61868141  0.67350504  1
  H+  H12  1  0.43068234  0.08552911  0.26862980  1
  H+  H13  1  0.40538869  0.27960261  0.33911176  1
  H+  H14  1  0.02612514  0.15685158  0.15134335  1
  H+  H15  1  0.53540417  0.63957843  0.66522983  1
  H+  H16  1  0.72735189  0.35534746  0.84171108  1
  H+  H17  1  0.13418211  0.40704704  0.50213798  1
  H+  H18  1  0.92269754  0.33449676  0.23385193  1
  H+  H19  1  0.48464018  0.62076200  0.32653916  1
  H+  H20  1  0.58447827  0.43519886  0.45709286  1
  H+  H21  1  0.78256360  0.38865081  0.15920174  1
  H+  H22  1  0.27219392  0.63798462  0.82895069  1
  H+  H23  1  0.64281990  0.98896307  0.00601129  1
  H+  H24  1  0.75442631  0.13429434  0.82414469  1
  H+  H25  1  0.86400409  0.27852648  1.00305169  1
  H+  H26  1  0.26367849  0.62997526  0.00349501  1
  H+  H27  1  0.10934253  0.19089131  0.33581803  1
  H+  H28  1  0.35522845  0.97331868  0.83112113  1
  H+  H29  1  0.62234328  0.00089609  0.50899758  1
  H+  H30  1  0.26788092  0.73194873  0.61927460  1
  H+  H31  1  0.37280498  -0.01836685  0.33879238  1
  H+  H32  1  0.21731219  0.86227951  0.83445710  1
  H+  H33  1  0.02465876  0.64347365  0.49510780  1
  H+  H34  1  0.63541134  0.11266590  0.83885019  1
  H+  H35  1  0.10864046  0.97548704  0.82291094  1
  H+  H36  1  0.88891189  0.10715722  0.31764928  1
  H+  H37  1  0.62153027  0.12722101  0.15802881  1
  H+  H38  1  0.77265972  0.64759070  0.99786207  1
  H+  H39  1  0.77199472  0.63200344  0.66792314  1
  H+  H40  1  0.09003756  0.47775212  0.35420607  1
  H+  H41  1  0.58442087  0.66482487  0.76104086  1
  H+  H42  1  0.37048920  0.22848072  0.50089582  1
  H+  H43  1  0.83474809  0.92196112  0.08518725  1
  H+  H44  1  -0.02569110  0.86872101  0.66069541  1
  H+  H45  1  0.97135115  0.61543024  0.82596880  1
  H+  H46  1  0.90851723  0.82195493  0.43342305  1
  H+  H47  1  0.28318760  0.88774183  0.15777242  1
  H+  H48  1  0.12137843  0.22905994  0.67485643  1
  H+  H49  1  0.10818609  0.73595837  0.00076549  1
  H+  H50  1  0.39016313  0.87307431  0.66018443  1
  H+  H51  1  0.24428344  0.62832784  0.32216781  1
  H+  H52  1  0.77735126  0.13024165  0.33484144  1
  H+  H53  1  0.23357919  0.12096397  0.66545817  1
  H+  H54  1  0.91592188  0.08590359  0.21859203  1
  H+  H55  1  0.39478487  0.11769372  0.50872673  1
  H+  H56  1  0.25460504  0.64863678  0.65026633  1
  H+  H57  1  0.51917640  0.88874805  0.83160077  1
  H+  H58  1  0.12815724  0.86362533  0.82881795  1
  H+  H59  1  0.64410981  0.01889789  0.32483086  1
  H+  H60  1  0.88445328  0.85815251  0.83400528  1
  H+  H61  1  0.33014821  0.92103431  0.06427773  1
  H+  H62  1  0.91290303  0.29592277  0.50510241  1
  H+  H63  1  0.88642022  0.60860332  0.52480181  1
  H+  H64  1  0.34274207  0.69202965  0.39196832  1
  H+  H65  1  0.88076091  0.26791560  0.32439179  1
  H+  H66  1  0.86236101  0.47540662  0.82562004  1
  H+  H67  1  -0.02854594  0.09458085  0.31505000  1
  H+  H68  1  0.61499563  0.40871689  0.37860406  1
  H+  H69  1  0.14807715  0.85088859  0.93112458  1
  H+  H70  1  0.11275716  0.73840844  0.81014088  1
  H+  H71  1  0.38730352  0.36802625  0.00197253  1
  H+  H72  1  0.87083183  0.85215391  0.34513844  1
  H+  H73  1  0.14195644  0.53375806  0.16668753  1
  H+  H74  1  0.29296290  0.41910388  0.02067062  1
  H+  H75  1  0.98075051  0.61638888  0.68156749  1
  H+  H76  1  0.61774825  0.46872194  0.16488247  1
  H+  H77  1  0.52062956  0.63400215  0.81881038  1
  H+  H78  1  0.38282480  0.50020478  0.00886326  1
  H+  H79  1  0.15049124  0.86326659  0.16536617  1
  H+  H80  1  0.63181985  0.11027192  0.66642559  1
  H+  H81  1  0.40491787  0.11450110  0.17821558  1
  H+  H82  1  0.89142097  0.02907924  0.66335507  1
  H+  H83  1  0.18781579  0.19214393  0.23711386  1
  H+  H84  1  0.73148132  0.62345620  0.83697061  1
  H+  H85  1  0.88096876  0.03454996  0.50490643  1
  H+  H86  1  0.84852447  0.47804246  -0.01132274  1
  H+  H87  1  0.37730063  0.48568040  0.16872040  1
  H+  H88  1  0.28722969  0.39808325  0.67647247  1
  H+  H89  1  0.62053110  0.38458820  0.66497811  1
  H+  H90  1  0.23656056  0.41188101  0.31094475  1
  H+  H91  1  0.07501274  0.91591737  0.42026067  1
  H+  H92  1  0.86605944  0.47529093  0.67765272  1
  H+  H93  1  0.10325974  0.90235695  0.07723024  1
  H+  H94  1  0.73096774  0.36273258  0.50591145  1
  H+  H95  1  0.37339542  0.14272277  1.01832642  1
  H+  H96  1  0.64967407  0.50746232  0.55104939  1
  H+  H97  1  0.41930090  0.84518401  0.56730950  1
  H+  H98  1  -0.00891964  0.84512496  -0.02523961  1
  H+  H99  1  0.97801609  0.62207281  0.15921897  1
  H+  H100  1  0.53237287  0.13120263  0.33982123  1
  H+  H101  1  0.02489498  0.28593980  0.72484590  1
  H+  H102  1  0.53965386  0.88834997  0.15331236  1
  H+  H103  1  0.39787755  0.36923643  0.18665229  1
  H+  H104  1  0.50571380  0.27792393  0.78797912  1
  H+  H105  1  0.63927581  0.85847780  0.31450845  1
  H+  H106  1  0.37393298  0.38526066  0.50479630  1
  H+  H107  1  0.36993927  0.76964331  -0.01239954  1
  H+  H108  1  0.63854774  0.88131536  -0.00234757  1
  H+  H109  1  0.12636641  0.65630290  0.71752482  1
  H+  H110  1  0.84673829  0.71088125  0.35326259  1
  H+  H111  1  0.72927604  0.78487030  0.54271601  1
  H+  H112  1  0.12580705  0.36059264  0.85603222  1
  H+  H113  1  0.73284100  0.13556008  0.00334067  1
  H+  H114  1  0.49193399  0.30721553  0.77428662  1
  H+  H115  1  0.78162656  0.89718394  0.49303353  1
  H+  H116  1  0.65081992  0.49654217  0.81487501  1
  H+  H117  1  0.61414937  0.38824431  0.50575775  1
  H+  H118  1  0.76712566  0.87788415  0.82600428  1
  H+  H119  1  0.59420018  0.36424764  1.00665924  1
  H+  H120  1  0.14413796  0.77772029  0.31895030  1
  H+  H121  1  0.73898010  0.64391183  0.53090783  1
  H+  H122  1  0.24970609  0.37869894  0.51408539  1
  H+  H123  1  0.10918586  0.22439392  0.83542270  1
  H+  H124  1  0.09808662  0.17593936  0.99680703  1
  H+  H125  1  0.36677251  0.74575610  0.48363853  1
  H+  H126  1  0.40872763  0.53542540  0.65443828  1
  H+  H127  1  0.11385664  0.49515778  0.65159078  1
  H+  H128  1  0.38360924  0.61831277  0.98946239  1
  H+  H129  1  0.88686530  0.11893059  0.16063260  1
  H+  H130  1  0.52352734  0.13636722  0.67521973  1
  H+  H131  1  0.61144697  0.88366015  0.67913398  1
  H+  H132  1  0.35370482  0.17234925  0.11244098  1
  H+  H133  1  0.84775042  0.76948588  0.25756529  1
  H+  H134  1  0.63092332  0.26435869  -0.01182042  1
  H+  H135  1  0.86003246  0.64284707  0.99736046  1
  H+  H136  1  0.16476142  0.30694071  1.01702329  1
  H+  H137  1  0.62937140  0.77111664  0.83628440  1
  H+  H138  1  0.64913546  0.02110713  0.17256862  1
  H+  H139  1  0.02831945  0.14229828  0.67528429  1
  H+  H140  1  0.27738405  0.65961506  0.47731990  1
  H+  H141  1  0.11955173  0.64443733  0.14948365  1
  H+  H142  1  0.98329387  0.36692677  0.17446297  1
  H+  H143  1  0.37281040  0.97700269  0.15912152  1
  H+  H144  1  0.88463248  0.01463661  0.83971868  1
  H+  H145  1  0.64388078  0.77538559  0.66663944  1
  H+  H146  1  0.37478557  0.65699566  0.33570866  1
  H+  H147  1  0.63968739  0.25673961  0.32545680  1
  H+  H148  1  0.15797860  0.58529486  0.89703551  1
  H+  H149  1  0.37211498  0.73014033  0.15357450  1
  H+  H150  1  0.64916001  0.40475932  0.81592649  1
  H+  H151  1  0.46309784  0.35760800  0.85637219  1
  H+  H152  1  0.88062970  0.52187741  0.34091886  1
  H+  H153  1  0.59158617  0.86985892  0.49208629  1
  H+  H154  1  0.72459348  0.60289391  0.16659799  1
  H+  H155  1  0.89273763  0.77291127  0.98213849  1
  H+  H156  1  0.39845733  0.78776532  0.31724636  1
  H+  H157  1  0.72899902  0.35906900  0.65888719  1
  H+  H158  1  0.37924163  0.22755740  0.17507274  1
  H+  H159  1  0.97365541  0.61856360  0.98600365  1
  H+  H160  1  0.61246694  0.42946486  0.72629699  1
  H+  H161  1  0.35055237  0.36984315  0.84050817  1
  H+  H162  1  0.48293068  0.36460772  0.51973797  1
  H+  H163  1  0.11774125  0.98200256  0.67035358  1
  H+  H164  1  0.39291475  0.53625780  0.33135125  1
  H+  H165  1  -0.03159794  0.61440285  0.33793531  1
  H+  H166  1  0.41193087  0.53123372  0.50902412  1
  H+  H167  1  -0.02707258  0.10116061  0.83940355  1
  H+  H168  1  0.63786957  0.50515729  0.65199876  1
  H+  H169  1  0.34102560  0.40977990  0.44405060  1
  H+  H170  1  0.52355769  0.64564518  0.00575437  1
  H+  H171  1  0.14590832  0.02055645  0.51977650  1
  H+  H172  1  0.26568627  0.90033525  0.00798545  1
  H+  H173  1  0.38640029  1.02686489  -0.00642224  1
  H+  H174  1  0.64291798  0.62720459  0.98959958  1
  H+  H175  1  0.26322613  0.08413763  0.18819042  1
  H+  H176  1  0.96766233  0.35503645  0.84126599  1
  H+  H177  1  0.86734978  0.73073648  0.82356289  1
  H+  H178  1  0.10656706  0.47573575  0.83164178  1
  H+  H179  1  0.47320485  0.10862517  0.84218337  1
  H+  H180  1  0.73578086  0.11399008  0.17292845  1
  H+  H181  1  0.75361229  0.61543132  0.34505460  1
  H+  H182  1  0.88496496  0.78177255  0.66203152  1
  H+  H183  1  0.61264635  0.22331600  0.82966613  1
  H+  H184  1  0.71524083  0.35950023  0.98355632  1
  H+  H185  1  0.89273822  0.53200744  0.16687831  1
  H+  H186  1  0.61441389  0.22392772  0.67402521  1
  H+  H187  1  0.86295193  0.63879077  0.67536132  1
  H+  H188  1  0.62327918  0.63697073  0.66313170  1
  H+  H189  1  0.39966020  0.36909758  0.66828232  1
  H+  H190  1  0.38984571  0.11673410  0.66339690  1
  H+  H191  1  0.15484545  0.15173867  0.22185880  1
  H+  H192  1  0.26598172  0.32177537  0.37207604  1
  H+  H193  1  0.86433047  0.22733717  0.16077197  1
  H+  H194  1  0.36140096  0.36749153  0.34919576  1
  H+  H195  1  0.27476550  0.89091120  0.49793215  1
  H+  H196  1  -0.02499304  0.10838809  0.50486457  1
  H+  H197  1  0.03932558  0.88814729  0.13092550  1
  H+  H198  1  0.88665328  0.87179093  0.48127427  1
  H+  H199  1  0.77152712  0.38309149  0.34368698  1
  H+  H200  1  0.76611016  0.88243539  0.33304190  1
  H+  H201  1  0.14312021  0.29078253  0.16524370  1
  H+  H202  1  0.13310503  0.61540542  0.83527401  1
  H+  H203  1  0.71675149  0.06558671  0.52748434  1
  H+  H204  1  0.16942094  0.82715775  0.57818663  1
  H+  H205  1  0.61940056  0.13215572  0.49444040  1
  H+  H206  1  0.10860031  0.63609198  0.34005204  1
  H+  H207  1  0.36308853  0.98084875  0.49519844  1
  H+  H208  1  0.38110883  0.86050293  0.83707083  1
  H+  H209  1  0.99780065  0.38579454  0.51400623  1
  H+  H210  1  0.88541969  0.01165347  -0.00179138  1
  H+  H211  1  0.48954403  0.10619611  0.17427578  1
  H+  H212  1  0.13863879  0.77412742  0.51503055  1
  H+  H213  1  0.00395604  0.38825577  0.00646692  1
  H+  H214  1  0.08733441  0.37957771  0.00872032  1
  H+  H215  1  0.01826191  0.88551316  0.82034008  1
  H+  H216  1  0.02043940  0.87898096  0.50502149  1
  H+  H217  1  0.14347569  0.12007885  0.66515218  1
  H+  H218  1  0.87929725  0.26801953  0.65804554  1
  H+  H219  1  0.52880815  0.88905225  0.33086049  1
  H+  H220  1  0.61907799  0.21542837  0.15495443  1
  H+  H221  1  0.08566741  0.67608035  0.05920432  1
  H+  H222  1  0.12957523  -0.03945106  0.98350468  1
  H+  H223  1  0.37783760  0.52215751  0.83753201  1
  H+  H224  1  0.11037089  0.87952595  0.51526995  1
  H+  H225  1  0.48890028  0.37591479  0.34955913  1
  H+  H226  1  0.14151219  0.35329457  0.67028022  1
  H+  H227  1  0.64327435  0.27173035  0.50350247  1
  H+  H228  1  0.86613840  0.38620509  0.67389394  1
  H+  H229  1  0.80496633  0.17395240  0.48480141  1
  H+  H230  1  0.62976905  0.88776361  0.15786187  1
  H+  H231  1  0.96190546  0.85408720  0.35051664  1
  H+  H232  1  0.28825643  0.13057846  0.34433861  1
  H+  H233  1  -0.03259584  0.35761966  0.33261027  1
  H+  H234  1  0.63905855  0.61654223  0.83350754  1
  H+  H235  1  0.39231345  0.61888344  0.17157089  1
  H+  H236  1  0.86196792  0.63083827  0.14878600  1
  H+  H237  1  0.11322847  0.40808786  0.33777307  1
  H+  H238  1  0.38815015  0.87505673  0.50680171  1
  H+  H239  1  0.85799775  -0.02104452  0.14954798  1
  H+  H240  1  0.10147113  0.09484005  0.48895567  1
  H+  H241  1  0.27387696  0.89158553  0.67831883  1
  H+  H242  1  0.40275624  0.11858263  0.32866465  1
  H+  H243  1  0.10825976  0.96417618  0.35649185  1
  H+  H244  1  0.85350184  0.23349944  0.82346301  1
  H+  H245  1  0.36933267  0.85813753  0.98705199  1
  H+  H246  1  0.83195152  0.41303856  0.76788048  1
  H+  H247  1  0.80789040  0.73179482  0.49539983  1
  H+  H248  1  0.36334869  -0.01869011  0.67610022  1
  H+  H249  1  0.82791439  0.72830206  0.19159752  1
  H+  H250  1  0.48192215  0.11356418  0.50780956  1
  H+  H251  1  0.63711910  0.35099266  0.17004187  1
  H+  H252  1  0.37009150  0.22978766  0.68106319  1
  H+  H253  1  0.15034149  0.08568854  0.32050993  1
  H+  H254  1  0.65261080  0.77390673  0.50678448  1
  H+  H255  1  0.92248476  0.83114458  0.89177674  1
  H+  H256  1  0.87437452  0.39684105  0.49791915  1
  H+  H257  1  0.63001602  0.86103175  0.83964432  1
  H+  H258  1  0.88974587  0.52322991  0.51562476  1
  H+  H259  1  0.63758974  1.02335997  0.83805872  1
  H+  H260  1  0.47962884  0.11150616  0.99259951  1
  H+  H261  1  0.22463177  0.10781371  0.83934024  1
  H+  H262  1  0.88850581  0.90624615  0.01436553  1
  H+  H263  1  0.36202142  0.13253083  0.83379416  1
  H+  H264  1  0.61496463  0.63568679  0.33596504  1
  H+  H265  1  0.85650897  0.97118681  0.33104975  1
  H+  H266  1  0.52997768  0.64024520  0.16022443  1
  H+  H267  1  0.40016052  0.87704608  0.31943177  1
  H+  H268  1  0.18162460  0.39197079  0.25016392  1
  H+  H269  1  0.85714938  0.61948019  0.34709945  1
  H+  H270  1  0.47374036  0.86402349  0.65970970  1
  H+  H271  1  0.39875528  0.86658079  0.16208641  1
  H+  H272  1  0.12279107  0.52272203  -0.01020906  1
  H+  H273  1  0.61063242  -0.02773706  0.67982388  1
  H+  H274  1  0.36173299  0.72700125  0.82722993  1
  H+  H275  1  0.65129699  0.78227464  0.16709216  1
  H+  H276  1  0.12094892  0.40195943  0.15262650  1
  H+  H277  1  -0.08513221  0.07631877  -0.06205260  1
  H+  H278  1  0.52767231  0.38396168  0.17171237  1
  H+  H279  1  0.49949848  0.62045220  0.50425224  1
  H+  H280  1  0.61900746  0.72764232  0.32576978  1
  H+  H281  1  0.08684233  0.51629759  0.65136199  1
  H+  H282  1  0.85989895  0.38345552  0.34275847  1
  H+  H283  1  0.86835883  0.89488096  0.67358060  1
  H+  H284  1  0.13597534  0.86704151  0.66841568  1
  H+  H285  1  0.13767593  0.78083898  0.68295908  1
  H+  H286  1  0.64741555  0.67280072  0.47513886  1
  H+  H287  1  0.11779268  0.06503088  -0.00947598  1
  H+  H288  1  0.13659529  0.11112870  0.84080095  1
  H+  H289  1  0.41566328  0.08204210  0.90266097  1
  H+  H290  1  0.58175287  0.16320668  0.77052672  1
  H+  H291  1  0.91783054  0.59107252  0.92509889  1
  H+  H292  1  0.23724290  0.37580800  0.16911013  1
  H+  H293  1  0.17503174  0.59677585  0.22441555  1
  H+  H294  1  0.65888636  0.83121338  0.92992969  1
  H+  H295  1  0.47028393  0.35448868  1.00215002  1
  H+  H296  1  0.32261030  0.64025600  0.73295757  1
  H+  H297  1  0.07631761  0.40217557  0.77944463  1
  H+  H298  1  0.19055480  0.62401335  0.55655128  1
  H+  H299  1  0.33868124  0.91923161  0.39633184  1
  H+  H300  1  0.67633733  0.83561848  0.25396760  1
  H+  H301  1  0.41968088  0.33028846  0.57650653  1
  H+  H302  1  0.67494317  0.07959499  0.26543377  1
  H+  H303  1  0.90489510  0.32490286  0.93699481  1
  H+  H304  1  0.08398480  0.67187617  0.39832998  1
  H+  H305  1  0.32798721  0.66264253  0.06138388  1
  H+  H306  1  0.59232107  0.16082368  0.43355498  1
  H+  H307  1  0.44017283  0.59573412  0.59525600  1
  H+  H308  1  0.61393540  0.12725399  0.00183580  1
  H+  H309  1  0.28069364  0.64289618  0.15592768  1
  H+  H310  1  0.67356866  0.83441746  0.60874819  1
  H+  H311  1  0.13692469  0.30967020  0.94798943  1
  H+  H312  1  0.61713439  0.63686025  0.15794340  1
  H+  H313  1  0.08939113  0.17216676  0.77202775  1
  H+  H314  1  0.18357175  0.34436330  0.60799684  1
  H+  H315  1  0.15746291  0.05416934  0.92729678  1
  H+  H316  1  0.35307029  0.44159049  0.73134618  1
  H+  H317  1  0.58454741  0.67268283  0.06498809  1
  H+  H318  1  0.07318689  0.12279352  0.38986820  1
  H+  H319  1  0.17450728  0.09138355  0.57162549  1
  H+  H320  1  0.85069107  0.39032544  -0.00911411  1
  H+  H321  1  0.58289716  0.90943579  0.39233980  1
  H+  H322  1  0.42930153  0.34270328  0.24742987  1
  H+  H323  1  0.48750705  0.36577348  0.66656650  1
  H+  H324  1  0.58518872  0.15584268  0.06211866  1
  H+  H325  1  0.21336660  0.35813411  0.85989716  1
  H+  H326  1  0.07829150  0.42667049  0.09751945  1
  H+  H327  1  0.08302440  0.92201120  0.72940808  1
  H+  H328  1  0.01724847  0.02792447  0.45594426  1
  H+  H329  1  0.40706373  0.83010069  0.89766475  1
  H+  H330  1  0.74382705  0.87568251  0.16060101  1
  H+  H331  1  0.68262037  0.08862742  0.93767842  1
  H+  H332  1  0.33665494  0.16706615  0.73899259  1
  H+  H333  1  0.42214878  0.59300089  0.23338543  1
  H+  H334  1  0.65997989  0.32625761  0.89768726  1
  H+  H335  1  0.85904839  0.13357770  0.67367056  1
  H+  H336  1  0.15039029  0.54485056  0.50750767  1
  H+  H337  1  0.67033886  0.59477462  0.93097126  1
  H+  H338  1  0.00576341  0.09650284  0.00222492  1
  H+  H339  1  0.76708617  0.13104540  0.67186337  1
  H+  H340  1  0.50833461  0.88068559  0.49363872  1
  H+  H341  1  0.17747671  0.83447403  0.22773267  1
  H+  H342  1  0.09487726  0.42535170  0.44218826  1
  H+  H343  1  0.67082765  0.32748034  0.59835933  1
  H+  H344  1  0.67030382  0.31800502  0.22521091  1
  H+  H345  1  0.83042304  0.66881487  0.76502605  1
  H+  H346  1  0.41973073  0.08669798  0.60336382  1
  H+  H347  1  0.59323568  0.68218013  0.42165285  1
  H+  H348  1  0.40627664  0.32932088  0.91789467  1
  H+  H349  1  0.34618635  0.16682460  0.40403837  1
  H+  H350  1  0.32912078  0.91846449  0.76967065  1
  H+  H351  1  0.65458079  0.07226095  0.60757967  1
  H+  H352  1  0.87149847  0.39152497  0.16488209  1
  H+  H353  1  0.65852844  0.56047480  0.28258399  1
  H+  H354  1  0.00572639  0.34594558  0.68424105  1
  H+  H355  1  0.36476565  0.22626703  0.02127369  1
  H+  H356  1  0.62723993  0.33684404  0.31340124  1
  H+  H357  1  0.82838180  0.66477337  0.09160497  1
  H+  H358  1  0.83884761  0.42130041  0.43862217  1
  H+  H359  1  0.13083648  0.61616885  0.98870783  1
  H+  H360  1  0.82881544  0.91185195  0.76714886  1
  H+  H361  1  0.42893521  0.84073632  0.22239932  1
  H+  H362  1  0.93370676  0.58908315  0.61626985  1
  H+  H363  1  0.92408533  0.33631496  0.60312160  1
  H+  H364  1  0.41696292  0.58861615  0.93096499  1
  H+  H365  1  0.76492233  0.23210707  0.05205128  1
  H+  H366  1  0.08713926  0.16883049  0.09664224  1
  H+  H367  1  0.28146931  0.13917065  0.49909957  1
  H+  H368  1  0.28204750  0.34466095  0.78902715  1
  H+  H369  1  0.84552419  0.16826202  0.39037957  1
  H+  H370  1  0.82171432  0.16814570  0.76035437  1
  H+  H371  1  0.57068479  0.39466511  0.06887732  1
  H+  H372  1  0.19288038  0.04583282  0.27604752  1
  H+  H373  1  0.71183492  0.64992190  0.21776719  1
  H+  H374  1  0.92036215  0.09019744  0.60432082  1
  H+  H375  1  0.82769152  0.93121823  0.42741270  1
  H+  H376  1  0.23484239  0.86331685  0.31905457  1
  H+  H377  1  0.35558875  0.42894675  0.10956503  1
  H+  H378  1  0.88234095  0.61436780  0.83091334  1
  H+  H379  1  0.57838482  0.91523159  0.77219029  1
  H+  H380  1  0.62158624  0.12920715  0.33856109  1
  H+  H381  1  0.61224137  0.92578250  0.06652864  1
  H+  H382  1  0.88068893  0.36005441  0.83756079  1
  H+  H383  1  0.82056028  0.17981539  0.09828125  1
  O2-  O384  1  0.08642259  0.19343162  0.13663831  1
  O2-  O385  1  0.05157434  0.08964551  0.46367486  1
  O2-  O386  1  0.08876591  0.16686017  0.81708211  1
  O2-  O387  1  0.08689861  0.43049184  0.14284562  1
  O2-  O388  1  0.10046261  0.43354693  0.48718177  1
  O2-  O389  1  0.07700758  0.41219540  0.82391594  1
  O2-  O390  1  0.09047229  0.67514134  0.13345426  1
  O2-  O391  1  0.08279864  0.67643916  0.47700723  1
  O2-  O392  1  0.08440750  0.67491655  0.79532610  1
  O2-  O393  1  0.09981646  0.91056648  0.12206081  1
  O2-  O394  1  0.08375566  0.91432994  0.50189933  1
  O2-  O395  1  0.07969834  0.91616733  0.80508519  1
  O2-  O396  1  0.35621325  0.16878212  0.15867782  1
  O2-  O397  1  0.34189160  0.16867858  0.48404131  1
  O2-  O398  1  0.33078103  0.16229679  0.81826027  1
  O2-  O399  1  0.34900834  0.42428957  0.15443508  1
  O2-  O400  1  0.34432370  0.41663651  0.48893237  1
  O2-  O401  1  0.31415632  0.39028655  0.81852354  1
  O2-  O402  1  0.34079903  0.66845366  0.14013152  1
  O2-  O403  1  0.33675587  0.69066399  0.46104094  1
  O2-  O404  1  0.33253149  0.66488087  0.81454647  1
  O2-  O405  1  0.34294683  0.91838956  0.14041325  1
  O2-  O406  1  0.33307869  0.92069944  0.47926596  1
  O2-  O407  1  0.32324262  0.91327863  0.81505221  1
  O2-  O408  1  0.58841169  0.15401942  0.14121672  1
  O2-  O409  1  0.59148919  0.16369219  0.47914370  1
  O2-  O410  1  0.58169117  0.16135833  0.81590408  1
  O2-  O411  1  0.58587819  0.40832304  0.15242124  1
  O2-  O412  1  0.58701748  0.42478642  0.50265399  1
  O2-  O413  1  0.64656811  0.44834328  0.78965392  1
  O2-  O414  1  0.58845102  0.66819503  0.14205460  1
  O2-  O415  1  0.59917326  0.68366106  0.46707130  1
  O2-  O416  1  0.58188474  0.66632802  0.80637404  1
  O2-  O417  1  0.60124903  0.92077378  0.14143687  1
  O2-  O418  1  0.57064040  0.90707338  0.47713588  1
  O2-  O419  1  0.58077306  0.91919418  0.81769968  1
  O2-  O420  1  0.83079428  0.16874530  0.14290927  1
  O2-  O421  1  0.86326587  0.19350591  0.47079292  1
  O2-  O422  1  0.81801102  0.17146357  0.80632049  1
  O2-  O423  1  0.84465554  0.42553495  0.15220057  1
  O2-  O424  1  0.84030234  0.42380246  0.48423908  1
  O2-  O425  1  0.83392790  0.41349340  0.81332983  1
  O2-  O426  1  0.82276501  0.65419635  0.13637294  1
  O2-  O427  1  0.74637107  0.69096244  0.50321087  1
  O2-  O428  1  0.83385670  0.66839468  0.81032853  1
  O2-  O429  1  0.82416677  0.91920970  0.13487579  1
  O2-  O430  1  0.83733101  0.93748016  0.47286457  1
  O2-  O431  1  0.82793415  0.90502778  0.81219544  1
  O2-  O432  1  0.21546846  0.03261514  0.20795579  1
  O2-  O433  1  0.17393942  0.08417551  0.52616877  1
  O2-  O434  1  0.16321142  0.07572552  0.85249971  1
  O2-  O435  1  0.17573480  0.35241472  0.18020275  1
  O2-  O436  1  0.18776985  0.35339227  0.52939322  1
  O2-  O437  1  0.15218412  0.32664370  0.87188797  1
  O2-  O438  1  0.17541804  0.59585678  0.17932893  1
  O2-  O439  1  0.17590982  0.60782955  0.51255846  1
  O2-  O440  1  0.16002924  0.58312378  0.85125801  1
  O2-  O441  1  0.17987960  0.83314633  0.18138234  1
  O2-  O442  1  0.17040154  0.83307889  0.53307792  1
  O2-  O443  1  0.15449369  0.82945667  0.84518745  1
  O2-  O444  1  0.43043325  0.07872064  0.19240468  1
  O2-  O445  1  0.42244530  0.08476526  0.52423727  1
  O2-  O446  1  0.41253573  0.07996441  0.85665543  1
  O2-  O447  1  0.42796017  0.33905836  0.20213872  1
  O2-  O448  1  0.42013015  0.33116687  0.53091691  1
  O2-  O449  1  0.40364636  0.32789339  0.87023047  1
  O2-  O450  1  0.42323365  0.58973156  0.18822635  1
  O2-  O451  1  0.44253706  0.59074141  0.52430089  1
  O2-  O452  1  0.41255989  0.58190085  0.85079705  1
  O2-  O453  1  0.42858550  0.83565596  0.17714308  1
  O2-  O454  1  0.41965242  0.84519283  0.52093180  1
  O2-  O455  1  0.41267630  0.83130803  0.85134955  1
  O2-  O456  1  0.67514497  0.08062945  0.19000432  1
  O2-  O457  1  0.66016269  0.06038878  0.52709775  1
  O2-  O458  1  0.67125155  0.08587130  0.85019630  1
  O2-  O459  1  0.66749011  0.31883276  0.18033594  1
  O2-  O460  1  0.67029063  0.33111782  0.52038152  1
  O2-  O461  1  0.66504962  0.32626547  0.85168105  1
  O2-  O462  1  0.67628625  0.59449605  0.19498181  1
  O2-  O463  1  0.70071503  0.55339536  0.57424972  1
  O2-  O464  1  0.67020174  0.58841286  0.85035936  1
  O2-  O465  1  0.67999822  0.84208699  0.18233696  1
  O2-  O466  1  0.69919336  0.81729219  0.53437547  1
  O2-  O467  1  0.66053540  0.83035479  0.85356488  1
  O2-  O468  1  0.92153024  0.09217795  0.17393878  1
  O2-  O469  1  0.91792501  0.09474519  0.52111925  1
  O2-  O470  1  0.91284791  0.07547548  0.85283663  1
  O2-  O471  1  0.92281003  0.33242667  0.18875366  1
  O2-  O472  1  0.93557952  0.35226759  0.52597528  1
  O2-  O473  1  0.90491165  0.32244952  0.85053873  1
  O2-  O474  1  0.91884526  0.59486851  0.17511955  1
  O2-  O475  1  0.92143796  0.58258727  0.53404138  1
  O2-  O476  1  0.91357472  0.58342292  0.84415239  1
  O2-  O477  1  0.80422227  0.74679106  0.22568511  1
  O2-  O478  1  0.90622739  0.82896812  0.47786575  1
  O2-  O479  1  0.91944777  0.83080634  0.84533174  1
  O2-  O480  1  0.18666682  0.05893878  0.32024077  1
  O2-  O481  1  0.17419001  0.09148075  0.64790152  1
  O2-  O482  1  0.15218181  0.04013864  0.97172851  1
  O2-  O483  1  0.19359000  0.42187642  0.29084148  1
  O2-  O484  1  0.18341243  0.33787642  0.65314151  1
  O2-  O485  1  0.11782922  0.30049149  0.99142853  1
  O2-  O486  1  0.18546419  0.58369854  0.30623286  1
  O2-  O487  1  0.22310702  0.67260142  0.62614930  1
  O2-  O488  1  0.15801773  0.58267516  0.97370288  1
  O2-  O489  1  0.17695081  0.83510079  0.30038684  1
  O2-  O490  1  0.16643537  0.83394854  0.65867071  1
  O2-  O491  1  0.15437969  0.85382884  0.97640679  1
  O2-  O492  1  0.43217764  0.08693475  0.31450774  1
  O2-  O493  1  0.42004856  0.08602749  0.64886905  1
  O2-  O494  1  0.41902318  0.08702575  0.97775351  1
  O2-  O495  1  0.43030601  0.34141638  0.32796038  1
  O2-  O496  1  0.42516363  0.33400784  0.65447280  1
  O2-  O497  1  0.40804284  0.33028063  0.98571554  1
  O2-  O498  1  0.42230821  0.59336433  0.31329569  1
  O2-  O499  1  0.43911685  0.59641154  0.64184800  1
  O2-  O500  1  0.41844952  0.59116366  0.97632500  1
  O2-  O501  1  0.43133149  0.84862296  0.30202361  1
  O2-  O502  1  0.41696868  0.84276547  0.63993292  1
  O2-  O503  1  0.39737499  0.82769449  0.96942616  1
  O2-  O504  1  0.67504535  0.08055992  0.31153140  1
  O2-  O505  1  0.66222953  0.07884750  0.65230477  1
  O2-  O506  1  0.67570217  0.08467160  0.98210647  1
  O2-  O507  1  0.66860201  0.31734576  0.30813127  1
  O2-  O508  1  0.66846693  0.32709710  0.64390074  1
  O2-  O509  1  0.65202312  0.32301904  0.97147675  1
  O2-  O510  1  0.66174109  0.57208750  0.32659045  1
  O2-  O511  1  0.66719067  0.56658187  0.63188511  1
  O2-  O512  1  0.67574022  0.59963206  0.97584422  1
  O2-  O513  1  0.67088982  0.82932858  0.30055268  1
  O2-  O514  1  0.66958334  0.83691561  0.65370465  1
  O2-  O515  1  0.65963461  0.83406800  0.97549106  1
  O2-  O516  1  0.91139887  0.07057082  0.30087766  1
  O2-  O517  1  0.92110592  0.09125554  0.64948906  1
  O2-  O518  1  0.92019004  0.07676234  0.98279352  1
  O2-  O519  1  0.90921710  0.33062359  0.31421255  1
  O2-  O520  1  0.91777335  0.33018599  0.64848269  1
  O2-  O521  1  0.90796767  0.33644591  0.98093543  1
  O2-  O522  1  0.90517579  0.58381971  0.33083300  1
  O2-  O523  1  0.92443748  0.58584133  0.66099965  1
  O2-  O524  1  0.91390224  0.59020558  0.97020169  1
  O2-  O525  1  0.89786600  0.81491795  0.34576281  1
  O2-  O526  1  0.91312617  0.84226010  0.64847940  1
  O2-  O527  1  0.93232422  0.83032782  0.96293228  1
  O2-  O528  1  0.07077290  0.11911243  0.01551359  1
  O2-  O529  1  0.07685593  0.12970560  0.34452337  1
  O2-  O530  1  0.08801522  0.17005011  0.69205471  1
  O2-  O531  1  0.06661604  0.41954436  0.02010269  1
  O2-  O532  1  0.07295043  0.41791723  0.36391370  1
  O2-  O533  1  0.05236966  0.34458518  0.70930298  1
  O2-  O534  1  0.08340055  0.67539148  0.01313539  1
  O2-  O535  1  0.07922460  0.66694440  0.35292287  1
  O2-  O536  1  0.08638523  0.67708383  0.72805540  1
  O2-  O537  1  0.10188077  0.89038736  -0.00098172  1
  O2-  O538  1  0.05737156  0.91877042  0.37814477  1
  O2-  O539  1  0.08565431  0.92089161  0.68368027  1
  O2-  O540  1  0.34581861  0.17023692  0.04100130  1
  O2-  O541  1  0.34899876  0.16879478  0.35871313  1
  O2-  O542  1  0.33718812  0.16800663  0.69349131  1
  O2-  O543  1  0.35360313  0.44106351  0.02888001  1
  O2-  O544  1  0.31415678  0.37922364  0.36455148  1
  O2-  O545  1  0.34981041  0.42939425  0.68769012  1
  O2-  O546  1  0.32530849  0.66037261  0.01592852  1
  O2-  O547  1  0.34390746  0.68845935  0.34508919  1
  O2-  O548  1  0.30707356  0.61503145  0.69173798  1
  O2-  O549  1  0.32652064  0.92301960  0.01871867  1
  O2-  O550  1  0.34264668  0.91985840  0.35126690  1
  O2-  O551  1  0.33492073  0.92142296  0.69232985  1
  O2-  O552  1  0.58312252  0.15773160  0.01673101  1
  O2-  O553  1  0.59348522  0.16121554  0.35537332  1
  O2-  O554  1  0.58410023  0.16409864  0.69072910  1
  O2-  O555  1  0.56002097  0.38866190  0.02466427  1
  O2-  O556  1  0.57900716  0.43470746  0.38262684  1
  O2-  O557  1  0.59445105  0.41880353  0.68081404  1
  O2-  O558  1  0.58432164  0.67677452  0.01951154  1
  O2-  O559  1  0.58576558  0.66941604  0.34552269  1
  O2-  O560  1  0.59655189  0.66773826  0.68192467  1
  O2-  O561  1  0.61422409  0.92714242  0.02069240  1
  O2-  O562  1  0.58903240  0.91388566  0.34761583  1
  O2-  O563  1  0.57892764  0.91172455  0.69426828  1
  O2-  O564  1  0.79704356  0.20545323  0.03678529  1
  O2-  O565  1  0.84037968  0.16327407  0.34555271  1
  O2-  O566  1  0.82792229  0.16422383  0.68727323  1
  O2-  O567  1  0.81314802  0.41573798  -0.00333526  1
  O2-  O568  1  0.83070031  0.41372357  0.36057942  1
  O2-  O569  1  0.83294603  0.41331298  0.68899686  1
  O2-  O570  1  0.83453688  0.67708518  0.01317816  1
  O2-  O571  1  0.81727618  0.64700688  0.36131940  1
  O2-  O572  1  0.82965621  0.66726790  0.68633890  1
  O2-  O573  1  0.84827740  0.92637466  0.02343491  1
  O2-  O574  1  0.82479713  0.91447196  0.35272125  1
  O2-  O575  1  0.84006922  0.92850068  0.68858431  1
