# generated using pymatgen
data_H2O
_symmetry_space_group_name_H-M   'P 1'
_cell_length_a   17.96438418
_cell_length_b   17.96380339
_cell_length_c   21.99092853
_cell_angle_alpha   89.98826652
_cell_angle_beta   90.00579441
_cell_angle_gamma   120.03020736
_symmetry_Int_Tables_number   1
_chemical_formula_structural   H2O
_chemical_formula_sum   'H384 O192'
_cell_volume   6144.01888374
_cell_formula_units_Z   192
loop_
 _symmetry_equiv_pos_site_id
 _symmetry_equiv_pos_as_xyz
  1  'x, y, z'
loop_
 _atom_type_symbol
 _atom_type_oxidation_number
  H+  1.0
  O2-  -2.0
loop_
 _atom_site_type_symbol
 _atom_site_label
 _atom_site_symmetry_multiplicity
 _atom_site_fract_x
 _atom_site_fract_y
 _atom_site_fract_z
 _atom_site_occupancy
  H+  H0  1  0.48727123  0.11800588  0.98981317  1
  H+  H1  1  0.14325830  0.10665077  0.98931823  1
  H+  H2  1  0.13525530  0.85445086  0.99665632  1
  H+  H3  1  0.77175694  0.63983073  0.00400778  1
  H+  H4  1  0.87774681  0.09725210  0.65374822  1
  H+  H5  1  0.37098020  0.22645902  1.01042014  1
  H+  H6  1  0.91978310  0.83413675  0.26540193  1
  H+  H7  1  0.12848895  0.11338575  0.66120780  1
  H+  H8  1  0.59554964  0.50615493  0.35237845  1
  H+  H9  1  0.61260473  0.19200673  0.32548831  1
  H+  H10  1  0.34404599  0.73580444  0.17383891  1
  H+  H11  1  0.39040787  0.48277693  0.47667562  1
  H+  H12  1  0.64042434  0.87371940  0.50674919  1
  H+  H13  1  0.51545921  0.64204739  0.16533876  1
  H+  H14  1  0.37560210  0.10208415  0.64081534  1
  H+  H15  1  0.86952801  0.60563892  0.33483567  1
  H+  H16  1  0.10163144  0.47334367  0.67533068  1
  H+  H17  1  0.34731541  0.01357099  0.15375937  1
  H+  H18  1  0.38221523  0.87530589  -0.00137834  1
  H+  H19  1  0.13998794  0.82226394  0.49349510  1
  H+  H20  1  0.50548068  0.33371793  0.15790022  1
  H+  H21  1  0.09740635  0.81945461  0.62564826  1
  H+  H22  1  0.87095529  0.77234458  -0.00611427  1
  H+  H23  1  0.67687570  0.38100857  0.18394507  1
  H+  H24  1  0.40073400  0.24178354  0.33997009  1
  H+  H25  1  0.37711281  0.52126808  0.68969588  1
  H+  H26  1  0.35295098  0.63404498  1.02985099  1
  H+  H27  1  1.02230354  0.37660010  0.49752415  1
  H+  H28  1  0.95135202  0.59440001  0.33385414  1
  H+  H29  1  0.67859553  0.85946581  0.59980460  1
  H+  H30  1  0.18775896  0.66700968  0.00918641  1
  H+  H31  1  0.69508227  0.34086235  0.33210220  1
  H+  H32  1  1.01415294  0.12726260  0.66801697  1
  H+  H33  1  -0.01510844  0.86771493  0.66661515  1
  H+  H34  1  0.87201784  0.64279683  0.49494544  1
  H+  H35  1  0.36904745  0.38834552  0.30466480  1
  H+  H36  1  0.72192639  0.36261918  0.64835107  1
  H+  H37  1  0.62672631  0.12258062  0.17997784  1
  H+  H38  1  0.62978968  0.14140696  0.67959606  1
  H+  H39  1  0.38221430  0.33946999  0.19132323  1
  H+  H40  1  -0.02167106  0.33295631  0.33971507  1
  H+  H41  1  0.32211235  0.89703302  0.40498414  1
  H+  H42  1  0.76638094  0.14223400  0.17732496  1
  H+  H43  1  0.30062255  0.15167326  0.33241607  1
  H+  H44  1  0.88807233  0.51735180  0.50088919  1
  H+  H45  1  0.87148981  0.88908979  0.34262702  1
  H+  H46  1  0.37697669  0.25143589  0.65704169  1
  H+  H47  1  0.39897104  0.36950219  0.00101557  1
  H+  H48  1  0.36310881  0.87553666  0.81032835  1
  H+  H49  1  0.26220045  0.63742004  0.16925152  1
  H+  H50  1  0.02249217  0.89299613  0.15970201  1
  H+  H51  1  0.01959178  0.12842215  0.00030274  1
  H+  H52  1  0.63106726  0.91190540  0.67388241  1
  H+  H53  1  0.60717081  0.73263521  0.81927043  1
  H+  H54  1  0.87218373  0.61235930  0.84225542  1
  H+  H55  1  0.55411807  0.28250555  0.13782125  1
  H+  H56  1  0.37328629  0.66913127  0.09510837  1
  H+  H57  1  0.47543933  0.34578693  0.65951765  1
  H+  H58  1  0.07788102  0.41625521  0.89240399  1
  H+  H59  1  0.87264556  0.01906749  0.99769928  1
  H+  H60  1  0.85883650  0.37961723  0.49206916  1
  H+  H61  1  0.47226035  0.87397874  0.32625769  1
  H+  H62  1  0.59477171  0.30462250  0.31038613  1
  H+  H63  1  0.11092289  0.21167459  0.98917365  1
  H+  H64  1  0.18228588  0.44200345  0.37089283  1
  H+  H65  1  0.11185359  0.22189830  0.82118175  1
  H+  H66  1  0.65685674  0.04227556  0.84301478  1
  H+  H67  1  0.61455566  0.12097932  0.49304314  1
  H+  H68  1  0.27096136  0.86298244  0.49756808  1
  H+  H69  1  0.99419435  0.38589239  0.82013717  1
  H+  H70  1  0.63217926  0.62864069  0.17791408  1
  H+  H71  1  0.86761315  0.37957976  0.79839702  1
  H+  H72  1  0.40317750  0.26614895  0.50650695  1
  H+  H73  1  0.88745793  0.52482099  0.64580850  1
  H+  H74  1  0.37322371  0.01223461  0.64121181  1
  H+  H75  1  0.96738364  0.86445316  0.84780428  1
  H+  H76  1  0.32344696  0.35291328  0.30053918  1
  H+  H77  1  0.87153069  0.39242364  0.02191559  1
  H+  H78  1  0.73585091  0.87690508  0.66124014  1
  H+  H79  1  0.29594865  0.06492294  0.28281538  1
  H+  H80  1  0.87105326  0.14460340  0.82995965  1
  H+  H81  1  0.41361726  0.07489666  0.55319052  1
  H+  H82  1  0.09405517  0.87520097  0.83377124  1
  H+  H83  1  0.91184498  0.29402714  0.80253961  1
  H+  H84  1  0.10506882  0.71657978  0.65975001  1
  H+  H85  1  0.46557580  0.86341443  0.99911868  1
  H+  H86  1  0.62297494  0.23120299  1.00512986  1
  H+  H87  1  0.38944624  0.85257209  0.50963836  1
  H+  H88  1  0.33372926  0.67399623  0.38700911  1
  H+  H89  1  0.64919837  0.07850174  0.56182767  1
  H+  H90  1  0.17683324  0.08378658  0.89546794  1
  H+  H91  1  0.33526641  0.45102040  0.16802918  1
  H+  H92  1  0.18190965  0.34769161  0.17239951  1
  H+  H93  1  0.58225014  0.67048517  0.59151254  1
  H+  H94  1  0.37915737  0.88819949  0.17412517  1
  H+  H95  1  0.26584974  0.12475197  0.15514865  1
  H+  H96  1  0.51002427  0.89647285  0.16260663  1
  H+  H97  1  0.86800830  0.97174839  0.66999034  1
  H+  H98  1  0.63019274  0.34536343  0.50299825  1
  H+  H99  1  0.72756673  0.11930349  0.65941560  1
  H+  H100  1  0.73755527  0.37595933  0.99994470  1
  H+  H101  1  0.11929160  0.70464479  0.49158086  1
  H+  H102  1  0.50670460  0.36152183  0.32936605  1
  H+  H103  1  0.86076280  0.73149554  0.34214893  1
  H+  H104  1  0.65980924  0.58497590  0.74192557  1
  H+  H105  1  0.37776834  0.47129767  -0.02667579  1
  H+  H106  1  0.23480604  0.11118321  -0.00936825  1
  H+  H107  1  0.84892307  0.17652941  0.73958644  1
  H+  H108  1  0.60642931  0.48006150  0.80442796  1
  H+  H109  1  0.35796180  0.95826785  0.49319395  1
  H+  H110  1  0.91919343  0.54966505  0.16629807  1
  H+  H111  1  0.32857783  0.94551228  0.09936949  1
  H+  H112  1  0.95911616  0.11901241  0.50177776  1
  H+  H113  1  0.76886926  0.37735994  0.49919997  1
  H+  H114  1  0.77201860  0.64103295  0.15844476  1
  H+  H115  1  0.86531539  0.89444191  0.50022197  1
  H+  H116  1  0.11252738  0.49767896  0.84600880  1
  H+  H117  1  0.72075693  0.62517718  0.33502202  1
  H+  H118  1  0.12176627  0.01694474  0.48712360  1
  H+  H119  1  0.21869456  0.60627176  0.66275772  1
  H+  H120  1  0.59983508  0.77274826  0.32937064  1
  H+  H121  1  0.43915560  0.57609202  0.90793944  1
  H+  H122  1  0.12762446  0.70590066  0.10418767  1
  H+  H123  1  0.58556570  0.14880246  0.42933523  1
  H+  H124  1  0.59198155  0.63846628  0.34739763  1
  H+  H125  1  0.62752627  0.90752753  0.82886522  1
  H+  H126  1  0.14544855  0.76967996  0.99546981  1
  H+  H127  1  0.13662621  0.02410729  0.16923178  1
  H+  H128  1  0.61734461  0.98770746  0.49597890  1
  H+  H129  1  0.15795373  0.32360954  0.75453116  1
  H+  H130  1  0.11418129  0.33798391  0.31782739  1
  H+  H131  1  0.75104120  0.12758415  0.50533606  1
  H+  H132  1  0.60797915  0.97397223  0.01010245  1
  H+  H133  1  0.39305989  0.57944418  0.12116315  1
  H+  H134  1  0.12073235  0.43559822  -0.00543525  1
  H+  H135  1  0.96696954  0.10370038  0.16497248  1
  H+  H136  1  0.28618213  0.62789167  0.48656552  1
  H+  H137  1  0.87807992  0.28595892  0.65729498  1
  H+  H138  1  0.37820594  0.63578420  0.47153848  1
  H+  H139  1  0.62735957  0.53867342  0.17795013  1
  H+  H140  1  0.62448499  0.38029403  1.00932840  1
  H+  H141  1  -0.01658247  0.87734541  0.50637093  1
  H+  H142  1  0.62634308  0.86165820  0.99667368  1
  H+  H143  1  0.12380612  0.96837411  0.00438079  1
  H+  H144  1  0.87127095  0.48123059  0.01082188  1
  H+  H145  1  0.97580727  0.11115727  0.84709292  1
  H+  H146  1  0.72957629  0.87129411  0.50803879  1
  H+  H147  1  0.14593968  0.60154505  0.89053664  1
  H+  H148  1  0.25996997  0.37322865  0.69092805  1
  H+  H149  1  0.87912219  0.86749025  0.84349603  1
  H+  H150  1  0.64734990  0.25276887  0.15911100  1
  H+  H151  1  0.36402424  0.75885054  0.84584643  1
  H+  H152  1  0.10697032  0.22692085  0.49130209  1
  H+  H153  1  1.04065962  0.41197668  0.72942532  1
  H+  H154  1  0.62907710  0.77353361  0.99617815  1
  H+  H155  1  0.09762549  0.62276088  0.33520975  1
  H+  H156  1  0.86079772  0.97942347  0.82885634  1
  H+  H157  1  0.20996302  0.18361211  0.52436657  1
  H+  H158  1  0.85955550  0.86341908  0.99813605  1
  H+  H159  1  0.26398324  0.38476421  0.82295705  1
  H+  H160  1  0.88059574  0.86444096  0.17259627  1
  H+  H161  1  0.85937710  0.98090782  0.49549895  1
  H+  H162  1  0.14812358  0.98334691  0.32646996  1
  H+  H163  1  0.53154721  0.89120355  0.49422696  1
  H+  H164  1  0.11352788  0.49841217  0.17211957  1
  H+  H165  1  0.76144051  0.88459351  0.16199167  1
  H+  H166  1  0.51461208  0.64762662  0.81212388  1
  H+  H167  1  0.14032726  0.36319027  0.83251200  1
  H+  H168  1  0.98444211  0.60319478  0.49754188  1
  H+  H169  1  0.88935501  0.01946147  0.32847423  1
  H+  H170  1  0.76186343  0.64110326  0.81482253  1
  H+  H171  1  0.92356356  0.21300662  0.69172881  1
  H+  H172  1  0.87956278  0.11064304  1.00338335  1
  H+  H173  1  0.39517161  0.76723187  0.50139917  1
  H+  H174  1  0.72336094  0.86345339  0.84152659  1
  H+  H175  1  0.32394510  0.49612388  0.34606431  1
  H+  H176  1  0.61862922  0.24126803  0.83169829  1
  H+  H177  1  0.59940987  0.36189065  0.67066172  1
  H+  H178  1  0.16552594  0.83239173  0.26927337  1
  H+  H179  1  0.11483284  0.76499105  0.83491240  1
  H+  H180  1  0.53678921  0.89578326  0.67239671  1
  H+  H181  1  0.84922945  0.72721987  0.83646857  1
  H+  H182  1  0.86600580  0.64820059  1.00250932  1
  H+  H183  1  0.01285251  0.63154193  0.81482699  1
  H+  H184  1  0.62106976  0.47888728  0.51011308  1
  H+  H185  1  0.90582129  0.63077778  0.16080181  1
  H+  H186  1  0.27146966  0.89513517  0.00204893  1
  H+  H187  1  0.37673589  0.29547852  0.85637096  1
  H+  H188  1  0.37958496  0.53054548  0.82852177  1
  H+  H189  1  0.50107699  0.62122738  0.50085525  1
  H+  H190  1  0.34579965  0.37253020  0.66998329  1
  H+  H191  1  0.48917942  0.36081189  0.51398006  1
  H+  H192  1  0.29639095  0.14033916  0.49101617  1
  H+  H193  1  0.13522383  0.93888977  0.49262824  1
  H+  H194  1  0.74526009  0.60369157  0.67516172  1
  H+  H195  1  0.62572539  0.23548597  0.67319765  1
  H+  H196  1  0.60581139  0.86445256  0.32466149  1
  H+  H197  1  0.65613678  0.50931480  0.67125925  1
  H+  H198  1  0.87549739  0.26378413  0.50554956  1
  H+  H199  1  0.01938239  0.12183721  0.33527187  1
  H+  H200  1  0.86693656  0.88252566  0.67544431  1
  H+  H201  1  0.38243079  0.38476564  0.84684891  1
  H+  H202  1  0.14338919  0.35427547  0.50885132  1
  H+  H203  1  0.52983820  0.63635879  1.00807122  1
  H+  H204  1  0.37147866  0.61489832  0.83804299  1
  H+  H205  1  0.72832314  0.11265436  1.00310126  1
  H+  H206  1  0.75605750  0.87909587  0.00851933  1
  H+  H207  1  0.63862098  0.37814121  0.84403651  1
  H+  H208  1  -0.01408978  0.86618388  0.32071535  1
  H+  H209  1  0.10010776  0.60524999  0.04184129  1
  H+  H210  1  0.39963268  0.12038972  0.98623960  1
  H+  H211  1  0.52221900  0.39478141  0.82782134  1
  H+  H212  1  0.96026164  0.35408429  1.07167740  1
  H+  H213  1  0.49084552  0.61601883  0.42990167  1
  H+  H214  1  0.36612101  0.18613241  0.81664256  1
  H+  H215  1  0.62376873  0.86595024  0.17355266  1
  H+  H216  1  0.86142801  0.22614562  0.17329206  1
  H+  H217  1  0.62170408  0.14130015  0.00852946  1
  H+  H218  1  0.37925883  0.86582078  0.32777369  1
  H+  H219  1  0.22636569  0.34346445  0.95960835  1
  H+  H220  1  0.15029896  0.79786787  0.17481618  1
  H+  H221  1  0.36478874  0.00709990  0.33712619  1
  H+  H222  1  0.81050530  0.16555675  0.44612958  1
  H+  H223  1  0.36093969  0.73825145  0.32963051  1
  H+  H224  1  -0.02081890  0.35333777  0.00306973  1
  H+  H225  1  0.11359203  0.89570685  0.16496050  1
  H+  H226  1  0.64988778  0.61672168  0.53712632  1
  H+  H227  1  1.05295880  0.66991561  0.15350389  1
  H+  H228  1  0.82100507  0.46504652  0.34518792  1
  H+  H229  1  0.38698709  -0.02881352  0.80585263  1
  H+  H230  1  0.64359686  0.09115079  0.24345319  1
  H+  H231  1  0.38150010  0.13007305  0.48492159  1
  H+  H232  1  0.45800324  0.61724598  0.68341054  1
  H+  H233  1  0.81267271  0.40678649  0.17582357  1
  H+  H234  1  0.12447619  0.35513897  0.69778282  1
  H+  H235  1  0.39454843  0.08978287  0.83036586  1
  H+  H236  1  0.62341105  0.73548476  0.53667646  1
  H+  H237  1  0.08599465  0.12980812  0.49302366  1
  H+  H238  1  0.60042681  0.98310560  0.16616317  1
  H+  H239  1  0.26257246  0.88080160  0.65763246  1
  H+  H240  1  0.50311060  0.54542439  0.93075426  1
  H+  H241  1  0.08047750  0.15487064  0.09357760  1
  H+  H242  1  0.50031359  0.63058353  0.33509345  1
  H+  H243  1  0.87073782  0.72561944  0.67623166  1
  H+  H244  1  0.78509981  0.15118885  0.82997602  1
  H+  H245  1  0.14082542  0.11538395  0.17059255  1
  H+  H246  1  0.72673899  0.37560156  0.84408069  1
  H+  H247  1  0.63653062  0.03061019  0.66682562  1
  H+  H248  1  0.52650618  0.37967372  1.01043129  1
  H+  H249  1  0.09503337  0.21370103  0.15159331  1
  H+  H250  1  0.62875427  0.25373730  0.49954124  1
  H+  H251  1  0.12760379  0.90297230  0.69254332  1
  H+  H252  1  0.21793415  0.61561619  0.32127504  1
  H+  H253  1  0.14406151  0.59984110  0.50108035  1
  H+  H254  1  0.09651617  0.23902252  0.31565363  1
  H+  H255  1  0.92153385  0.38186662  0.17547491  1
  H+  H256  1  0.43783133  0.81242397  0.59468010  1
  H+  H257  1  0.47807537  0.10100823  0.49460445  1
  H+  H258  1  0.86736736  0.22436818  1.02970945  1
  H+  H259  1  0.09927670  0.21707728  0.68850689  1
  H+  H260  1  0.26015677  0.86901434  0.34500644  1
  H+  H261  1  0.37697179  0.62636949  0.31249675  1
  H+  H262  1  0.78467863  0.64251263  0.50692891  1
  H+  H263  1  0.27922654  0.66076377  0.94099293  1
  H+  H264  1  0.74360791  0.15329280  0.35471440  1
  H+  H265  1  0.45007274  0.08919372  0.31793551  1
  H+  H266  1  0.33090571  0.91166585  0.71183979  1
  H+  H267  1  0.60255126  0.73574303  0.16677524  1
  H+  H268  1  0.13837404  0.52238034  0.33299841  1
  H+  H269  1  0.85887208  0.39630461  0.65882287  1
  H+  H270  1  0.64423351  0.83175177  0.23448345  1
  H+  H271  1  0.98835118  0.61339332  0.64911556  1
  H+  H272  1  0.87178802  0.52369541  0.83920922  1
  H+  H273  1  0.36189227  0.98549987  0.00038227  1
  H+  H274  1  0.88049185  0.10883412  0.17444255  1
  H+  H275  1  0.23123203  0.89347704  0.17806447  1
  H+  H276  1  0.53539555  0.14530593  0.82649667  1
  H+  H277  1  0.12929249  0.60385005  0.65544449  1
  H+  H278  1  0.60743691  0.75673723  0.66579385  1
  H+  H279  1  0.10956793  0.35150989  -0.03652703  1
  H+  H280  1  0.34425040  0.62811179  0.69527563  1
  H+  H281  1  0.11468489  0.46488926  0.50138208  1
  H+  H282  1  0.88384326  0.77736209  0.17077971  1
  H+  H283  1  0.65404622  0.13041211  0.84595741  1
  H+  H284  1  0.43328041  0.08154592  0.89370283  1
  H+  H285  1  0.14319908  0.11226073  0.83679639  1
  H+  H286  1  0.13466117  0.02703602  0.66255777  1
  H+  H287  1  0.26311800  0.13559316  0.66639025  1
  H+  H288  1  0.36169011  0.54754789  0.57772231  1
  H+  H289  1  0.31013945  0.66111925  0.77703326  1
  H+  H290  1  0.98117901  0.62085496  0.99002011  1
  H+  H291  1  0.24295987  0.62530838  0.83275477  1
  H+  H292  1  0.10017084  0.41822182  0.41027785  1
  H+  H293  1  0.64131500  0.52858728  0.01058724  1
  H+  H294  1  0.10143372  0.94467839  0.38938651  1
  H+  H295  1  0.57296099  0.37667523  0.07689616  1
  H+  H296  1  0.82502558  0.42323836  0.71682645  1
  H+  H297  1  0.39340668  0.53239725  0.58239555  1
  H+  H298  1  0.15866450  0.80562987  0.57573736  1
  H+  H299  1  0.91058950  0.08291686  0.90416787  1
  H+  H300  1  0.10979702  0.30258658  0.22294521  1
  H+  H301  1  0.41926117  0.31734109  0.59108412  1
  H+  H302  1  0.46293204  0.31105687  0.26701231  1
  H+  H303  1  0.47897568  0.76732554  0.63203596  1
  H+  H304  1  0.84518615  0.67484186  0.73871209  1
  H+  H305  1  0.82923690  0.67190861  0.09791007  1
  H+  H306  1  0.92983877  0.83968293  0.60470062  1
  H+  H307  1  0.59531775  0.99339638  0.34460473  1
  H+  H308  1  0.26812837  0.11192850  0.81862597  1
  H+  H309  1  0.10510961  0.97106753  0.83386434  1
  H+  H310  1  0.91770851  0.07627798  0.26848327  1
  H+  H311  1  0.63948572  0.61592517  1.00568381  1
  H+  H312  1  0.57787321  0.93025347  0.40197372  1
  H+  H313  1  0.09777361  0.71135566  0.33775944  1
  H+  H314  1  0.40037391  0.83010083  0.89800166  1
  H+  H315  1  0.82856755  0.67616890  0.40364705  1
  H+  H316  1  0.07219319  0.14854907  0.77075529  1
  H+  H317  1  0.10286829  0.63103725  0.81637190  1
  H+  H318  1  0.34073167  0.15815196  0.06477717  1
  H+  H319  1  0.89900056  0.78332491  0.50970084  1
  H+  H320  1  0.33714957  0.41703208  0.77103981  1
  H+  H321  1  0.07828076  0.16390960  0.39314845  1
  H+  H322  1  0.76975041  0.32391554  0.78447397  1
  H+  H323  1  0.91105206  0.33239178  0.55942897  1
  H+  H324  1  0.62175040  0.61543530  0.79560047  1
  H+  H325  1  0.18046975  0.10697709  0.57134436  1
  H+  H326  1  0.57520083  0.91771584  0.07046970  1
  H+  H327  1  0.37685996  0.38839585  0.48688680  1
  H+  H328  1  0.08095761  0.64784404  0.42988878  1
  H+  H329  1  0.92815473  0.58118581  0.57876979  1
  H+  H330  1  0.09122215  0.91552425  0.06582791  1
  H+  H331  1  0.67620521  0.09013313  0.94023858  1
  H+  H332  1  0.14552158  0.81915290  0.89740936  1
  H+  H333  1  0.50345230  0.46473417  0.38249131  1
  H+  H334  1  0.40714223  0.85327057  0.23207622  1
  H+  H335  1  0.23205636  0.35643917  0.50072737  1
  H+  H336  1  0.35449528  0.71819624  0.67798105  1
  H+  H337  1  0.81693514  0.90650626  0.06954714  1
  H+  H338  1  0.43003805  0.34760509  0.94089899  1
  H+  H339  1  0.07191512  0.65955764  0.72327251  1
  H+  H340  1  0.17415636  0.57690465  0.56323571  1
  H+  H341  1  0.98553073  0.26612185  0.30132658  1
  H+  H342  1  0.57789838  0.68681515  0.71751966  1
  H+  H343  1  0.82621228  0.15664368  0.08215931  1
  H+  H344  1  0.40495840  0.58471702  0.25826549  1
  H+  H345  1  0.67696107  0.35098596  0.93887504  1
  H+  H346  1  0.56767479  0.39089223  0.73138702  1
  H+  H347  1  0.66007086  0.83262701  0.89899111  1
  H+  H348  1  0.65511645  0.31559328  0.59289052  1
  H+  H349  1  0.60317306  0.94319350  0.77043650  1
  H+  H350  1  0.05517863  0.35472096  0.15485837  1
  H+  H351  1  0.79751628  0.40398326  0.40295442  1
  H+  H352  1  0.15433982  0.55283686  0.23252849  1
  H+  H353  1  0.84748637  0.21267135  0.35057773  1
  H+  H354  1  0.13430402  0.85525204  0.32986572  1
  H+  H355  1  0.85940973  0.31205161  0.91889589  1
  H+  H356  1  0.59839358  0.19040111  0.10178796  1
  H+  H357  1  0.85198116  0.97263840  0.15748067  1
  H+  H358  1  0.96884644  0.37189880  0.65445336  1
  H+  H359  1  0.83849487  0.91743558  0.40028067  1
  H+  H360  1  0.32796744  0.15364993  0.72262559  1
  H+  H361  1  0.91801829  0.58671382  0.93327183  1
  H+  H362  1  0.33174512  0.73857502  0.98566145  1
  H+  H363  1  0.16814222  0.30977870  0.89878986  1
  H+  H364  1  0.31897254  0.44066465  0.03108686  1
  H+  H365  1  0.86515699  0.11243036  0.50751489  1
  H+  H366  1  0.66160012  0.59417921  0.27510845  1
  H+  H367  1  0.86620790  0.27406713  0.91976044  1
  H+  H368  1  0.58208257  0.43335110  0.44666249  1
  H+  H369  1  0.85713344  0.42978822  0.11136309  1
  H+  H370  1  0.35881519  0.59926474  0.17712061  1
  H+  H371  1  0.37825149  0.24977492  0.17984094  1
  H+  H372  1  0.60132228  0.18309785  0.74238949  1
  H+  H373  1  0.68803418  0.33286509  0.24048692  1
  H+  H374  1  0.30148259  0.43402135  0.40332291  1
  H+  H375  1  0.83358297  0.91917053  0.76903205  1
  H+  H376  1  0.90771743  0.07666445  0.59044097  1
  H+  H377  1  0.34696837  0.18401517  0.40315861  1
  H+  H378  1  0.57808552  0.67119211  0.07237150  1
  H+  H379  1  0.89900058  0.83776798  0.93220361  1
  H+  H380  1  0.22619192  0.08610199  0.25293610  1
  H+  H381  1  0.30478202  0.37203130  0.12368215  1
  H+  H382  1  0.68271995  0.57843825  0.58681655  1
  H+  H383  1  0.08124267  0.92208484  0.74694620  1
  O2-  O384  1  0.07662595  0.15333998  0.13877967  1
  O2-  O385  1  0.06457942  0.16625215  0.47696477  1
  O2-  O386  1  0.08036654  0.15712899  0.81549263  1
  O2-  O387  1  0.02265648  0.38473765  0.14187275  1
  O2-  O388  1  0.08463575  0.40391580  0.48685359  1
  O2-  O389  1  0.08385379  0.42890803  0.84840456  1
  O2-  O390  1  0.11697195  0.70599369  0.14776158  1
  O2-  O391  1  0.08298598  0.64303410  0.47548804  1
  O2-  O392  1  0.07130533  0.66098601  0.79748514  1
  O2-  O393  1  0.08342650  0.92453687  0.14558342  1
  O2-  O394  1  0.09639558  0.95618786  0.47481627  1
  O2-  O395  1  0.06734989  0.91142744  0.81852200  1
  O2-  O396  1  0.32971441  0.15507855  0.14262808  1
  O2-  O397  1  0.35463474  0.16872541  0.47317637  1
  O2-  O398  1  0.32600765  0.13129928  0.79813177  1
  O2-  O399  1  0.30715517  0.38687159  0.16651290  1
  O2-  O400  1  0.34828935  0.41983528  0.47295004  1
  O2-  O401  1  0.33135656  0.42068308  0.81592298  1
  O2-  O402  1  0.32520128  0.67522477  0.16282735  1
  O2-  O403  1  0.34324161  0.66420350  0.46680238  1
  O2-  O404  1  0.30804373  0.65312447  0.82198303  1
  O2-  O405  1  0.33068849  0.95197954  0.14439509  1
  O2-  O406  1  0.33243010  0.89690113  0.48129850  1
  O2-  O407  1  0.34791430  0.91489582  0.78801260  1
  O2-  O408  1  0.59352151  0.20114720  0.14557877  1
  O2-  O409  1  0.58277515  0.15436766  0.47387502  1
  O2-  O410  1  0.59760388  0.18403713  0.81249348  1
  O2-  O411  1  0.55749977  0.33969725  0.13592422  1
  O2-  O412  1  0.58769929  0.42108444  0.49004314  1
  O2-  O413  1  0.57881983  0.41521515  0.80807319  1
  O2-  O414  1  0.57602613  0.67340891  0.15197992  1
  O2-  O415  1  0.59404433  0.67270596  0.54742661  1
  O2-  O416  1  0.57549287  0.67597849  0.79771352  1
  O2-  O417  1  0.57146495  0.92371556  0.14892206  1
  O2-  O418  1  0.59156004  0.92442547  0.47912309  1
  O2-  O419  1  0.61336017  0.95134576  0.81472094  1
  O2-  O420  1  0.82530650  0.16580894  0.15988103  1
  O2-  O421  1  0.81576721  0.16040059  0.49198552  1
  O2-  O422  1  0.84417071  0.17643487  0.81127235  1
  O2-  O423  1  0.87022632  0.43411933  0.15538176  1
  O2-  O424  1  0.82858567  0.41283997  0.48365541  1
  O2-  O425  1  0.81230901  0.38370025  0.79357342  1
  O2-  O426  1  0.83177931  0.67218117  0.14308514  1
  O2-  O427  1  0.84191752  0.67541629  0.48663203  1
  O2-  O428  1  0.82545226  0.66821966  0.81941581  1
  O2-  O429  1  0.82006228  0.91063407  0.14360706  1
  O2-  O430  1  0.83138650  0.91899890  0.48285263  1
  O2-  O431  1  0.83096440  0.91832500  0.81451123  1
  O2-  O432  1  0.17335529  0.08596323  0.18304578  1
  O2-  O433  1  0.19165276  0.12238328  0.52662219  1
  O2-  O434  1  0.17461187  0.08179656  0.84967727  1
  O2-  O435  1  0.11902125  0.31324723  0.17682789  1
  O2-  O436  1  0.17345408  0.32126449  0.51729827  1
  O2-  O437  1  0.16879108  0.32857482  0.82794816  1
  O2-  O438  1  0.16664286  0.54530984  0.18959464  1
  O2-  O439  1  0.17768672  0.57373051  0.51810592  1
  O2-  O440  1  0.14914705  0.58912432  0.84787348  1
  O2-  O441  1  0.17164846  0.85665208  0.19456152  1
  O2-  O442  1  0.17196657  0.80134803  0.51650470  1
  O2-  O443  1  0.13377496  0.82193087  0.85362107  1
  O2-  O444  1  0.36456057  0.10980319  0.17705842  1
  O2-  O445  1  0.41553325  0.07428072  0.50658212  1
  O2-  O446  1  0.44013167  0.08143730  0.84834392  1
  O2-  O447  1  0.41547589  0.30967925  0.19645621  1
  O2-  O448  1  0.42665045  0.32398879  0.52688652  1
  O2-  O449  1  0.41579402  0.35602073  0.86491430  1
  O2-  O450  1  0.38790780  0.56588319  0.16592200  1
  O2-  O451  1  0.45662591  0.59530708  0.46828379  1
  O2-  O452  1  0.41123211  0.59065891  0.84454831  1
  O2-  O453  1  0.40346778  0.85149341  0.18648826  1
  O2-  O454  1  0.42324018  0.82425835  0.52207528  1
  O2-  O455  1  0.39785852  0.82171499  0.85367113  1
  O2-  O456  1  0.65284719  0.09043172  0.19790308  1
  O2-  O457  1  0.65504398  0.07834827  0.51771791  1
  O2-  O458  1  0.68648511  0.10322190  0.86132246  1
  O2-  O459  1  0.70954701  0.35393784  0.19751489  1
  O2-  O460  1  0.65721078  0.31318968  0.51934096  1
  O2-  O461  1  0.66879469  0.34922046  0.86261454  1
  O2-  O462  1  0.66289922  0.59753276  0.19220936  1
  O2-  O463  1  0.67944695  0.58232075  0.54149439  1
  O2-  O464  1  0.65353904  0.58346585  0.78725140  1
  O2-  O465  1  0.65218588  0.83375697  0.18834338  1
  O2-  O466  1  0.67055116  0.84487191  0.52650294  1
  O2-  O467  1  0.66162246  0.83287683  0.85366910  1
  O2-  O468  1  0.90763000  0.07313074  0.18200295  1
  O2-  O469  1  0.90061419  0.08390744  0.51983681  1
  O2-  O470  1  0.91374615  0.08388992  0.85864671  1
  O2-  O471  1  0.94815176  0.34452679  0.18326371  1
  O2-  O472  1  0.91233451  0.32779217  0.51455636  1
  O2-  O473  1  0.93980590  0.35630110  0.79322262  1
  O2-  O474  1  0.94932691  0.61307242  0.16484916  1
  O2-  O475  1  0.92368675  0.57917064  0.51462697  1
  O2-  O476  1  0.90384630  0.58191660  0.85552283  1
  O2-  O477  1  0.91451745  0.83753934  0.18667570  1
  O2-  O478  1  0.92664177  0.84355204  0.52585943  1
  O2-  O479  1  0.90602706  0.83566643  0.86298516  1
  O2-  O480  1  0.24788813  0.07583160  0.29197284  1
  O2-  O481  1  0.16235605  0.08625448  0.64489930  1
  O2-  O482  1  0.17618825  0.08022266  0.97249089  1
  O2-  O483  1  0.09518957  0.28752665  0.29127593  1
  O2-  O484  1  0.15366922  0.32216167  0.70802763  1
  O2-  O485  1  0.16650885  0.30648220  0.94565848  1
  O2-  O486  1  0.15618394  0.57762568  0.31075611  1
  O2-  O487  1  0.15940002  0.57183729  0.64422157  1
  O2-  O488  1  0.28289882  0.67648529  0.98382398  1
  O2-  O489  1  0.15987382  0.82096546  0.31444855  1
  O2-  O490  1  0.14544539  0.80879830  0.62607566  1
  O2-  O491  1  0.16733591  0.82679541  0.97742134  1
  O2-  O492  1  0.38830947  0.06719466  0.32218131  1
  O2-  O493  1  0.40539868  0.07325586  0.62460433  1
  O2-  O494  1  0.42904613  0.08967407  0.97050859  1
  O2-  O495  1  0.48334022  0.30502772  0.30799646  1
  O2-  O496  1  0.41421936  0.31560036  0.64007073  1
  O2-  O497  1  0.43274957  0.34275948  0.98629147  1
  O2-  O498  1  0.40312003  0.58911907  0.30242010  1
  O2-  O499  1  0.39975462  0.58205980  0.70062987  1
  O2-  O500  1  0.45905921  0.55723786  0.94602752  1
  O2-  O501  1  0.41270071  0.84078192  0.30830285  1
  O2-  O502  1  0.45173151  0.80217692  0.63749482  1
  O2-  O503  1  0.40594525  0.83877972  0.98329739  1
  O2-  O504  1  0.63578912  0.09558610  0.31971312  1
  O2-  O505  1  0.66571031  0.09422472  0.65334462  1
  O2-  O506  1  0.66917203  0.08519435  0.98551826  1
  O2-  O507  1  0.64478374  0.29673967  0.30551257  1
  O2-  O508  1  0.65966630  0.32239157  0.63912714  1
  O2-  O509  1  0.67611606  0.34808158  0.98459450  1
  O2-  O510  1  0.65924413  0.59472592  0.32016664  1
  O2-  O511  1  0.68087282  0.57157628  0.66578164  1
  O2-  O512  1  0.66805058  0.58426015  0.98985629  1
  O2-  O513  1  0.62244533  0.82526198  0.30464744  1
  O2-  O514  1  0.67683190  0.85943918  0.64592547  1
  O2-  O515  1  0.65851210  0.83358772  0.98003475  1
  O2-  O516  1  0.92311354  0.08010346  0.31301649  1
  O2-  O517  1  0.91137942  0.07247234  0.63689827  1
  O2-  O518  1  0.90593836  0.07926619  0.98294454  1
  O2-  O519  1  0.94298629  0.28255852  0.31471234  1
  O2-  O520  1  0.90745768  0.34422619  0.63920868  1
  O2-  O521  1  0.93077584  0.33870351  1.03158198  1
  O2-  O522  1  0.88975413  0.56584363  0.32267277  1
  O2-  O523  1  0.92761817  0.58310916  0.62742025  1
  O2-  O524  1  0.92030787  0.58924177  0.97892632  1
  O2-  O525  1  0.92407329  0.83250326  0.31072295  1
  O2-  O526  1  0.92553082  0.83571959  0.65003857  1
  O2-  O527  1  0.89359831  0.83429119  0.97923185  1
  O2-  O528  1  0.08145532  0.15621431  0.01180089  1
  O2-  O529  1  0.08206681  0.15731324  0.34895049  1
  O2-  O530  1  0.07141562  0.15261957  0.68854235  1
  O2-  O531  1  0.07970928  0.38604952  -0.02902499  1
  O2-  O532  1  0.12125418  0.42983783  0.36720220  1
  O2-  O533  1  0.06324566  0.41164485  0.68877457  1
  O2-  O534  1  0.13076827  0.66056474  0.02114375  1
  O2-  O535  1  0.06747481  0.65146772  0.35385292  1
  O2-  O536  1  0.07268380  0.65572152  0.67708378  1
  O2-  O537  1  0.09396902  0.90935380  0.02104074  1
  O2-  O538  1  0.10128868  0.93106898  0.34594632  1
  O2-  O539  1  0.09059072  0.92734199  0.70059492  1
  O2-  O540  1  0.34202877  0.16428937  0.01935816  1
  O2-  O541  1  0.34099138  0.20347759  0.36046627  1
  O2-  O542  1  0.32604017  0.16474934  0.67807935  1
  O2-  O543  1  0.33342950  0.41771909  -0.00428504  1
  O2-  O544  1  0.27656168  0.44838217  0.36853119  1
  O2-  O545  1  0.32460173  0.40550957  0.69201701  1
  O2-  O546  1  0.39366118  0.64418445  0.06294614  1
  O2-  O547  1  0.32975159  0.67557679  0.34182707  1
  O2-  O548  1  0.31311310  0.66228852  0.69657316  1
  O2-  O549  1  0.33040415  0.92810004  0.02032164  1
  O2-  O550  1  0.32118755  0.90240504  0.35952693  1
  O2-  O551  1  0.32414962  0.91509425  0.66681327  1
  O2-  O552  1  0.59064178  0.17230393  0.02173693  1
  O2-  O553  1  0.58182777  0.13156630  0.34143848  1
  O2-  O554  1  0.60150758  0.17774235  0.69566903  1
  O2-  O555  1  0.58539323  0.40202569  0.03130006  1
  O2-  O556  1  0.54947991  0.45224443  0.37416531  1
  O2-  O557  1  0.56565823  0.38883726  0.68575981  1
  O2-  O558  1  0.58672453  0.67105106  0.02739811  1
  O2-  O559  1  0.55181348  0.65702352  0.36243857  1
  O2-  O560  1  0.56948168  0.69363016  0.67339948  1
  O2-  O561  1  0.57572257  0.91351985  0.02495684  1
  O2-  O562  1  0.57034700  0.93109432  0.35681896  1
  O2-  O563  1  0.59512635  0.93719077  0.68846029  1
  O2-  O564  1  0.83186955  0.16117241  0.03674596  1
  O2-  O565  1  0.79748675  0.18318855  0.37837860  1
  O2-  O566  1  0.86086375  0.18413371  0.69366555  1
  O2-  O567  1  0.83739135  0.42206919  0.02770362  1
  O2-  O568  1  0.77984356  0.40584731  0.36078726  1
  O2-  O569  1  0.82738274  0.42752448  0.67164415  1
  O2-  O570  1  0.83411420  0.67696533  0.01665818  1
  O2-  O571  1  0.82236776  0.67237765  0.35872705  1
  O2-  O572  1  0.84295350  0.66705671  0.69401538  1
  O2-  O573  1  0.81777917  0.90661257  0.02322395  1
  O2-  O574  1  0.84095227  0.91937584  0.35539136  1
  O2-  O575  1  0.83716118  0.91389046  0.68973705  1
