# generated using pymatgen
data_H2O
_symmetry_space_group_name_H-M   'P 1'
_cell_length_a   17.98536064
_cell_length_b   17.98788789
_cell_length_c   21.99517297
_cell_angle_alpha   89.99266149
_cell_angle_beta   89.98210167
_cell_angle_gamma   120.00398938
_symmetry_Int_Tables_number   1
_chemical_formula_structural   H2O
_chemical_formula_sum   'H384 O192'
_cell_volume   6162.25735280
_cell_formula_units_Z   192
loop_
 _symmetry_equiv_pos_site_id
 _symmetry_equiv_pos_as_xyz
  1  'x, y, z'
loop_
 _atom_type_symbol
 _atom_type_oxidation_number
  H+  1.0
  O2-  -2.0
loop_
 _atom_site_type_symbol
 _atom_site_label
 _atom_site_symmetry_multiplicity
 _atom_site_fract_x
 _atom_site_fract_y
 _atom_site_fract_z
 _atom_site_occupancy
  H+  H0  1  0.88441472  0.11273527  0.32557171  1
  H+  H1  1  0.32105435  0.41333048  0.40173338  1
  H+  H2  1  0.23652687  0.37402070  0.98821258  1
  H+  H3  1  0.51256850  0.44312820  0.65845431  1
  H+  H4  1  0.74726397  0.34041077  0.53053645  1
  H+  H5  1  0.80217044  0.13345666  0.00212378  1
  H+  H6  1  -0.00039592  0.88039250  0.65877191  1
  H+  H7  1  0.79359908  0.85176829  0.70342167  1
  H+  H8  1  0.05279075  0.88670867  0.09001680  1
  H+  H9  1  0.32984497  0.66242110  0.09722938  1
  H+  H10  1  0.57838843  0.91649387  0.77042279  1
  H+  H11  1  0.27193837  0.87759451  0.86614436  1
  H+  H12  1  0.76029141  0.63325638  0.16174371  1
  H+  H13  1  0.61596298  0.61821540  0.49797366  1
  H+  H14  1  0.85475049  0.46888529  0.67927517  1
  H+  H15  1  0.02570279  0.39565899  0.16309161  1
  H+  H16  1  0.05191597  0.10265397  -0.02245574  1
  H+  H17  1  0.72580969  0.35536550  0.66775445  1
  H+  H18  1  0.83179652  0.37017487  0.06766777  1
  H+  H19  1  0.33634001  0.66685266  0.72713152  1
  H+  H20  1  0.97731548  0.60317859  0.67174313  1
  H+  H21  1  0.14236819  0.85790349  0.16615917  1
  H+  H22  1  0.39252970  0.87299421  0.16536970  1
  H+  H23  1  0.63106635  0.26106435  0.67059939  1
  H+  H24  1  0.47773301  0.12121483  0.17264705  1
  H+  H25  1  0.01414825  0.97443100  0.79610920  1
  H+  H26  1  0.57488150  0.67250338  0.42945111  1
  H+  H27  1  0.90009220  0.91344098  0.82986985  1
  H+  H28  1  0.37042836  0.63844383  0.00602388  1
  H+  H29  1  0.63040550  1.02221568  0.84171535  1
  H+  H30  1  0.01925612  0.88544184  0.48924700  1
  H+  H31  1  0.89491183  0.35982263  0.65906184  1
  H+  H32  1  0.31982207  0.26932497  0.88064371  1
  H+  H33  1  0.39404639  0.52822423  -0.00630270  1
  H+  H34  1  0.97869524  0.60962406  0.31853305  1
  H+  H35  1  0.36368230  0.71791718  0.34023159  1
  H+  H36  1  0.72321602  0.87146045  0.64486901  1
  H+  H37  1  0.10529235  0.22800902  0.49664589  1
  H+  H38  1  0.97044517  0.37603625  0.99434533  1
  H+  H39  1  0.38381205  0.62228013  0.50081510  1
  H+  H40  1  0.61365502  0.72636967  0.65887346  1
  H+  H41  1  0.46550604  0.11995713  0.01023796  1
  H+  H42  1  1.00743260  0.61709395  0.14897323  1
  H+  H43  1  0.92370110  0.10618119  0.00759312  1
  H+  H44  1  0.64189645  0.62090674  0.33248568  1
  H+  H45  1  0.63247129  0.11450416  0.49658876  1
  H+  H46  1  0.10598578  0.13878082  0.49475370  1
  H+  H47  1  0.42527655  0.85281118  0.38758424  1
  H+  H48  1  0.38761791  0.60552201  0.32363839  1
  H+  H49  1  0.98889799  0.86978004  0.33079001  1
  H+  H50  1  0.01116283  0.29904978  1.03802929  1
  H+  H51  1  0.38544031  1.02838568  0.00576145  1
  H+  H52  1  0.37465979  0.51744799  0.84067467  1
  H+  H53  1  0.37007634  0.22152393  0.81924711  1
  H+  H54  1  0.11035933  0.14835222  0.33970220  1
  H+  H55  1  0.37324140  0.72896280  0.00803724  1
  H+  H56  1  0.27602615  0.63298064  0.66798814  1
  H+  H57  1  0.52325847  0.63657052  0.33731679  1
  H+  H58  1  0.72154746  0.10985042  0.84060066  1
  H+  H59  1  0.62484330  0.97956865  0.00415274  1
  H+  H60  1  0.37550736  0.98669598  0.16367766  1
  H+  H61  1  0.86521101  0.22857513  0.33667151  1
  H+  H62  1  0.22163195  0.10972991  0.50497546  1
  H+  H63  1  0.88154271  0.66047626  0.50718205  1
  H+  H64  1  0.35938589  0.47619616  0.15961948  1
  H+  H65  1  0.72786241  0.86095642  0.16896155  1
  H+  H66  1  0.35956656  0.72675531  0.15389114  1
  H+  H67  1  0.78931761  0.64141495  0.82869735  1
  H+  H68  1  0.14307821  0.51978212  0.47618326  1
  H+  H69  1  0.35991764  0.14361313  0.16017453  1
  H+  H70  1  0.85523794  0.38023170  0.30263709  1
  H+  H71  1  0.61007026  0.73481470  0.48910244  1
  H+  H72  1  0.64653725  0.53493597  0.32896381  1
  H+  H73  1  0.42484680  0.33534971  0.55852209  1
  H+  H74  1  0.13340993  0.02101482  0.50337266  1
  H+  H75  1  0.33944984  0.21667152  0.99043277  1
  H+  H76  1  0.11338511  0.39101602  0.16313816  1
  H+  H77  1  0.36492304  0.23529304  0.16203818  1
  H+  H78  1  0.49559006  0.12158848  0.83486550  1
  H+  H79  1  0.13940681  0.81088061  0.59903377  1
  H+  H80  1  0.19735334  0.37861420  0.66833171  1
  H+  H81  1  0.83269428  0.43719934  0.46985453  1
  H+  H82  1  1.02793533  0.91342943  0.83564047  1
  H+  H83  1  0.14772655  0.80457039  1.00834595  1
  H+  H84  1  0.09473265  0.87010891  0.33320892  1
  H+  H85  1  1.03801653  0.36701655  0.66197603  1
  H+  H86  1  0.48029034  0.62454978  0.50403017  1
  H+  H87  1  0.63872017  0.77147104  0.16899036  1
  H+  H88  1  0.10364833  0.95167441  0.13990845  1
  H+  H89  1  0.35382914  0.63326099  0.82675381  1
  H+  H90  1  0.38740592  0.61458776  0.17050506  1
  H+  H91  1  0.63631994  0.65916519  0.82846814  1
  H+  H92  1  0.36079743  0.35033724  0.83838260  1
  H+  H93  1  0.39066494  0.11943292  0.50027690  1
  H+  H94  1  0.38726674  0.51721372  0.32511329  1
  H+  H95  1  0.32195203  0.91186870  0.54915013  1
  H+  H96  1  0.88071109  0.88534730  0.66758119  1
  H+  H97  1  0.35877053  0.39654772  0.67546350  1
  H+  H98  1  0.81810028  0.39809481  0.73298667  1
  H+  H99  1  0.78267729  0.63676600  0.35078364  1
  H+  H100  1  0.47593221  0.61808834  0.64938981  1
  H+  H101  1  0.22354231  0.36587452  0.17118525  1
  H+  H102  1  0.89525343  0.54515976  1.00597880  1
  H+  H103  1  0.65484236  0.62985128  0.83052880  1
  H+  H104  1  0.46766946  0.86348994  0.83735843  1
  H+  H105  1  0.09850184  0.69589432  0.83176795  1
  H+  H106  1  0.13872962  0.12040487  0.65730530  1
  H+  H107  1  0.27757341  0.14388536  0.66702712  1
  H+  H108  1  0.89031954  0.12249367  0.83696189  1
  H+  H109  1  0.48613835  0.36437282  0.99307820  1
  H+  H110  1  0.37947866  0.86224663  0.84607695  1
  H+  H111  1  0.37113478  0.35631499  0.33532930  1
  H+  H112  1  0.97368421  0.11233083  0.17100491  1
  H+  H113  1  0.52559827  0.63805333  0.15528581  1
  H+  H114  1  0.48315953  0.63967158  0.80931985  1
  H+  H115  1  0.88370998  0.86364878  0.17514805  1
  H+  H116  1  0.87263500  0.33649745  0.84074775  1
  H+  H117  1  0.20954854  0.87129073  0.32549995  1
  H+  H118  1  0.38481744  0.85925402  0.63802652  1
  H+  H119  1  0.41796328  0.58250171  0.22855902  1
  H+  H120  1  0.38680120  0.11544403  0.65431608  1
  H+  H121  1  0.33841360  0.16629299  0.72572696  1
  H+  H122  1  0.61528083  0.37629196  0.51934346  1
  H+  H123  1  0.11647405  0.73013752  0.33390477  1
  H+  H124  1  0.67538759  0.27314378  0.82637240  1
  H+  H125  1  0.37208653  0.88729943  0.01101260  1
  H+  H126  1  0.30758998  0.86765468  0.37169311  1
  H+  H127  1  0.97703336  0.36277032  0.32624068  1
  H+  H128  1  0.61166588  0.12791663  0.82803865  1
  H+  H129  1  0.53059081  0.88845815  0.15283990  1
  H+  H130  1  0.62339567  0.72680107  0.00144928  1
  H+  H131  1  0.61406578  0.22060635  0.02780540  1
  H+  H132  1  0.45802373  0.35150500  0.33144999  1
  H+  H133  1  0.38600281  0.61995828  0.65315456  1
  H+  H134  1  0.89054565  0.87494558  0.32718616  1
  H+  H135  1  0.59195140  0.51633339  0.48161861  1
  H+  H136  1  0.73186478  0.37919310  0.91716849  1
  H+  H137  1  1.01555280  0.13816229  0.67090584  1
  H+  H138  1  0.64523917  0.11397607  0.00303201  1
  H+  H139  1  0.39472189  1.03318029  0.85277146  1
  H+  H140  1  0.10032190  0.87190617  0.48627702  1
  H+  H141  1  0.11453590  0.14829148  0.15183292  1
  H+  H142  1  0.16455711  0.83828323  0.25978623  1
  H+  H143  1  0.13312739  0.85700310  0.65962171  1
  H+  H144  1  0.14143879  0.59970954  0.66017517  1
  H+  H145  1  0.52694673  0.13561061  0.48707330  1
  H+  H146  1  0.54470372  0.40366321  0.75959204  1
  H+  H147  1  0.88221476  0.02025672  0.65598803  1
  H+  H148  1  0.47497640  0.37132490  0.18471196  1
  H+  H149  1  0.85286495  0.22459294  0.49640197  1
  H+  H150  1  0.59325520  0.16488132  0.20135024  1
  H+  H151  1  0.26577065  0.38601465  0.82449813  1
  H+  H152  1  0.39581992  0.77086280  0.49690277  1
  H+  H153  1  0.62881263  0.47854549  -0.00371828  1
  H+  H154  1  0.34870245  0.46937962  0.49751136  1
  H+  H155  1  0.72118801  0.35962826  0.30612604  1
  H+  H156  1  0.89132088  0.27540513  0.16906371  1
  H+  H157  1  0.65729829  0.25046886  0.51757269  1
  H+  H158  1  1.04432872  0.67634751  0.50676356  1
  H+  H159  1  0.88594020  0.67713824  0.83293965  1
  H+  H160  1  0.12128215  0.36558680  0.50454859  1
  H+  H161  1  0.42356907  0.83281785  0.93670379  1
  H+  H162  1  0.73058754  0.12037387  0.31946474  1
  H+  H163  1  0.62542703  0.51724564  0.18133256  1
  H+  H164  1  0.91323487  0.78901184  0.66073014  1
  H+  H165  1  0.09353709  0.68220229  0.39733798  1
  H+  H166  1  0.51737880  0.13541100  0.67269370  1
  H+  H167  1  0.89455116  0.61447930  0.67546275  1
  H+  H168  1  0.86491397  0.65138536  1.01149001  1
  H+  H169  1  0.14221672  0.61633825  0.32707183  1
  H+  H170  1  1.07808045  0.43949765  0.52833645  1
  H+  H171  1  0.82480362  0.42208111  0.83146215  1
  H+  H172  1  0.91459580  0.55087651  0.52382704  1
  H+  H173  1  0.70375875  0.41453292  0.97038578  1
  H+  H174  1  0.60501802  0.59322619  0.64985703  1
  H+  H175  1  0.37124266  0.35666750  0.50891325  1
  H+  H176  1  0.23474232  0.62360726  -0.00807359  1
  H+  H177  1  0.13158813  0.66004840  -0.00798685  1
  H+  H178  1  0.74527521  0.37286011  0.16385034  1
  H+  H179  1  0.11129738  0.39090363  0.34534307  1
  H+  H180  1  0.87445642  0.39754471  0.51202302  1
  H+  H181  1  0.15101443  0.33799659  0.56540023  1
  H+  H182  1  0.74525970  0.82529643  0.84509740  1
  H+  H183  1  0.24177572  0.14132421  0.17001185  1
  H+  H184  1  0.61287571  0.63555271  0.15860036  1
  H+  H185  1  0.21805425  0.12240461  0.33065645  1
  H+  H186  1  0.07300654  0.97535752  0.01410984  1
  H+  H187  1  0.35854275  -0.02393345  0.63703914  1
  H+  H188  1  0.88097712  0.02535911  0.50289140  1
  H+  H189  1  0.86775042  0.13962305  0.16151722  1
  H+  H190  1  0.21935658  0.60543030  0.83065007  1
  H+  H191  1  0.14606201  0.04604838  0.83590826  1
  H+  H192  1  0.49117113  0.40040045  0.46935852  1
  H+  H193  1  0.85945062  0.21846220  0.83130578  1
  H+  H194  1  0.86559973  0.98086681  0.33854768  1
  H+  H195  1  0.01647772  0.37606509  0.82328082  1
  H+  H196  1  0.07820134  0.40015137  0.76437147  1
  H+  H197  1  0.58654423  0.88053329  0.83744891  1
  H+  H198  1  0.48846461  0.86537516  0.99335598  1
  H+  H199  1  0.11163785  0.71357903  0.67424675  1
  H+  H200  1  0.64752640  0.32397785  0.25827176  1
  H+  H201  1  0.48386691  0.61703792  0.98939389  1
  H+  H202  1  0.54908618  0.89803430  0.34129543  1
  H+  H203  1  0.88168776  0.79163290  0.86797796  1
  H+  H204  1  0.76873687  0.13508496  0.67412126  1
  H+  H205  1  0.33792447  0.12869175  -0.01257970  1
  H+  H206  1  0.61167951  0.38020352  0.32353245  1
  H+  H207  1  0.12914158  0.27731190  0.32805181  1
  H+  H208  1  0.47480285  0.11448364  0.32933747  1
  H+  H209  1  0.14709229  0.88052263  0.83540403  1
  H+  H210  1  0.35692306  0.72434506  0.82422347  1
  H+  H211  1  0.13491436  0.36249508  0.83955206  1
  H+  H212  1  0.65121544  0.86777521  0.32276645  1
  H+  H213  1  0.09258931  0.60796115  0.82391555  1
  H+  H214  1  0.29995066  0.91646869  0.80135433  1
  H+  H215  1  0.85012025  0.72190453  0.16415320  1
  H+  H216  1  0.63360528  -0.00999246  0.33423146  1
  H+  H217  1  0.09625158  0.23218443  0.67315308  1
  H+  H218  1  0.39762568  0.12484036  0.83172561  1
  H+  H219  1  0.84228063  0.90913746  0.10024974  1
  H+  H220  1  0.23908143  0.87630955  0.17430521  1
  H+  H221  1  0.27273689  0.63013749  0.33882184  1
  H+  H222  1  0.41091348  0.27072296  0.65342259  1
  H+  H223  1  0.88765331  0.26847611  0.65994180  1
  H+  H224  1  0.86406366  -0.02339508  0.15587025  1
  H+  H225  1  0.91239934  1.04444060  0.83616481  1
  H+  H226  1  0.67173418  0.49813136  0.83515842  1
  H+  H227  1  0.86505171  0.62660266  0.34867526  1
  H+  H228  1  0.62953202  0.02101140  0.66152514  1
  H+  H229  1  0.85217572  0.16319322  0.06316285  1
  H+  H230  1  0.35040782  0.21976793  0.34554688  1
  H+  H231  1  0.06515410  0.15753308  0.09462436  1
  H+  H232  1  0.13227217  0.27943844  0.16783356  1
  H+  H233  1  0.78049059  0.14239592  0.15591958  1
  H+  H234  1  0.86990225  0.60738621  0.16830063  1
  H+  H235  1  0.04215724  0.66191066  -0.00709679  1
  H+  H236  1  0.13680749  0.52429214  0.33070527  1
  H+  H237  1  0.61799936  0.36776761  0.17522667  1
  H+  H238  1  0.35847593  0.22295171  0.49402576  1
  H+  H239  1  0.61887894  0.88654873  0.15834998  1
  H+  H240  1  0.51931922  0.88636299  0.66924108  1
  H+  H241  1  0.97486684  0.11618129  0.32742877  1
  H+  H242  1  0.65527613  0.54053930  0.64770035  1
  H+  H243  1  0.80043758  0.66484375  0.68182581  1
  H+  H244  1  -0.03139651  0.11628367  0.50445124  1
  H+  H245  1  0.63947540  0.11268062  0.16238545  1
  H+  H246  1  0.41131406  0.08682355  0.22942192  1
  H+  H247  1  0.73446744  0.12012484  0.50082383  1
  H+  H248  1  0.15280941  0.05780440  0.19069116  1
  H+  H249  1  0.72992212  0.86508759  0.49917089  1
  H+  H250  1  0.28606450  0.13108059  0.82325094  1
  H+  H251  1  0.22332386  0.73947941  0.88604112  1
  H+  H252  1  0.60825518  0.88789107  0.66876789  1
  H+  H253  1  0.58186342  0.76180313  0.85280776  1
  H+  H254  1  0.10644219  0.84127026  0.84559368  1
  H+  H255  1  0.74477289  0.86339898  0.97585774  1
  H+  H256  1  0.62540861  0.40730963  0.54506254  1
  H+  H257  1  0.14068289  0.51729326  0.17419219  1
  H+  H258  1  0.64090333  0.60540443  0.98369830  1
  H+  H259  1  0.25665380  0.38343713  0.49788869  1
  H+  H260  1  0.77928400  0.88801808  0.33660925  1
  H+  H261  1  0.60565663  0.13240200  0.67433187  1
  H+  H262  1  0.61541283  0.27233573  0.16928247  1
  H+  H263  1  0.11339237  0.23945495  0.82613232  1
  H+  H264  1  0.85619819  0.13218190  0.67250960  1
  H+  H265  1  0.39156534  0.03070734  0.50429759  1
  H+  H266  1  0.85780216  0.47024330  0.30151825  1
  H+  H267  1  0.89134879  0.78195386  0.50533641  1
  H+  H268  1  0.35822977  0.38671654  0.16254530  1
  H+  H269  1  0.37194921  0.39442721  0.00890212  1
  H+  H270  1  0.35488127  0.13319321  0.34285920  1
  H+  H271  1  0.96796944  0.85418719  0.17296421  1
  H+  H272  1  0.61506209  0.14005628  0.33387011  1
  H+  H273  1  0.53127746  0.89296433  0.48628609  1
  H+  H274  1  0.38430467  0.02779913  0.33328333  1
  H+  H275  1  0.85144462  0.13267365  0.49605981  1
  H+  H276  1  0.13333265  0.51344409  0.83490869  1
  H+  H277  1  0.73706168  0.85851589  0.83091952  1
  H+  H278  1  -0.04344458  0.60061363  0.84271241  1
  H+  H279  1  0.26811263  0.88462418  0.63835905  1
  H+  H280  1  0.38659002  0.77172880  0.65191002  1
  H+  H281  1  0.23912142  0.61296066  0.17351506  1
  H+  H282  1  0.97207255  0.35474640  0.50085339  1
  H+  H283  1  0.20001716  0.82296193  0.50205415  1
  H+  H284  1  0.26500163  0.38609081  0.34058390  1
  H+  H285  1  0.61254790  0.72792295  0.33758970  1
  H+  H286  1  0.52783977  0.37940190  0.82782231  1
  H+  H287  1  0.12650823  0.98713623  0.67325375  1
  H+  H288  1  0.07576310  0.17322995  0.39987125  1
  H+  H289  1  0.04168778  0.88170407  -0.01215834  1
  H+  H290  1  0.64200738  0.02492033  0.16500840  1
  H+  H291  1  0.90899637  0.08056592  0.59730950  1
  H+  H292  1  0.17630671  0.57938244  0.23956425  1
  H+  H293  1  0.08160025  0.65295712  0.73331415  1
  H+  H294  1  0.06900386  0.90105139  0.39629905  1
  H+  H295  1  0.55607470  0.43371333  0.41043683  1
  H+  H296  1  0.88263165  0.35931634  0.17461542  1
  H+  H297  1  1.00479590  0.14575159  0.82974146  1
  H+  H298  1  0.84563118  0.38230235  0.40191390  1
  H+  H299  1  0.62583332  0.81855075  0.91254252  1
  H+  H300  1  0.82248527  0.67036783  0.06760550  1
  H+  H301  1  0.91895889  0.59686061  0.94433632  1
  H+  H302  1  0.66230104  0.83549388  0.58793567  1
  H+  H303  1  0.66881773  0.08871913  0.93932859  1
  H+  H304  1  0.42568623  0.09689310  0.59435415  1
  H+  H305  1  0.86565110  0.51637148  0.16931147  1
  H+  H306  1  0.18029161  0.89224391  0.97366356  1
  H+  H307  1  0.92775573  0.84805806  0.56176928  1
  H+  H308  1  0.41479090  0.87335005  0.32039234  1
  H+  H309  1  0.88127859  0.94097810  0.76319888  1
  H+  H310  1  0.06526629  0.38852071  0.07091677  1
  H+  H311  1  0.50146477  0.72007850  0.77059595  1
  H+  H312  1  0.56650224  0.66950083  0.71744349  1
  H+  H313  1  0.62498769  0.56145822  0.55434386  1
  H+  H314  1  0.14049214  0.35809787  0.98991560  1
  H+  H315  1  0.58311072  0.16123730  0.08503651  1
  H+  H316  1  0.07782866  0.41850618  0.40420612  1
  H+  H317  1  0.61304735  0.22846796  0.33465780  1
  H+  H318  1  0.83454866  0.91921720  0.43292981  1
  H+  H319  1  0.16498345  0.08682713  0.59809208  1
  H+  H320  1  0.40103566  0.33061044  0.23675442  1
  H+  H321  1  0.61842086  0.40832219  0.04560450  1
  H+  H322  1  0.67637686  0.30469197  0.60334595  1
  H+  H323  1  0.82918481  0.16352451  0.76917397  1
  H+  H324  1  0.58905786  0.16632926  0.42739414  1
  H+  H325  1  0.91468353  0.01535913  0.99385264  1
  H+  H326  1  0.85297511  0.55608046  0.85708692  1
  H+  H327  1  0.69949348  0.55130155  0.89696606  1
  H+  H328  1  0.16061532  0.33675235  0.26839252  1
  H+  H329  1  0.91755222  0.84048941  0.26523281  1
  H+  H330  1  0.18358888  0.10753012  0.89287987  1
  H+  H331  1  0.91702255  0.58772802  0.26025942  1
  H+  H332  1  0.88514886  0.42629694  0.39953980  1
  H+  H333  1  0.34887698  0.92545420  0.10441117  1
  H+  H334  1  0.66022968  0.87043401  0.99614724  1
  H+  H335  1  0.59890839  0.93058998  0.42905103  1
  H+  H336  1  0.41743340  0.59344551  0.56965151  1
  H+  H337  1  0.58951625  0.66598715  0.05945713  1
  H+  H338  1  0.34636265  0.66083841  0.42806089  1
  H+  H339  1  0.82840546  0.16823034  0.39578255  1
  H+  H340  1  0.91679300  0.33439719  0.90205380  1
  H+  H341  1  0.63645209  0.02210989  0.49927707  1
  H+  H342  1  0.30674706  0.92874337  0.42014300  1
  H+  H343  1  0.07835281  0.67606501  0.10341566  1
  H+  H344  1  0.57956141  0.15798356  0.76749374  1
  H+  H345  1  0.15688138  0.74829368  0.92595847  1
  H+  H346  1  0.56995610  0.42349978  0.28552771  1
  H+  H347  1  0.91541711  0.08098169  0.23132580  1
  H+  H348  1  0.14901996  0.51533833  0.65696956  1
  H+  H349  1  0.33563849  0.42094155  0.06624790  1
  H+  H350  1  0.32609206  0.41867474  0.76539075  1
  H+  H351  1  0.42158074  0.34109202  0.93812932  1
  H+  H352  1  0.92438635  0.32854035  0.26336630  1
  H+  H353  1  0.93673497  0.60531453  0.58262575  1
  H+  H354  1  0.07653689  0.17827716  0.76387932  1
  H+  H355  1  0.65968031  0.08204642  0.60313298  1
  H+  H356  1  0.67294382  0.83100417  0.26307479  1
  H+  H357  1  0.91578252  0.32438075  0.56250302  1
  H+  H358  1  0.17453662  0.12283489  0.26818163  1
  H+  H359  1  0.67074537  0.08737026  0.25947748  1
  H+  H360  1  0.85353476  0.69206936  0.74356830  1
  H+  H361  1  0.42339028  0.83281822  0.21774055  1
  H+  H362  1  0.56263467  0.42240705  0.12495015  1
  H+  H363  1  0.36033379  0.87907794  0.49963044  1
  H+  H364  1  0.41161077  0.58113985  0.89929451  1
  H+  H365  1  0.73249964  0.61285296  0.99341048  1
  H+  H366  1  0.15228137  0.60783218  0.50049053  1
  H+  H367  1  0.92636264  0.42756645  0.96947733  1
  H+  H368  1  0.27792394  0.63003122  0.48093508  1
  H+  H369  1  0.20193114  0.10917793  1.00484871  1
  H+  H370  1  0.59506471  0.91895113  0.06240304  1
  H+  H371  1  0.92211041  0.88285494  1.02722032  1
  H+  H372  1  0.84423113  0.67329858  0.44534657  1
  H+  H373  1  0.17228878  0.58687744  0.93445644  1
  H+  H374  1  0.35319037  0.47993062  0.66793037  1
  H+  H375  1  0.42657464  0.82984392  0.55619769  1
  H+  H376  1  0.17140703  0.33635961  0.89882007  1
  H+  H377  1  0.86445916  0.89112064  0.49334911  1
  H+  H378  1  0.64271788  0.87015743  0.49786589  1
  H+  H379  1  0.28479447  0.89308461  0.02119381  1
  H+  H380  1  0.08683397  0.93227511  0.73347210  1
  H+  H381  1  0.32757385  0.16154172  0.43562276  1
  H+  H382  1  0.66614814  0.59042423  0.23416715  1
  H+  H383  1  0.88803021  0.86311436  0.91781188  1
  O2-  O384  1  0.07563606  0.17028978  0.13803084  1
  O2-  O385  1  0.07383908  0.16755086  0.48113200  1
  O2-  O386  1  0.07527387  0.17869348  0.80956632  1
  O2-  O387  1  0.08654766  0.42518763  0.14774554  1
  O2-  O388  1  0.07407538  0.41269408  0.48891048  1
  O2-  O389  1  0.07748286  0.40713181  0.80887291  1
  O2-  O390  1  0.06253791  0.62837355  0.13116110  1
  O2-  O391  1  0.10198102  0.70885748  0.48555765  1
  O2-  O392  1  0.06230921  0.64003174  0.81158039  1
  O2-  O393  1  0.06659876  0.89013036  0.13456663  1
  O2-  O394  1  0.07981669  0.91085775  0.47270497  1
  O2-  O395  1  0.05852336  0.95769467  0.80428752  1
  O2-  O396  1  0.33016047  0.17504207  0.14706897  1
  O2-  O397  1  0.33018740  0.16141844  0.48160960  1
  O2-  O398  1  0.34699848  0.16134470  0.80461404  1
  O2-  O399  1  0.32661741  0.41530785  0.14554927  1
  O2-  O400  1  0.31816612  0.40975546  0.48308249  1
  O2-  O401  1  0.32760813  0.41551094  0.81054661  1
  O2-  O402  1  0.32859631  0.66429324  0.14337241  1
  O2-  O403  1  0.34396821  0.66280491  0.47392239  1
  O2-  O404  1  0.32779239  0.66502196  0.80666834  1
  O2-  O405  1  0.34781671  0.92436948  0.15030179  1
  O2-  O406  1  0.32394371  0.90639346  0.50328860  1
  O2-  O407  1  0.32164336  0.92323656  0.84280972  1
  O2-  O408  1  0.57463641  0.16917056  0.16058073  1
  O2-  O409  1  0.58822839  0.15978926  0.47329674  1
  O2-  O410  1  0.58162882  0.16013913  0.81308305  1
  O2-  O411  1  0.57214264  0.42056203  0.16838771  1
  O2-  O412  1  0.53520434  0.45168097  0.44569457  1
  O2-  O413  1  0.57389344  0.40693783  0.79799063  1
  O2-  O414  1  0.58636354  0.66878246  0.14116251  1
  O2-  O415  1  0.57384753  0.67268774  0.47599639  1
  O2-  O416  1  0.52753811  0.68578600  0.78182642  1
  O2-  O417  1  0.59250537  0.92006868  0.14178154  1
  O2-  O418  1  0.59362639  0.92890701  0.47492130  1
  O2-  O419  1  0.57167379  0.92102979  0.81474068  1
  O2-  O420  1  0.84247655  0.17387665  0.14458544  1
  O2-  O421  1  0.81837825  0.16191525  0.48262386  1
  O2-  O422  1  0.82738233  0.15869647  0.81444326  1
  O2-  O423  1  0.80805510  0.39771439  0.14834554  1
  O2-  O424  1  0.84300083  0.43086749  0.51263753  1
  O2-  O425  1  0.79588226  0.36584196  0.81104504  1
  O2-  O426  1  0.82118375  0.66338421  0.14631115  1
  O2-  O427  1  0.84860435  0.68600913  0.49024022  1
  O2-  O428  1  0.84505353  0.69387435  0.81616533  1
  O2-  O429  1  0.83427034  0.91436862  0.14463493  1
  O2-  O430  1  0.83121089  0.91924718  0.47845471  1
  O2-  O431  1  0.91277993  0.96285926  0.80171431  1
  O2-  O432  1  0.17906716  0.11956726  0.18658953  1
  O2-  O433  1  0.16089269  0.08051236  0.51971253  1
  O2-  O434  1  0.19711876  0.09887784  0.85126423  1
  O2-  O435  1  0.16238293  0.33779577  0.18614470  1
  O2-  O436  1  0.15473244  0.33509174  0.52081490  1
  O2-  O437  1  0.16728350  0.33326727  0.85199040  1
  O2-  O438  1  0.17905823  0.57737825  0.19317202  1
  O2-  O439  1  0.18103218  0.58439174  0.47606200  1
  O2-  O440  1  0.16017033  0.57454554  0.84813514  1
  O2-  O441  1  0.17971799  0.84431405  0.19086350  1
  O2-  O442  1  0.13814248  0.79579171  0.51283303  1
  O2-  O443  1  0.19255105  0.77135332  0.88773645  1
  O2-  O444  1  0.41257846  0.08645601  0.18457125  1
  O2-  O445  1  0.42582424  0.09249302  0.51405280  1
  O2-  O446  1  0.43115450  0.09705602  0.85151705  1
  O2-  O447  1  0.40915655  0.33794730  0.19217837  1
  O2-  O448  1  0.41044501  0.33272785  0.51450680  1
  O2-  O449  1  0.37352805  0.30804579  0.85969684  1
  O2-  O450  1  0.41765047  0.58351525  0.18322008  1
  O2-  O451  1  0.41843794  0.59271993  0.52058223  1
  O2-  O452  1  0.40248520  0.57883525  0.85393309  1
  O2-  O453  1  0.42003504  0.83512325  0.17374930  1
  O2-  O454  1  0.42653594  0.83218824  0.51027470  1
  O2-  O455  1  0.40782015  0.82829489  0.85414057  1
  O2-  O456  1  0.67174540  0.08596720  0.17976208  1
  O2-  O457  1  0.66580158  0.08498336  0.51453341  1
  O2-  O458  1  0.66124206  0.08360314  0.85585997  1
  O2-  O459  1  0.64969593  0.33411849  0.18485244  1
  O2-  O460  1  0.70046132  0.28612520  0.54871518  1
  O2-  O461  1  0.70883930  0.33566075  0.83574242  1
  O2-  O462  1  0.65986611  0.58326115  0.18934664  1
  O2-  O463  1  0.63322483  0.57364820  0.50924258  1
  O2-  O464  1  0.72135812  0.54402760  0.85721654  1
  O2-  O465  1  0.66815183  0.83162560  0.18577912  1
  O2-  O466  1  0.66750520  0.83487785  0.51295039  1
  O2-  O467  1  0.58475685  0.80782854  0.87823785  1
  O2-  O468  1  0.91312201  0.08027249  0.18588706  1
  O2-  O469  1  0.90715311  0.08555171  0.51887233  1
  O2-  O470  1  0.93181007  0.10395761  0.85170308  1
  O2-  O471  1  0.92072981  0.33612741  0.18515402  1
  O2-  O472  1  0.90974972  0.32475911  0.51733857  1
  O2-  O473  1  0.91433137  0.32109934  0.85709850  1
  O2-  O474  1  0.89996653  0.57656679  0.18308174  1
  O2-  O475  1  0.94505262  0.61122503  0.53761742  1
  O2-  O476  1  0.91094322  0.60195500  0.86766326  1
  O2-  O477  1  0.91062551  0.83091951  0.19256034  1
  O2-  O478  1  0.92179692  0.84651945  0.51691332  1
  O2-  O479  1  0.91469541  0.85231046  0.88059998  1
  O2-  O480  1  0.16236453  0.10797990  0.31173496  1
  O2-  O481  1  0.16970321  0.09072610  0.64366991  1
  O2-  O482  1  0.13804717  0.08199742  1.01441958  1
  O2-  O483  1  0.16170514  0.33881853  0.31369018  1
  O2-  O484  1  0.13706544  0.34734080  0.65281653  1
  O2-  O485  1  0.17885209  0.34210130  0.96889533  1
  O2-  O486  1  0.17074454  0.58362946  0.31256381  1
  O2-  O487  1  0.17739957  0.57617463  0.64485484  1
  O2-  O488  1  0.17465611  0.60124618  0.97792584  1
  O2-  O489  1  0.15430904  0.83170223  0.30626096  1
  O2-  O490  1  0.15612254  0.82121098  0.64241122  1
  O2-  O491  1  0.18021733  0.86831862  1.01336784  1
  O2-  O492  1  0.41366517  0.08590088  0.31578286  1
  O2-  O493  1  0.41993280  0.08761031  0.63930937  1
  O2-  O494  1  0.40740910  0.08855261  0.99277583  1
  O2-  O495  1  0.39683689  0.32148397  0.31984509  1
  O2-  O496  1  0.45563254  0.32525194  0.63314402  1
  O2-  O497  1  0.42445026  0.34097079  0.98291690  1
  O2-  O498  1  0.41983763  0.57733056  0.30896500  1
  O2-  O499  1  0.41511171  0.58917628  0.63390819  1
  O2-  O500  1  0.42217649  0.58758165  0.97590774  1
  O2-  O501  1  0.43016660  0.83828018  0.34547098  1
  O2-  O502  1  0.41980369  0.83046293  0.63352352  1
  O2-  O503  1  0.42596167  0.83450896  0.98182495  1
  O2-  O504  1  0.66938623  0.08702018  0.30512003  1
  O2-  O505  1  0.65986807  0.08290287  0.64786415  1
  O2-  O506  1  0.67555003  0.08640544  0.98391869  1
  O2-  O507  1  0.65565874  0.32650757  0.30427836  1
  O2-  O508  1  0.66545435  0.31947532  0.64932187  1
  O2-  O509  1  0.75517227  0.41762491  0.95227983  1
  O2-  O510  1  0.67569602  0.59545794  0.31587044  1
  O2-  O511  1  0.60785171  0.54437249  0.62939342  1
  O2-  O512  1  0.67367182  0.57605359  0.97355758  1
  O2-  O513  1  0.67451152  0.83084669  0.30893481  1
  O2-  O514  1  0.66241697  0.83544174  0.63395314  1
  O2-  O515  1  0.67948399  0.83307933  0.97670037  1
  O2-  O516  1  0.91447384  0.08215799  0.31106427  1
  O2-  O517  1  0.91001226  0.08059392  0.64304636  1
  O2-  O518  1  0.95615549  0.07475870  1.00767633  1
  O2-  O519  1  0.91854533  0.32673934  0.30866733  1
  O2-  O520  1  0.92292348  0.32818362  0.64347978  1
  O2-  O521  1  0.91914055  0.37032382  0.97253694  1
  O2-  O522  1  0.91815639  0.58166434  0.30555221  1
  O2-  O523  1  0.91534896  0.57670279  0.65907103  1
  O2-  O524  1  0.93010234  0.60268296  0.98910068  1
  O2-  O525  1  0.92008282  0.84344569  0.31140984  1
  O2-  O526  1  0.93835264  0.84810217  0.64361440  1
  O2-  O527  1  0.86178144  0.87026860  1.03110523  1
  O2-  O528  1  0.11106016  0.11562887  -0.03667899  1
  O2-  O529  1  0.07546570  0.17560509  0.35464350  1
  O2-  O530  1  0.07538805  0.17254468  0.68695844  1
  O2-  O531  1  0.04788735  0.36043483  0.03014214  1
  O2-  O532  1  0.08151254  0.42250725  0.35918742  1
  O2-  O533  1  0.09805116  0.39626703  0.67891946  1
  O2-  O534  1  0.10576568  0.69904283  -0.00930046  1
  O2-  O535  1  0.09342817  0.67217228  0.35320660  1
  O2-  O536  1  0.08346551  0.65275646  0.68788975  1
  O2-  O537  1  0.03226412  0.91204361  0.02086433  1
  O2-  O538  1  0.06365402  0.89875501  0.35079383  1
  O2-  O539  1  0.09671487  0.92692829  0.68937019  1
  O2-  O540  1  0.30182467  0.15580344  -0.01992086  1
  O2-  O541  1  0.32247617  0.15927687  0.36114471  1
  O2-  O542  1  0.33876705  0.16990011  0.68040118  1
  O2-  O543  1  0.34072174  0.42509822  0.02090709  1
  O2-  O544  1  0.32551086  0.41484642  0.35653244  1
  O2-  O545  1  0.32119814  0.42085120  0.68442369  1
  O2-  O546  1  0.33989380  0.66804326  0.02244974  1
  O2-  O547  1  0.33443922  0.65721385  0.35271483  1
  O2-  O548  1  0.33846527  0.66741755  0.68162825  1
  O2-  O549  1  0.34758482  0.92068208  0.02995046  1
  O2-  O550  1  0.31039409  0.92295990  0.37578499  1
  O2-  O551  1  0.32928102  0.91424244  0.62456306  1
  O2-  O552  1  0.58495622  0.16020942  0.03931584  1
  O2-  O553  1  0.58471381  0.16831608  0.35223035  1
  O2-  O554  1  0.57696470  0.16375019  0.69084042  1
  O2-  O555  1  0.60184431  0.41425135  0.00451493  1
  O2-  O556  1  0.57906294  0.41353115  0.32800204  1
  O2-  O557  1  0.46393100  0.39131027  0.67742315  1
  O2-  O558  1  0.58864510  0.66521380  0.01412017  1
  O2-  O559  1  0.58147525  0.66934031  0.35662081  1
  O2-  O560  1  0.57950139  0.66573785  0.67330986  1
  O2-  O561  1  0.59493246  0.91774184  0.01707828  1
  O2-  O562  1  0.60967179  0.93134247  0.35395878  1
  O2-  O563  1  0.57911389  0.91772196  0.68592949  1
  O2-  O564  1  0.86057489  0.15825365  0.01908160  1
  O2-  O565  1  0.83042165  0.16692665  0.35097170  1
  O2-  O566  1  0.82925418  0.16502583  0.68876579  1
  O2-  O567  1  0.78997523  0.38562394  0.08269660  1
  O2-  O568  1  0.82174990  0.40814162  0.29170824  1
  O2-  O569  1  0.82309354  0.40560746  0.68813945  1
  O2-  O570  1  0.82451732  0.67126034  0.02230386  1
  O2-  O571  1  0.83743922  0.65381394  0.37155314  1
  O2-  O572  1  0.85877581  0.68911977  0.69729293  1
  O2-  O573  1  0.84979288  0.90305778  -0.02752892  1
  O2-  O574  1  0.83834919  0.92023888  0.35439491  1
  O2-  O575  1  0.83934525  0.90402737  0.68484196  1
