# generated using pymatgen
data_H2O
_symmetry_space_group_name_H-M   'P 1'
_cell_length_a   17.98749536
_cell_length_b   17.98903174
_cell_length_c   22.00286471
_cell_angle_alpha   90.00483936
_cell_angle_beta   90.00950111
_cell_angle_gamma   119.98475002
_symmetry_Int_Tables_number   1
_chemical_formula_structural   H2O
_chemical_formula_sum   'H384 O192'
_cell_volume   6166.73159138
_cell_formula_units_Z   192
loop_
 _symmetry_equiv_pos_site_id
 _symmetry_equiv_pos_as_xyz
  1  'x, y, z'
loop_
 _atom_type_symbol
 _atom_type_oxidation_number
  H+  1.0
  O2-  -2.0
loop_
 _atom_site_type_symbol
 _atom_site_label
 _atom_site_symmetry_multiplicity
 _atom_site_fract_x
 _atom_site_fract_y
 _atom_site_fract_z
 _atom_site_occupancy
  H+  H0  1  0.39367469  0.52249923  0.15536094  1
  H+  H1  1  0.97211884  0.85263122  0.50243109  1
  H+  H2  1  0.22687918  0.61510018  0.17855514  1
  H+  H3  1  0.56557416  0.16158846  0.19805774  1
  H+  H4  1  0.21811351  0.03563930  0.55384720  1
  H+  H5  1  0.73573033  0.36758376  0.32360204  1
  H+  H6  1  0.63076943  0.36600974  0.84006779  1
  H+  H7  1  0.10357721  0.97766969  0.01163673  1
  H+  H8  1  0.53524867  0.42715700  0.26567122  1
  H+  H9  1  0.62814654  0.52680098  0.49753560  1
  H+  H10  1  0.78449223  0.63106666  -0.00839247  1
  H+  H11  1  0.87183798  0.47722302  0.33619057  1
  H+  H12  1  0.89830283  0.28888915  0.65263796  1
  H+  H13  1  0.49228660  0.47744485  0.29940963  1
  H+  H14  1  0.86955442  0.97201951  0.00723147  1
  H+  H15  1  0.60899702  0.77808742  0.66155236  1
  H+  H16  1  0.90012911  0.24948302  0.46531819  1
  H+  H17  1  0.74723631  0.19122366  0.51322909  1
  H+  H18  1  0.21998958  0.09375705  0.32962339  1
  H+  H19  1  0.73000399  0.10255005  0.16013007  1
  H+  H20  1  0.84740178  0.73424159  0.67659874  1
  H+  H21  1  0.28610937  0.71712555  0.38206178  1
  H+  H22  1  0.41913293  0.58238800  0.89260248  1
  H+  H23  1  0.35517878  0.36597972  0.15162147  1
  H+  H24  1  0.76917249  0.13682213  0.65991553  1
  H+  H25  1  0.36939852  0.48294051  0.81909400  1
  H+  H26  1  0.13117675  0.39199758  0.15200398  1
  H+  H27  1  0.57975680  0.08544387  0.51818055  1
  H+  H28  1  0.13801764  0.62928722  0.99065329  1
  H+  H29  1  0.39784726  0.86220942  0.66396567  1
  H+  H30  1  0.88448026  0.75987694  0.50406051  1
  H+  H31  1  0.86780809  0.39246087  0.67493187  1
  H+  H32  1  0.38630454  0.11559548  0.66250387  1
  H+  H33  1  0.60481192  0.72205170  0.32504356  1
  H+  H34  1  0.32858121  0.13046916  0.01305565  1
  H+  H35  1  0.99113136  0.39950677  0.50562517  1
  H+  H36  1  0.77420693  0.38822045  0.00315849  1
  H+  H37  1  0.36553231  0.62197264  0.49406104  1
  H+  H38  1  0.89948908  0.53127833  0.83651554  1
  H+  H39  1  0.64288284  0.28411662  0.32589059  1
  H+  H40  1  0.59539764  0.88434173  0.15414841  1
  H+  H41  1  0.12768115  0.48825333  0.64609448  1
  H+  H42  1  0.11338986  0.97967737  0.16024825  1
  H+  H43  1  0.34494267  0.22449240  1.01682714  1
  H+  H44  1  0.23690873  0.87078843  0.32131908  1
  H+  H45  1  0.13400030  0.53467634  0.99138978  1
  H+  H46  1  0.23101146  0.39233606  0.52183149  1
  H+  H47  1  0.22730912  0.86962552  0.50174729  1
  H+  H48  1  0.17733896  0.42019147  0.56608265  1
  H+  H49  1  0.72164231  0.86250447  0.84413140  1
  H+  H50  1  0.17369387  0.15747180  0.47331076  1
  H+  H51  1  0.77519006  0.63036478  0.49295144  1
  H+  H52  1  0.22744096  0.36219875  0.82575138  1
  H+  H53  1  0.77156063  0.40409293  0.15819516  1
  H+  H54  1  0.62691354  0.52659176  0.65950643  1
  H+  H55  1  0.72547693  0.60744321  0.17921838  1
  H+  H56  1  0.34870564  0.19271755  0.34360434  1
  H+  H57  1  0.82082417  0.14982231  0.71965175  1
  H+  H58  1  0.45006658  0.27729056  0.30341464  1
  H+  H59  1  0.85826012  0.62898890  0.17001621  1
  H+  H60  1  0.11101552  0.62463969  0.15267889  1
  H+  H61  1  0.58713195  0.83842604  -0.01483112  1
  H+  H62  1  0.77752291  0.39920014  0.82865591  1
  H+  H63  1  0.24211142  0.62701549  0.84180667  1
  H+  H64  1  0.38579519  0.52500903  0.65923724  1
  H+  H65  1  0.87040791  0.40560347  0.83429872  1
  H+  H66  1  0.38886309  0.27096365  0.49888501  1
  H+  H67  1  0.10542947  0.39213961  0.49270675  1
  H+  H68  1  0.28241474  0.38519529  0.66995686  1
  H+  H69  1  0.11351054  0.72510390  0.49153481  1
  H+  H70  1  0.14244696  0.27023072  0.67663220  1
  H+  H71  1  0.61405504  0.87790883  0.34479308  1
  H+  H72  1  0.11003193  0.96665235  0.33709714  1
  H+  H73  1  0.63242109  0.27244566  -0.00478096  1
  H+  H74  1  0.13290196  0.85672207  0.50526203  1
  H+  H75  1  0.36865891  0.22593416  0.66961291  1
  H+  H76  1  0.88287644  0.85741456  0.65192343  1
  H+  H77  1  0.88467865  0.12308210  0.66182429  1
  H+  H78  1  0.04398324  0.21265437  0.48471758  1
  H+  H79  1  0.32586434  0.30159833  0.88666705  1
  H+  H80  1  0.99263211  0.61046101  0.65253670  1
  H+  H81  1  0.61836210  0.39941122  0.67539974  1
  H+  H82  1  0.12721804  0.62557948  0.66864504  1
  H+  H83  1  0.14315790  0.86987155  0.32505739  1
  H+  H84  1  0.36496988  0.87870336  0.33165462  1
  H+  H85  1  0.03074649  0.47736630  0.04749295  1
  H+  H86  1  0.91110180  0.23708803  0.49504293  1
  H+  H87  1  0.14098138  0.26991413  0.16894808  1
  H+  H88  1  0.54732633  0.41843906  0.37051341  1
  H+  H89  1  0.62163480  0.63593265  0.16056607  1
  H+  H90  1  0.52745058  0.12709957  0.80906191  1
  H+  H91  1  0.14882149  0.36915148  0.97995234  1
  H+  H92  1  0.79052263  0.57069087  0.79815445  1
  H+  H93  1  0.45918432  0.11582861  0.15698343  1
  H+  H94  1  0.64681850  0.27240649  0.51099683  1
  H+  H95  1  0.39598041  0.49948716  0.32530242  1
  H+  H96  1  0.35368185  0.71301170  0.67437603  1
  H+  H97  1  0.86799057  0.96705963  0.82882946  1
  H+  H98  1  0.64312333  0.52414735  0.98840737  1
  H+  H99  1  0.59537440  0.71337115  -0.00066821  1
  H+  H100  1  0.99300579  0.37661143  0.64607691  1
  H+  H101  1  0.11632539  0.13153718  0.33039997  1
  H+  H102  1  0.51418113  0.64168313  0.66949126  1
  H+  H103  1  0.60955365  0.73346800  0.82188218  1
  H+  H104  1  0.50891795  0.13642466  0.49832984  1
  H+  H105  1  0.88113905  0.76399557  0.84451661  1
  H+  H106  1  0.84830907  0.07868760  0.80790302  1
  H+  H107  1  0.62329051  0.39609261  0.00629274  1
  H+  H108  1  0.02039552  0.88657345  0.67154507  1
  H+  H109  1  0.41963508  0.33043514  0.55948978  1
  H+  H110  1  0.23092444  0.35676012  0.17002085  1
  H+  H111  1  0.04031714  0.64093415  0.82414917  1
  H+  H112  1  0.59924409  0.38061059  0.18935516  1
  H+  H113  1  0.90821097  0.62313595  0.83879977  1
  H+  H114  1  0.57777619  0.67374976  0.72691301  1
  H+  H115  1  0.85799507  0.86193354  0.48801431  1
  H+  H116  1  0.33756443  0.36560275  0.35733564  1
  H+  H117  1  0.23147553  0.86845470  0.83880841  1
  H+  H118  1  0.73038489  0.12649969  0.84919848  1
  H+  H119  1  0.89899330  0.52776612  0.65556485  1
  H+  H120  1  0.15164866  0.06601704  0.56983959  1
  H+  H121  1  0.86070002  0.07495769  0.48101232  1
  H+  H122  1  0.78604876  0.14080381  0.32690993  1
  H+  H123  1  0.98873210  0.60389104  0.32593746  1
  H+  H124  1  0.22949507  0.60950383  0.50163948  1
  H+  H125  1  0.25914636  0.13064360  0.82039389  1
  H+  H126  1  0.89851512  0.60753433  0.32673566  1
  H+  H127  1  0.08431287  0.91641814  0.06796394  1
  H+  H128  1  0.89313664  0.76257999  0.32523266  1
  H+  H129  1  0.13065424  0.48139160  0.16026129  1
  H+  H130  1  1.02117120  0.87916058  0.82669359  1
  H+  H131  1  0.86326805  0.21428649  0.84987911  1
  H+  H132  1  0.62493981  0.64829167  0.33750983  1
  H+  H133  1  0.98523230  0.09922917  0.99054689  1
  H+  H134  1  0.97490434  0.04494653  0.54764376  1
  H+  H135  1  0.36225256  0.99605669  0.48972450  1
  H+  H136  1  0.13805952  0.87667587  0.17631404  1
  H+  H137  1  0.16131227  0.76523996  0.65539559  1
  H+  H138  1  0.13608379  0.52714467  0.50000672  1
  H+  H139  1  0.85560436  0.10899404  0.14946278  1
  H+  H140  1  0.86742938  0.88241679  0.00827647  1
  H+  H141  1  0.41348147  0.28671785  0.30239893  1
  H+  H142  1  0.64497831  0.61451400  0.98885561  1
  H+  H143  1  0.77666128  0.39082265  0.49677730  1
  H+  H144  1  0.65073185  0.08868544  0.94308405  1
  H+  H145  1  0.62460678  0.13674833  0.16165743  1
  H+  H146  1  0.89169584  0.53109905  0.17073669  1
  H+  H147  1  0.39293318  0.36456774  0.65203058  1
  H+  H148  1  0.40114484  0.61362961  0.98768221  1
  H+  H149  1  0.36168964  0.73278187  0.16048670  1
  H+  H150  1  0.39170572  0.51742664  0.51257023  1
  H+  H151  1  0.35959303  0.89357377  0.15654068  1
  H+  H152  1  0.37325234  1.02030978  -0.00081032  1
  H+  H153  1  0.53574852  0.39596953  0.01204639  1
  H+  H154  1  0.76847215  0.12857792  1.00065469  1
  H+  H155  1  0.37079271  0.89506884  0.82761268  1
  H+  H156  1  0.27285422  0.88395115  0.00179509  1
  H+  H157  1  0.36565960  0.39156567  0.82019612  1
  H+  H158  1  0.13524887  0.26880039  0.32104278  1
  H+  H159  1  0.63503074  0.27993989  0.83244592  1
  H+  H160  1  0.97939221  0.86093489  0.99589782  1
  H+  H161  1  0.02480010  0.87324578  0.33634347  1
  H+  H162  1  0.13799425  0.77514773  -0.00707197  1
  H+  H163  1  0.12691236  0.48370783  0.86256459  1
  H+  H164  1  0.92384790  0.58459261  0.56574763  1
  H+  H165  1  0.86687879  0.47554145  0.00182682  1
  H+  H166  1  0.85603491  0.94717936  0.49763550  1
  H+  H167  1  0.37032062  0.97019217  0.33186759  1
  H+  H168  1  0.86333593  0.35579508  0.17317151  1
  H+  H169  1  0.53249014  0.89977194  0.82480264  1
  H+  H170  1  0.61721502  0.98904660  0.83528863  1
  H+  H171  1  0.89749733  0.61105080  0.98797126  1
  H+  H172  1  0.75214696  0.65013496  0.67670018  1
  H+  H173  1  0.62408737  0.61442639  0.65295098  1
  H+  H174  1  0.45750714  0.11334254  0.00390078  1
  H+  H175  1  0.89265934  0.10588293  0.31710107  1
  H+  H176  1  0.59737925  0.13591857  0.01355069  1
  H+  H177  1  0.36611885  0.64204970  0.82289881  1
  H+  H178  1  0.83954079  0.91204184  0.09286691  1
  H+  H179  1  0.40639081  0.08777371  0.91464062  1
  H+  H180  1  0.52027994  0.62858905  0.50741366  1
  H+  H181  1  0.40915766  0.80876046  0.56940104  1
  H+  H182  1  0.87247769  0.71944517  -0.00275305  1
  H+  H183  1  0.36891246  0.98285330  0.82953404  1
  H+  H184  1  0.47385247  0.87371977  0.16123756  1
  H+  H185  1  0.48127050  0.36521983  0.65466715  1
  H+  H186  1  0.89651091  0.01813850  0.32260568  1
  H+  H187  1  0.61778656  0.05227384  0.68001731  1
  H+  H188  1  0.09043969  0.16685680  0.87903090  1
  H+  H189  1  0.48775553  0.58525691  0.31931619  1
  H+  H190  1  0.60820640  0.64320281  0.82347533  1
  H+  H191  1  0.88980844  0.40409938  0.50572586  1
  H+  H192  1  0.89579643  0.01629577  0.16559986  1
  H+  H193  1  0.64508004  0.12963529  0.83688890  1
  H+  H194  1  0.63626854  0.28953769  0.66129046  1
  H+  H195  1  0.86563672  0.63132881  0.49547359  1
  H+  H196  1  0.73827396  0.85803167  0.68268751  1
  H+  H197  1  0.60284130  0.48123797  0.83251173  1
  H+  H198  1  0.13728365  0.27052202  0.83569445  1
  H+  H199  1  0.62352137  1.02573598  0.00205817  1
  H+  H200  1  0.63341991  1.02339989  0.16741262  1
  H+  H201  1  0.01795727  0.37959722  0.33873482  1
  H+  H202  1  0.64838768  0.05263359  0.31029719  1
  H+  H203  1  0.25864296  0.62148617  0.67099614  1
  H+  H204  1  1.02908160  0.13110576  0.15444623  1
  H+  H205  1  0.87632347  0.35411547  1.00340647  1
  H+  H206  1  0.62547184  0.93674800  0.66732086  1
  H+  H207  1  1.02135906  0.14567053  0.69778415  1
  H+  H208  1  0.73024321  0.37373994  0.66421004  1
  H+  H209  1  0.39169011  0.61079734  0.15704624  1
  H+  H210  1  0.72763414  0.84176586  0.50094118  1
  H+  H211  1  0.59066899  0.95256111  0.50785641  1
  H+  H212  1  0.36504293  0.71094397  0.49810034  1
  H+  H213  1  0.02463729  0.88803493  0.16059360  1
  H+  H214  1  0.11176007  0.88282831  0.82460084  1
  H+  H215  1  0.60817860  0.74709533  0.17630932  1
  H+  H216  1  0.11872616  0.39213398  0.65812221  1
  H+  H217  1  0.75072160  0.02566239  0.78497250  1
  H+  H218  1  0.89216881  0.27387967  0.32782114  1
  H+  H219  1  0.38338926  0.09783091  0.32959579  1
  H+  H220  1  0.58100179  0.94015303  0.36524709  1
  H+  H221  1  0.89524426  0.85317115  0.32532109  1
  H+  H222  1  0.47669121  0.61810762  0.83248432  1
  H+  H223  1  0.64242052  0.84821837  0.51491247  1
  H+  H224  1  0.51674411  0.39036407  0.83226253  1
  H+  H225  1  0.20825741  0.60597741  0.33330325  1
  H+  H226  1  0.28931081  0.88385627  0.66725359  1
  H+  H227  1  0.39254883  0.78090229  0.83365225  1
  H+  H228  1  0.27960074  0.38718568  0.00105996  1
  H+  H229  1  0.34753116  0.42204350  0.72483044  1
  H+  H230  1  0.47204066  0.83930730  0.32101866  1
  H+  H231  1  0.83007958  0.42704556  0.09818333  1
  H+  H232  1  0.67541082  0.34190627  0.23563294  1
  H+  H233  1  0.47436521  0.83340201  0.51497378  1
  H+  H234  1  0.03161971  0.63616167  0.00120666  1
  H+  H235  1  0.39805834  0.74635488  1.00565834  1
  H+  H236  1  0.49655149  0.39879415  0.47726610  1
  H+  H237  1  0.58687434  0.17117896  0.75225147  1
  H+  H238  1  0.86163373  0.23087885  0.81886997  1
  H+  H239  1  0.13364406  1.02014842  0.82850192  1
  H+  H240  1  0.51234157  0.14101816  0.66376956  1
  H+  H241  1  0.60869028  0.16074050  0.64856204  1
  H+  H242  1  0.12275452  0.51496053  0.32982381  1
  H+  H243  1  0.25684407  0.37603911  0.34477793  1
  H+  H244  1  0.86374851  0.48952614  0.49474858  1
  H+  H245  1  0.87664155  0.04079029  0.69151000  1
  H+  H246  1  0.89009069  0.85824466  0.17042432  1
  H+  H247  1  0.53027216  0.63089541  0.14648272  1
  H+  H248  1  0.41827075  0.09402255  0.55864883  1
  H+  H249  1  0.67691585  0.33926193  0.56607040  1
  H+  H250  1  0.77859455  0.88236138  0.15201191  1
  H+  H251  1  0.11694335  0.39070365  0.85884699  1
  H+  H252  1  0.12691961  0.73147160  0.82365778  1
  H+  H253  1  0.28935466  0.14116766  0.49324725  1
  H+  H254  1  0.10945534  0.96569776  0.49404165  1
  H+  H255  1  0.47743108  0.84376007  0.66216076  1
  H+  H256  1  0.97877909  0.61394831  0.50306517  1
  H+  H257  1  0.35477135  0.98079957  0.15409690  1
  H+  H258  1  0.35172039  0.37977680  0.50007756  1
  H+  H259  1  0.63384276  0.53998195  0.32331120  1
  H+  H260  1  0.74940747  0.16324193  0.53786969  1
  H+  H261  1  0.61581843  0.63095374  0.50291085  1
  H+  H262  1  0.11486362  0.63722558  0.49451150  1
  H+  H263  1  0.78849440  0.88584554  0.33565933  1
  H+  H264  1  0.35915005  0.25516642  0.84302098  1
  H+  H265  1  0.66380108  0.32885364  0.93400776  1
  H+  H266  1  0.98581399  0.10903840  0.83865958  1
  H+  H267  1  0.46827156  0.15730236  0.86867059  1
  H+  H268  1  0.98639737  0.39353142  0.86463324  1
  H+  H269  1  0.22833391  0.87511570  0.17316017  1
  H+  H270  1  0.13577277  0.11360133  0.17359759  1
  H+  H271  1  0.63736626  0.87199385  0.83579930  1
  H+  H272  1  0.39362304  0.36525883  1.00201672  1
  H+  H273  1  0.52770169  0.14038897  0.33991373  1
  H+  H274  1  1.01786470  0.18025596  0.50869372  1
  H+  H275  1  0.72486741  0.93945795  0.28138784  1
  H+  H276  1  0.61972382  0.72988402  0.50598436  1
  H+  H277  1  0.85775888  0.21587798  0.00326176  1
  H+  H278  1  0.88002100  0.85197579  0.84154661  1
  H+  H279  1  0.39179678  1.02687470  0.66015307  1
  H+  H280  1  0.62195768  0.15439039  0.33616772  1
  H+  H281  1  0.81396219  0.65673782  0.76314040  1
  H+  H282  1  0.85388359  0.71453909  0.16577393  1
  H+  H283  1  0.78298199  0.63535042  0.34021523  1
  H+  H284  1  0.16133594  0.57998361  0.23527338  1
  H+  H285  1  0.49005623  0.88072838  0.98911443  1
  H+  H286  1  0.13807725  0.86478807  0.99321127  1
  H+  H287  1  0.10847037  0.38050852  0.33885495  1
  H+  H288  1  0.66129127  0.57581638  0.56303891  1
  H+  H289  1  0.61691681  0.80913122  0.92561574  1
  H+  H290  1  0.31828728  0.41140668  0.44460809  1
  H+  H291  1  0.89533819  0.32428536  0.22784587  1
  H+  H292  1  0.92015190  0.83163604  0.93647352  1
  H+  H293  1  0.65584912  0.94365751  0.02280052  1
  H+  H294  1  0.19625495  0.12862752  1.01203350  1
  H+  H295  1  0.33358604  0.40758455  0.09619590  1
  H+  H296  1  0.57993341  0.42259464  0.73386420  1
  H+  H297  1  0.91022042  0.35150467  0.91080378  1
  H+  H298  1  0.42405606  0.83972070  0.89365290  1
  H+  H299  1  0.67942408  0.59918516  0.26907624  1
  H+  H300  1  0.18530768  0.82765914  0.59843206  1
  H+  H301  1  0.18159789  0.34097802  0.92321192  1
  H+  H302  1  0.91396700  0.82655582  0.59405097  1
  H+  H303  1  0.38122855  0.13784468  0.49374161  1
  H+  H304  1  0.83503562  0.13765362  0.38669994  1
  H+  H305  1  0.71148580  0.60979963  0.83838577  1
  H+  H306  1  0.22745315  0.12183729  0.17920066  1
  H+  H307  1  0.08740718  0.43995624  0.07291376  1
  H+  H308  1  0.65782641  0.58377410  0.90031991  1
  H+  H309  1  0.16848866  0.32332964  0.61335240  1
  H+  H310  1  0.13291893  0.10997663  0.83176628  1
  H+  H311  1  0.10362874  0.45413060  0.75564908  1
  H+  H312  1  0.39699704  0.87211028  0.99051850  1
  H+  H313  1  0.54508102  0.76551004  0.21444243  1
  H+  H314  1  0.41622560  0.08205853  0.26597718  1
  H+  H315  1  0.84154625  0.90816639  0.39742758  1
  H+  H316  1  0.07881017  0.90995694  0.43193826  1
  H+  H317  1  0.15062356  0.62535541  0.84023774  1
  H+  H318  1  0.33388106  0.92891165  0.43431916  1
  H+  H319  1  0.02477596  0.63040521  0.15053724  1
  H+  H320  1  0.41804630  0.58083656  0.57135138  1
  H+  H321  1  0.59213864  0.66349191  0.06135510  1
  H+  H322  1  0.33546563  0.67140593  0.10418166  1
  H+  H323  1  0.08527298  0.16966252  0.75363631  1
  H+  H324  1  0.50636262  0.36512018  0.17233319  1
  H+  H325  1  0.57252097  0.17205919  0.07133624  1
  H+  H326  1  0.88938728  0.36228869  0.33015490  1
  H+  H327  1  0.77119332  0.79580038  0.70519675  1
  H+  H328  1  0.44751900  0.71662804  0.04728319  1
  H+  H329  1  0.35089636  0.13578188  0.82953547  1
  H+  H330  1  0.96547680  0.35683975  1.00245816  1
  H+  H331  1  0.08037011  0.92555747  0.72898577  1
  H+  H332  1  0.38155331  0.12815490  0.17596641  1
  H+  H333  1  0.62981629  0.52230115  0.18729463  1
  H+  H334  1  0.36913658  0.47525432  0.00352640  1
  H+  H335  1  0.92810457  0.58593171  0.23151840  1
  H+  H336  1  0.07999009  0.64370393  0.39233416  1
  H+  H337  1  0.89940975  0.10812005  0.98960471  1
  H+  H338  1  0.66280246  0.84540656  0.25875027  1
  H+  H339  1  0.84191666  0.66303909  0.39939027  1
  H+  H340  1  0.09662073  0.66158379  0.72541081  1
  H+  H341  1  0.92516154  0.07594655  0.22482943  1
  H+  H342  1  0.17572720  0.85097639  0.25098358  1
  H+  H343  1  0.90579334  0.04806094  0.58775802  1
  H+  H344  1  0.37852874  0.76044948  0.31805369  1
  H+  H345  1  0.58009190  0.89250543  0.45034874  1
  H+  H346  1  0.08754918  0.01313022  0.64969044  1
  H+  H347  1  0.32599883  0.66451976  0.40595650  1
  H+  H348  1  0.92107840  0.82823688  0.22975818  1
  H+  H349  1  0.16819239  0.33262085  0.26402168  1
  H+  H350  1  0.48260879  0.60251515  0.98755826  1
  H+  H351  1  0.82295979  0.13355844  0.08800005  1
  H+  H352  1  0.64763992  0.28811828  0.17288001  1
  H+  H353  1  0.51019666  -0.00166998  0.54920001  1
  H+  H354  1  0.68187413  0.10418384  0.24967897  1
  H+  H355  1  0.32977920  0.91415315  0.06215248  1
  H+  H356  1  0.17551234  0.59729364  0.92636840  1
  H+  H357  1  0.18036577  0.59121501  0.60324368  1
  H+  H358  1  0.32986800  0.14606519  0.40757111  1
  H+  H359  1  0.42208623  0.32768971  0.94737721  1
  H+  H360  1  0.78724778  0.09625782  0.48353649  1
  H+  H361  1  0.14703606  0.19165551  0.41779117  1
  H+  H362  1  0.83726192  0.42233014  0.73420166  1
  H+  H363  1  0.92993299  0.37115543  0.57197828  1
  H+  H364  1  0.93326568  0.58199934  0.93178015  1
  H+  H365  1  0.83838350  0.42070980  0.39698990  1
  H+  H366  1  0.91628218  0.07042244  0.89308848  1
  H+  H367  1  0.58223652  0.16283557  0.44364560  1
  H+  H368  1  0.16593662  0.07387010  0.26687529  1
  H+  H369  1  0.82107774  0.89646545  0.77476549  1
  H+  H370  1  0.62305524  0.04429029  0.60796437  1
  H+  H371  1  0.05542014  0.43189246  0.75559867  1
  H+  H372  1  0.10359808  0.10823476  0.65050618  1
  H+  H373  1  0.09327677  0.15245022  0.09743285  1
  H+  H374  1  0.41758294  0.83850459  0.22256737  1
  H+  H375  1  0.58314941  0.92517482  0.08909182  1
  H+  H376  1  0.34390356  0.92148516  0.72894294  1
  H+  H377  1  0.33540265  0.16833932  0.72944188  1
  H+  H378  1  0.37652117  0.61078976  0.66204088  1
  H+  H379  1  0.02859931  0.13304400  0.33252585  1
  H+  H380  1  0.07450867  0.41303649  0.42814476  1
  H+  H381  1  0.08895049  0.66068953  0.06385606  1
  H+  H382  1  0.17025313  0.83533450  0.89731458  1
  H+  H383  1  0.33000910  0.66541485  0.76337683  1
  O2-  O384  1  0.09129629  0.16177640  0.14256513  1
  O2-  O385  1  0.18977492  0.20983060  0.45073481  1
  O2-  O386  1  0.08086911  0.16579453  0.83521939  1
  O2-  O387  1  0.10830238  0.42794170  0.13538590  1
  O2-  O388  1  0.07391010  0.41915515  0.47422764  1
  O2-  O389  1  0.09034731  0.42341004  0.87521768  1
  O2-  O390  1  0.08102817  0.64985811  0.12973710  1
  O2-  O391  1  0.08078264  0.66339747  0.47895345  1
  O2-  O392  1  0.10096111  0.67057081  0.80962075  1
  O2-  O393  1  0.08572937  0.91912789  0.14541288  1
  O2-  O394  1  0.07309199  0.90683686  0.47719350  1
  O2-  O395  1  0.08005966  0.91153617  0.80972812  1
  O2-  O396  1  0.34707082  0.20313852  0.18104863  1
  O2-  O397  1  0.34667868  0.16970641  0.47449689  1
  O2-  O398  1  0.32476687  0.16688957  0.81038104  1
  O2-  O399  1  0.33324090  0.40492264  0.14183005  1
  O2-  O400  1  0.32676726  0.41704626  0.48969024  1
  O2-  O401  1  0.34015859  0.42347196  0.80115811  1
  O2-  O402  1  0.33242628  0.67066053  0.14906585  1
  O2-  O403  1  0.33476014  0.65133330  0.47863373  1
  O2-  O404  1  0.33663225  0.67371726  0.80936272  1
  O2-  O405  1  0.32577820  0.92001738  0.14044371  1
  O2-  O406  1  0.32670597  0.93361326  0.47805964  1
  O2-  O407  1  0.33879662  0.92433250  0.81305735  1
  O2-  O408  1  0.58916578  0.16700949  0.15730030  1
  O2-  O409  1  0.57705119  0.16059923  0.48840342  1
  O2-  O410  1  0.58668949  0.16867338  0.79801636  1
  O2-  O411  1  0.56049771  0.40574387  0.19243005  1
  O2-  O412  1  0.54570627  0.44884895  0.45476881  1
  O2-  O413  1  0.57576234  0.41988503  0.81714289  1
  O2-  O414  1  0.59478256  0.66806094  0.14108020  1
  O2-  O415  1  0.58288326  0.66205639  0.49260489  1
  O2-  O416  1  0.57933396  0.67312740  0.80538133  1
  O2-  O417  1  0.57420844  0.92160652  0.13854602  1
  O2-  O418  1  0.58556371  0.89708396  0.49498914  1
  O2-  O419  1  0.59485971  0.93285416  0.81499721  1
  O2-  O420  1  0.80742828  0.11221292  0.13034796  1
  O2-  O421  1  0.81742957  0.07836268  0.45559427  1
  O2-  O422  1  0.80360609  0.08045176  0.78069940  1
  O2-  O423  1  0.83198385  0.43250207  0.14322456  1
  O2-  O424  1  0.83822761  0.42728874  0.48031849  1
  O2-  O425  1  0.83705621  0.43094244  0.81291919  1
  O2-  O426  1  0.81969567  0.65205129  0.15875378  1
  O2-  O427  1  0.83564749  0.66172420  0.47845110  1
  O2-  O428  1  0.81463062  0.63203975  0.80514290  1
  O2-  O429  1  0.83887329  0.91080264  0.14058878  1
  O2-  O430  1  0.82801592  0.89366390  0.47298442  1
  O2-  O431  1  0.82964864  0.90380250  0.81955121  1
  O2-  O432  1  0.16671976  0.08333987  0.19003425  1
  O2-  O433  1  0.18433657  0.05774397  0.53447186  1
  O2-  O434  1  0.16810230  0.08171130  0.83990610  1
  O2-  O435  1  0.17055791  0.32947217  0.18552093  1
  O2-  O436  1  0.17284367  0.37448693  0.53937741  1
  O2-  O437  1  0.17131926  0.33408979  0.84680732  1
  O2-  O438  1  0.16523900  0.58075777  0.18974756  1
  O2-  O439  1  0.16934481  0.58647819  0.51613687  1
  O2-  O440  1  0.18274489  0.59922389  0.86070218  1
  O2-  O441  1  0.17135862  0.85023261  0.19420368  1
  O2-  O442  1  0.16749441  0.83038333  0.51771826  1
  O2-  O443  1  0.17029309  0.83461726  0.85190376  1
  O2-  O444  1  0.40548226  0.08862595  0.18024077  1
  O2-  O445  1  0.42250172  0.09713892  0.51404189  1
  O2-  O446  1  0.41864707  0.09947229  0.86895043  1
  O2-  O447  1  0.38767748  0.27745156  0.15435803  1
  O2-  O448  1  0.41292708  0.33163099  0.51433569  1
  O2-  O449  1  0.37797344  0.31246237  0.86533597  1
  O2-  O450  1  0.42868503  0.58541634  0.15077872  1
  O2-  O451  1  0.42470591  0.57941092  0.52573906  1
  O2-  O452  1  0.41582376  0.58419126  0.84723441  1
  O2-  O453  1  0.41301401  0.84213752  0.17766147  1
  O2-  O454  1  0.41242103  0.80453529  0.52454442  1
  O2-  O455  1  0.42267515  0.84178578  0.84836289  1
  O2-  O456  1  0.67057463  0.08508105  0.17991679  1
  O2-  O457  1  0.57209350  0.03158561  0.54213403  1
  O2-  O458  1  0.66992028  0.10038011  0.86094059  1
  O2-  O459  1  0.67042286  0.34637768  0.18929157  1
  O2-  O460  1  0.68389933  0.33386267  0.52196603  1
  O2-  O461  1  0.66294904  0.33661792  0.85259726  1
  O2-  O462  1  0.66376456  0.58499643  0.19459004  1
  O2-  O463  1  0.66687187  0.58307105  0.51775030  1
  O2-  O464  1  0.65180673  0.58319583  0.85366901  1
  O2-  O465  1  0.60447192  0.79514070  0.20027235  1
  O2-  O466  1  0.67015095  0.81283702  0.52151570  1
  O2-  O467  1  0.65862994  0.83335572  0.85143250  1
  O2-  O468  1  0.92649135  0.07734664  0.17946346  1
  O2-  O469  1  0.91671224  0.03611155  0.54535979  1
  O2-  O470  1  0.91943242  0.06888154  0.84788658  1
  O2-  O471  1  0.86920814  0.30693003  0.18733727  1
  O2-  O472  1  0.93466547  0.38624317  0.52690862  1
  O2-  O473  1  0.92380892  0.37424094  0.86872762  1
  O2-  O474  1  0.92627453  0.59149130  0.18633677  1
  O2-  O475  1  0.91807123  0.58440986  0.51929437  1
  O2-  O476  1  0.93705537  0.59164028  0.85218546  1
  O2-  O477  1  0.92282126  0.83015624  0.18436100  1
  O2-  O478  1  0.91157652  0.82147841  0.51838364  1
  O2-  O479  1  0.91370116  0.82431018  0.85625845  1
  O2-  O480  1  0.16085182  0.06850525  0.31232139  1
  O2-  O481  1  0.09116103  0.06069158  0.62248696  1
  O2-  O482  1  0.13359258  0.09097880  1.00035323  1
  O2-  O483  1  0.16444503  0.33120404  0.30955306  1
  O2-  O484  1  0.17701016  0.32852993  0.65791111  1
  O2-  O485  1  0.18444478  0.34475998  0.96870556  1
  O2-  O486  1  0.15270784  0.57376002  0.31180002  1
  O2-  O487  1  0.17633092  0.58098961  0.64749581  1
  O2-  O488  1  0.16936155  0.59538955  0.97432440  1
  O2-  O489  1  0.17735879  0.84659655  0.30365447  1
  O2-  O490  1  0.19677879  0.82623049  0.64235594  1
  O2-  O491  1  0.16860063  0.83531004  0.97708084  1
  O2-  O492  1  0.42042798  0.07686077  0.31041566  1
  O2-  O493  1  0.42048374  0.08822432  0.64646461  1
  O2-  O494  1  0.39818369  0.08202941  0.98673948  1
  O2-  O495  1  0.52707950  0.44750832  0.30576431  1
  O2-  O496  1  0.42223836  0.33290184  0.63738912  1
  O2-  O497  1  0.42356908  0.33205355  0.99200751  1
  O2-  O498  1  0.44442658  0.53291159  0.29745870  1
  O2-  O499  1  0.41306588  0.58624479  0.64547864  1
  O2-  O500  1  0.42242033  0.57619898  0.97118428  1
  O2-  O501  1  0.41635296  0.81896465  0.30038611  1
  O2-  O502  1  0.41799699  0.82265969  0.64858953  1
  O2-  O503  1  0.43020792  0.84557019  0.97406406  1
  O2-  O504  1  0.68441499  0.11114507  0.29623999  1
  O2-  O505  1  0.65304203  0.04842069  0.64788146  1
  O2-  O506  1  0.65051948  0.08856941  0.98805299  1
  O2-  O507  1  0.67684843  0.34040126  0.30579196  1
  O2-  O508  1  0.67017115  0.35044395  0.64840852  1
  O2-  O509  1  0.66821494  0.33181516  0.97902692  1
  O2-  O510  1  0.68129647  0.59917027  0.31500138  1
  O2-  O511  1  0.65584278  0.58474490  0.63994118  1
  O2-  O512  1  0.67293291  0.58414799  0.96982650  1
  O2-  O513  1  0.69159120  0.88075887  0.29653239  1
  O2-  O514  1  0.64289369  0.84134332  0.65076933  1
  O2-  O515  1  0.58508374  0.78843479  0.96457040  1
  O2-  O516  1  0.92424927  0.07603250  0.30342898  1
  O2-  O517  1  0.91115957  0.08526892  0.66193468  1
  O2-  O518  1  0.92552433  0.07464555  0.97398674  1
  O2-  O519  1  0.92199056  0.33441359  0.31440172  1
  O2-  O520  1  0.92716617  0.35025227  0.64165468  1
  O2-  O521  1  0.90534724  0.32206134  0.98857350  1
  O2-  O522  1  0.92454434  0.57431790  0.31056380  1
  O2-  O523  1  0.93241774  0.58508142  0.63681241  1
  O2-  O524  1  0.93052684  0.57986234  0.97695346  1
  O2-  O525  1  0.92454955  0.82313677  0.30858920  1
  O2-  O526  1  0.91407244  0.82780474  0.63979627  1
  O2-  O527  1  0.91851932  0.82962211  0.98162912  1
  O2-  O528  1  0.08727339  0.12936943  0.02270010  1
  O2-  O529  1  0.09030133  0.16631707  0.34434563  1
  O2-  O530  1  0.08277297  0.17348362  0.70883898  1
  O2-  O531  1  0.06551377  0.45360680  0.03222928  1
  O2-  O532  1  0.07856609  0.40988758  0.35600405  1
  O2-  O533  1  0.09108315  0.42089072  0.63798762  1
  O2-  O534  1  0.09310649  0.66794487  0.01598145  1
  O2-  O535  1  0.08012622  0.64547326  0.34718552  1
  O2-  O536  1  0.09531186  0.65830496  0.68057923  1
  O2-  O537  1  0.08455635  0.91724325  0.02234558  1
  O2-  O538  1  0.08489560  0.90650925  0.35314531  1
  O2-  O539  1  0.07864346  0.93100143  0.68424064  1
  O2-  O540  1  0.30140505  0.16394324  0.02556659  1
  O2-  O541  1  0.32179623  0.13485836  0.36078797  1
  O2-  O542  1  0.34013960  0.16591928  0.68463710  1
  O2-  O543  1  0.33889282  0.41519586  0.01951661  1
  O2-  O544  1  0.31436041  0.40306015  0.36649235  1
  O2-  O545  1  0.34554701  0.42013759  0.67931249  1
  O2-  O546  1  0.39117542  0.69490923  0.02856788  1
  O2-  O547  1  0.30938627  0.68200696  0.36661879  1
  O2-  O548  1  0.32413784  0.65327240  0.69001753  1
  O2-  O549  1  0.33376480  0.91526444  0.01675247  1
  O2-  O550  1  0.33577586  0.90965342  0.34647954  1
  O2-  O551  1  0.35051943  0.92152313  0.68424397  1
  O2-  O552  1  0.56730207  0.16812759  0.02681792  1
  O2-  O553  1  0.58658240  0.17443218  0.35705647  1
  O2-  O554  1  0.57743296  0.17705987  0.67664295  1
  O2-  O555  1  0.59826959  0.43146644  0.01965398  1
  O2-  O556  1  0.57007424  0.40600029  0.40921975  1
  O2-  O557  1  0.58307729  0.42568117  0.68885439  1
  O2-  O558  1  0.58526972  0.65697861  0.01633804  1
  O2-  O559  1  0.58459319  0.66955243  0.34806403  1
  O2-  O560  1  0.57673421  0.67566416  0.68137468  1
  O2-  O561  1  0.59675233  0.93177193  0.02595066  1
  O2-  O562  1  0.56748627  0.88069463  0.36792616  1
  O2-  O563  1  0.59408825  0.87601668  0.68109042  1
  O2-  O564  1  0.83004437  0.15264697  0.01078313  1
  O2-  O565  1  0.84383799  0.15911150  0.34414696  1
  O2-  O566  1  0.82727153  0.17211701  0.67723948  1
  O2-  O567  1  0.83397747  0.41635099  0.01950174  1
  O2-  O568  1  0.83896261  0.41587094  0.35223631  1
  O2-  O569  1  0.83360523  0.41902013  0.68886254  1
  O2-  O570  1  0.84578182  0.65643613  0.00282207  1
  O2-  O571  1  0.84419666  0.66417214  0.35404107  1
  O2-  O572  1  0.79890079  0.69345035  0.70319171  1
  O2-  O573  1  0.83875005  0.91330401  0.02510458  1
  O2-  O574  1  0.84732529  0.91241766  0.35180859  1
  O2-  O575  1  0.78923095  0.85693945  0.70008182  1
