# generated using pymatgen
data_H2O
_symmetry_space_group_name_H-M   'P 1'
_cell_length_a   17.99286990
_cell_length_b   17.99933401
_cell_length_c   22.00249703
_cell_angle_alpha   90.01151312
_cell_angle_beta   89.99976347
_cell_angle_gamma   120.01383458
_symmetry_Int_Tables_number   1
_chemical_formula_structural   H2O
_chemical_formula_sum   'H384 O192'
_cell_volume   6170.19524618
_cell_formula_units_Z   192
loop_
 _symmetry_equiv_pos_site_id
 _symmetry_equiv_pos_as_xyz
  1  'x, y, z'
loop_
 _atom_type_symbol
 _atom_type_oxidation_number
  H+  1.0
  O2-  -2.0
loop_
 _atom_site_type_symbol
 _atom_site_label
 _atom_site_symmetry_multiplicity
 _atom_site_fract_x
 _atom_site_fract_y
 _atom_site_fract_z
 _atom_site_occupancy
  H+  H0  1  0.89470080  0.77379847  0.66003077  1
  H+  H1  1  0.35275438  0.70710227  0.33786489  1
  H+  H2  1  0.48530191  0.34539704  0.33507787  1
  H+  H3  1  0.45343513  0.76509205  0.62780661  1
  H+  H4  1  0.13881120  0.60156382  0.99859446  1
  H+  H5  1  0.92579030  0.58476424  0.10464775  1
  H+  H6  1  0.52236174  0.88484640  0.81845400  1
  H+  H7  1  0.68698380  0.70608152  0.03954959  1
  H+  H8  1  0.97902820  0.63637526  0.30665405  1
  H+  H9  1  0.62445214  0.01961203  0.83574407  1
  H+  H10  1  0.17255453  0.83785110  0.93305898  1
  H+  H11  1  0.60799186  0.84779323  0.84294974  1
  H+  H12  1  0.47005252  0.85536295  0.34104210  1
  H+  H13  1  0.61495494  0.22383580  0.50579023  1
  H+  H14  1  0.89783741  1.03858532  0.17066525  1
  H+  H15  1  0.10457839  0.46988945  0.65902054  1
  H+  H16  1  0.38308309  0.61027648  -0.00148767  1
  H+  H17  1  0.26825017  0.88993162  0.48548221  1
  H+  H18  1  0.14198143  0.61760972  0.50009954  1
  H+  H19  1  0.21769263  0.60689345  0.65842746  1
  H+  H20  1  0.90411003  0.86913457  0.84095344  1
  H+  H21  1  0.52074088  0.39473888  0.67221356  1
  H+  H22  1  0.65028169  0.53366678  0.31767965  1
  H+  H23  1  0.12798738  0.99532298  0.15494611  1
  H+  H24  1  0.59003893  0.91298334  0.76225201  1
  H+  H25  1  0.13790158  0.26616464  0.32722146  1
  H+  H26  1  0.87915727  0.49164816  0.99070777  1
  H+  H27  1  0.87375920  0.78501033  -0.00122761  1
  H+  H28  1  0.35537638  0.23885025  0.33624823  1
  H+  H29  1  0.97481811  0.71848895  1.02394922  1
  H+  H30  1  1.02413305  0.89364752  1.00312349  1
  H+  H31  1  0.11744802  0.73602372  0.33323082  1
  H+  H32  1  0.74698552  0.36068661  0.33069417  1
  H+  H33  1  0.02031757  0.38538551  0.16967443  1
  H+  H34  1  0.50865466  0.12437837  0.82695885  1
  H+  H35  1  0.14455054  0.52824540  0.50137942  1
  H+  H36  1  0.65396399  0.81832923  0.21387415  1
  H+  H37  1  0.36175188  0.87930632  0.68952708  1
  H+  H38  1  0.88813940  0.28188706  0.18049199  1
  H+  H39  1  1.01016915  0.11833354  0.49152062  1
  H+  H40  1  0.78469481  0.88539525  0.82943210  1
  H+  H41  1  0.36828490  0.47993652  1.00268830  1
  H+  H42  1  0.37012849  0.23367198  0.15995562  1
  H+  H43  1  0.36472455  0.64276775  0.48542066  1
  H+  H44  1  0.64701869  0.88738934  1.00465317  1
  H+  H45  1  0.20526055  0.35119134  0.65700145  1
  H+  H46  1  0.50878351  0.14292949  0.34825335  1
  H+  H47  1  0.86927427  0.89853951  1.00327646  1
  H+  H48  1  0.28507918  0.13508360  0.66719747  1
  H+  H49  1  0.12874400  0.26733571  0.17362969  1
  H+  H50  1  0.26755539  0.63622476  0.83221543  1
  H+  H51  1  0.66207936  0.78128864  0.50860326  1
  H+  H52  1  0.03164883  0.64511754  0.67226280  1
  H+  H53  1  0.64133394  0.89855627  0.48471698  1
  H+  H54  1  0.01752567  0.38407247  0.83983704  1
  H+  H55  1  0.12890299  0.40082266  0.49279220  1
  H+  H56  1  0.33943483  0.34095422  0.68529997  1
  H+  H57  1  0.63996099  0.10376456  0.32031761  1
  H+  H58  1  0.62748405  0.02584889  0.16522020  1
  H+  H59  1  0.46680072  0.60302192  0.83750117  1
  H+  H60  1  0.13264668  0.11328863  0.50759058  1
  H+  H61  1  0.11146372  0.72285554  0.16187152  1
  H+  H62  1  0.81829556  0.94677120  0.50960306  1
  H+  H63  1  0.89943599  1.01289646  0.65911853  1
  H+  H64  1  0.59794282  0.19613934  0.66281139  1
  H+  H65  1  0.46461132  0.85904978  0.18472006  1
  H+  H66  1  0.37975449  0.12534476  0.32436072  1
  H+  H67  1  0.02993627  0.38704474  0.34418020  1
  H+  H68  1  0.60466159  -0.03785250  0.33574694  1
  H+  H69  1  0.37158038  0.38827896  0.34432530  1
  H+  H70  1  0.03462690  0.14237475  0.16157168  1
  H+  H71  1  0.03755898  0.91032619  0.14831547  1
  H+  H72  1  0.92624781  0.83914579  0.60283903  1
  H+  H73  1  0.99413468  0.87094045  0.84338774  1
  H+  H74  1  0.75518554  0.64591374  1.01876283  1
  H+  H75  1  0.01920615  0.63261905  0.15704677  1
  H+  H76  1  0.23421252  0.86655792  0.84400054  1
  H+  H77  1  0.11101180  0.37988196  0.01287613  1
  H+  H78  1  0.88921310  0.26325265  -0.00009697  1
  H+  H79  1  0.98866707  0.09709794  0.64928706  1
  H+  H80  1  0.50133047  0.43127261  0.31092838  1
  H+  H81  1  0.78207942  0.40968662  0.67554778  1
  H+  H82  1  0.36603448  0.38981796  0.00080160  1
  H+  H83  1  0.50654048  0.11205314  0.67516817  1
  H+  H84  1  0.72785564  0.36164710  0.51469880  1
  H+  H85  1  0.92661873  0.69754577  0.02453736  1
  H+  H86  1  0.76878206  0.14133021  0.67923316  1
  H+  H87  1  0.62264619  0.58372741  0.99240927  1
  H+  H88  1  0.85121040  0.13292403  0.83358837  1
  H+  H89  1  0.69841994  0.84818557  0.57831021  1
  H+  H90  1  0.38347285  0.81985260  0.37722379  1
  H+  H91  1  0.54254988  0.66281878  0.49709786  1
  H+  H92  1  -0.03051181  0.11169492  0.83477300  1
  H+  H93  1  0.73075836  0.60992132  0.17324678  1
  H+  H94  1  0.97435951  0.35515618  1.00016156  1
  H+  H95  1  0.40622013  0.88084990  -0.01145792  1
  H+  H96  1  0.59374997  0.57627710  0.33112001  1
  H+  H97  1  0.25965312  0.38318492  0.83615856  1
  H+  H98  1  0.35776053  -0.02041224  0.48053212  1
  H+  H99  1  0.14093405  0.86795889  0.16554364  1
  H+  H100  1  0.27393325  0.87939488  0.68292682  1
  H+  H101  1  0.65509465  0.27260364  0.32295243  1
  H+  H102  1  0.72421567  0.10304477  0.50870928  1
  H+  H103  1  0.37265469  0.86190946  0.50761460  1
  H+  H104  1  0.37729816  0.59886742  0.33291139  1
  H+  H105  1  0.36121524  0.47030226  0.34232709  1
  H+  H106  1  0.88467256  0.54074149  0.50108466  1
  H+  H107  1  0.11552768  0.38272119  0.34114636  1
  H+  H108  1  0.23572156  0.12351014  0.16906736  1
  H+  H109  1  0.51151254  0.36405041  -0.01423638  1
  H+  H110  1  0.38964998  0.10306428  0.66419875  1
  H+  H111  1  0.88202333  0.36628095  0.65939800  1
  H+  H112  1  1.02817865  0.64542256  0.48679641  1
  H+  H113  1  0.61031992  0.48714131  0.67009432  1
  H+  H114  1  0.11940540  0.87945783  0.82506490  1
  H+  H115  1  0.88552994  0.87042326  0.51193042  1
  H+  H116  1  0.79280411  0.11608480  0.02449040  1
  H+  H117  1  0.10620395  0.13728283  0.83259537  1
  H+  H118  1  0.22408540  0.61550744  0.32626840  1
  H+  H119  1  0.60923748  0.40321902  0.82351779  1
  H+  H120  1  0.53647460  0.89936432  0.01206507  1
  H+  H121  1  0.14487135  0.77602374  0.66031770  1
  H+  H122  1  0.60513223  0.14121580  0.15329567  1
  H+  H123  1  0.77176506  0.14977739  0.15840708  1
  H+  H124  1  0.79451068  0.64728454  0.82812955  1
  H+  H125  1  0.15464280  0.11941887  0.66443448  1
  H+  H126  1  0.77845071  0.64653500  0.51311067  1
  H+  H127  1  0.17165005  0.83754574  0.56517614  1
  H+  H128  1  0.63389140  0.76511630  0.31690231  1
  H+  H129  1  0.62202842  0.97496751  0.48811357  1
  H+  H130  1  0.65810512  0.87597034  0.65207167  1
  H+  H131  1  0.61827890  0.63601186  0.82438112  1
  H+  H132  1  0.12131226  0.23101759  0.67525906  1
  H+  H133  1  0.62890036  0.49866791  -0.00971446  1
  H+  H134  1  0.22998250  0.11754390  0.99588719  1
  H+  H135  1  0.63824448  0.52951997  0.50343085  1
  H+  H136  1  0.63708362  0.60200387  0.17233292  1
  H+  H137  1  0.64341079  0.36653795  0.17949784  1
  H+  H138  1  0.64136776  0.34569561  -0.02428304  1
  H+  H139  1  0.38165311  0.37102380  0.83962809  1
  H+  H140  1  0.14799769  0.77335049  0.83717167  1
  H+  H141  1  0.35839296  0.90402087  0.33401792  1
  H+  H142  1  0.13220790  0.61096243  0.17614377  1
  H+  H143  1  0.65415204  0.31224698  0.69492476  1
  H+  H144  1  0.57928710  0.13159081  1.00468735  1
  H+  H145  1  0.69535905  0.13826447  0.97888512  1
  H+  H146  1  0.61258825  0.35052177  0.35069523  1
  H+  H147  1  0.26775944  0.14914857  0.33497141  1
  H+  H148  1  0.08359530  0.64747060  0.07054879  1
  H+  H149  1  0.48436468  0.36665205  0.17556874  1
  H+  H150  1  0.76155915  0.13268232  0.83473164  1
  H+  H151  1  0.14063176  0.03002728  0.32372016  1
  H+  H152  1  0.60085943  0.87887126  0.17216710  1
  H+  H153  1  0.88645636  0.12013047  0.32583772  1
  H+  H154  1  0.89639387  0.80003210  0.39490432  1
  H+  H155  1  0.72790642  0.34228132  -0.00291651  1
  H+  H156  1  0.27328318  0.14808405  0.49364000  1
  H+  H157  1  0.75009519  0.87392697  0.65704382  1
  H+  H158  1  0.52767501  0.39088285  0.49863212  1
  H+  H159  1  0.27000449  0.61716885  1.00936793  1
  H+  H160  1  0.85310016  0.31839815  0.50868112  1
  H+  H161  1  0.38129691  0.39916880  0.15797208  1
  H+  H162  1  0.49640554  0.66312197  0.65020480  1
  H+  H163  1  0.38737423  0.77434216  0.83749206  1
  H+  H164  1  0.93188410  0.09205056  0.23243149  1
  H+  H165  1  0.61612623  0.38999939  0.50400995  1
  H+  H166  1  0.78697362  0.19005676  0.38065449  1
  H+  H167  1  0.47240971  0.11825193  0.17299576  1
  H+  H168  1  0.60089904  0.71422473  0.82595651  1
  H+  H169  1  0.03490157  0.63932945  0.82470728  1
  H+  H170  1  0.11215612  0.47227107  0.16886455  1
  H+  H171  1  0.14726336  0.86629178  0.66184402  1
  H+  H172  1  0.62554083  0.97343593  0.66879992  1
  H+  H173  1  0.13627810  0.63106721  0.32377740  1
  H+  H174  1  0.70722272  0.86395727  0.15509145  1
  H+  H175  1  0.86743064  0.73846637  0.51737846  1
  H+  H176  1  0.86747296  0.97873162  0.82882334  1
  H+  H177  1  0.12851731  0.27405711  0.84789009  1
  H+  H178  1  0.77797979  0.63359144  0.35654175  1
  H+  H179  1  0.14395824  1.02478164  0.66095046  1
  H+  H180  1  0.22331423  0.61151457  0.17684359  1
  H+  H181  1  0.27992620  0.39509143  0.49745506  1
  H+  H182  1  0.34806356  0.47295017  0.82851025  1
  H+  H183  1  0.13738386  0.27305253  0.50254706  1
  H+  H184  1  1.02468604  0.60810827  1.01132312  1
  H+  H185  1  0.16936761  0.08792064  0.56643798  1
  H+  H186  1  0.38317880  0.52787716  0.17920520  1
  H+  H187  1  0.03329085  0.88886487  0.67476776  1
  H+  H188  1  0.84281353  0.89722803  0.15556959  1
  H+  H189  1  0.63082295  0.73829605  0.67139241  1
  H+  H190  1  0.35220757  0.72150254  0.16316329  1
  H+  H191  1  0.36614094  0.14227616  0.15959736  1
  H+  H192  1  0.62533121  0.48596665  0.17424812  1
  H+  H193  1  0.78235519  0.90528466  1.00378920  1
  H+  H194  1  0.67802266  0.33304834  0.23454461  1
  H+  H195  1  0.61056320  0.23290081  0.15989767  1
  H+  H196  1  0.46907947  0.11044437  0.50016195  1
  H+  H197  1  0.61888416  0.24372514  0.00141069  1
  H+  H198  1  0.92716242  0.84586093  0.22681012  1
  H+  H199  1  0.22363012  0.87220173  0.32085567  1
  H+  H200  1  0.97110728  0.79109505  0.24087220  1
  H+  H201  1  0.38380484  0.11700436  0.49193687  1
  H+  H202  1  0.63704534  0.10802836  0.51022978  1
  H+  H203  1  0.47697539  0.38220605  0.83755164  1
  H+  H204  1  0.12334552  0.36096409  0.18058080  1
  H+  H205  1  0.86992170  0.64197354  0.67060932  1
  H+  H206  1  0.14674454  0.12474062  0.16895316  1
  H+  H207  1  0.13654468  0.51231552  -0.00563009  1
  H+  H208  1  0.20281538  0.07483855  0.90484781  1
  H+  H209  1  0.36485345  0.13947419  0.00542150  1
  H+  H210  1  0.34646278  0.17181310  0.72628065  1
  H+  H211  1  0.47743053  0.61909378  0.99321755  1
  H+  H212  1  0.12591033  0.36299719  0.85076841  1
  H+  H213  1  0.63848063  0.75326756  1.01826280  1
  H+  H214  1  0.13985153  0.61287042  0.84269101  1
  H+  H215  1  0.99468759  0.12193852  0.99134333  1
  H+  H216  1  0.71574840  0.37081909  0.83062443  1
  H+  H217  1  0.61912860  -0.01043694  1.01217678  1
  H+  H218  1  0.23016441  0.36833840  0.99635276  1
  H+  H219  1  0.16626377  0.58697421  0.59515394  1
  H+  H220  1  0.13716241  0.97292211  0.83044931  1
  H+  H221  1  0.85587039  0.36503974  1.01123863  1
  H+  H222  1  0.27927275  0.89632422  0.99409761  1
  H+  H223  1  0.85641929  0.20568624  0.50298310  1
  H+  H224  1  0.90780128  0.05626552  0.56418376  1
  H+  H225  1  0.34124980  0.17236248  0.06611168  1
  H+  H226  1  0.10845846  0.47139154  0.83887578  1
  H+  H227  1  0.34875934  0.71688467  0.67985894  1
  H+  H228  1  0.12416258  0.14542768  0.00560616  1
  H+  H229  1  0.72682030  0.10464453  0.31327777  1
  H+  H230  1  0.85943000  0.46015367  0.35098310  1
  H+  H231  1  0.36365081  0.00143161  0.94171889  1
  H+  H232  1  0.38430631  1.01155693  0.67271717  1
  H+  H233  1  0.76638884  0.88969789  0.32793464  1
  H+  H234  1  0.87543725  0.27152891  0.84562280  1
  H+  H235  1  0.03124531  0.89782895  0.35425560  1
  H+  H236  1  0.41813029  0.33577202  0.60217012  1
  H+  H237  1  0.62080100  0.10785248  0.83494459  1
  H+  H238  1  0.10774093  0.13422858  0.33742107  1
  H+  H239  1  0.38269540  0.27277090  0.98482810  1
  H+  H240  1  0.01511237  0.38180018  0.66129243  1
  H+  H241  1  0.35546290  0.63432858  0.16982444  1
  H+  H242  1  0.86400128  0.47769352  0.82521410  1
  H+  H243  1  0.13643747  0.86816850  0.50905337  1
  H+  H244  1  0.86516166  0.24105156  0.33675782  1
  H+  H245  1  0.82323815  0.59485206  0.31828951  1
  H+  H246  1  0.39658062  0.86790412  0.84386679  1
  H+  H247  1  0.30352331  0.14356490  0.82189692  1
  H+  H248  1  0.43906071  0.84501302  0.93641370  1
  H+  H249  1  0.88724213  0.36454306  0.33654007  1
  H+  H250  1  0.39593456  0.26883322  0.65714138  1
  H+  H251  1  0.27073633  0.63565686  0.48891327  1
  H+  H252  1  0.77635701  0.38792149  0.16102986  1
  H+  H253  1  0.39294473  0.37502795  0.50921129  1
  H+  H254  1  0.39780769  0.49977266  0.66493406  1
  H+  H255  1  0.89710069  0.53532373  0.66102525  1
  H+  H256  1  0.51833934  0.63585778  0.34577988  1
  H+  H257  1  0.85443049  0.38484456  0.82805174  1
  H+  H258  1  0.11796607  0.98545367  0.49739341  1
  H+  H259  1  0.38855151  0.28382481  0.50640604  1
  H+  H260  1  0.35466197  0.49019087  0.65308260  1
  H+  H261  1  0.12306099  0.23470353  1.00775834  1
  H+  H262  1  0.73229421  0.61840719  0.65920230  1
  H+  H263  1  0.88525255  0.43326740  0.48968145  1
  H+  H264  1  0.86007704  0.70863343  0.17779675  1
  H+  H265  1  0.88455960  0.73449858  0.82774743  1
  H+  H266  1  0.16583711  0.84007391  0.26031264  1
  H+  H267  1  0.39851793  0.64366997  0.65461819  1
  H+  H268  1  0.36111555  -0.01865894  0.15596566  1
  H+  H269  1  0.85353956  0.89819893  0.35271291  1
  H+  H270  1  0.32398880  0.92403452  0.39567856  1
  H+  H271  1  0.14845007  0.87687764  -0.01103688  1
  H+  H272  1  0.37490732  0.24214641  0.81619427  1
  H+  H273  1  0.62640500  0.09512208  0.66282262  1
  H+  H274  1  0.22842942  0.86687284  0.16520754  1
  H+  H275  1  0.11746962  0.63943983  0.66889531  1
  H+  H276  1  0.87128866  0.87942654  0.67454890  1
  H+  H277  1  0.11683309  0.89431035  0.33758717  1
  H+  H278  1  0.89451137  0.63103074  0.51668747  1
  H+  H279  1  0.35680832  0.63679000  0.82910817  1
  H+  H280  1  0.86681392  0.62832263  0.14937431  1
  H+  H281  1  0.62885659  0.85010693  0.31631519  1
  H+  H282  1  0.90174893  0.61707362  0.83911973  1
  H+  H283  1  0.63524181  0.38335247  0.67046901  1
  H+  H284  1  0.35917347  0.89205219  0.15286427  1
  H+  H285  1  0.37616455  0.03445789  0.32631519  1
  H+  H286  1  0.58417289  0.92143985  0.22837658  1
  H+  H287  1  0.87959862  0.02839670  0.32529408  1
  H+  H288  1  0.84351727  0.67190517  0.73135705  1
  H+  H289  1  0.63540653  0.08124588  0.92637245  1
  H+  H290  1  0.88951427  0.58435704  0.98934034  1
  H+  H291  1  0.59947815  0.43307070  0.11318693  1
  H+  H292  1  0.34963600  0.93964509  0.78725615  1
  H+  H293  1  0.92083848  0.34119696  0.27424583  1
  H+  H294  1  0.07202847  0.15618973  0.43399978  1
  H+  H295  1  0.11980915  0.36024048  0.65092044  1
  H+  H296  1  0.84071051  0.15195557  0.44070930  1
  H+  H297  1  0.16035550  0.32551439  0.24148581  1
  H+  H298  1  0.57468881  0.64718734  0.09819157  1
  H+  H299  1  0.35195856  0.42860868  0.09743159  1
  H+  H300  1  0.86471702  0.48009025  0.14994173  1
  H+  H301  1  0.08032663  0.40973628  0.07184242  1
  H+  H302  1  0.83963149  0.91107165  0.73340270  1
  H+  H303  1  0.40144946  0.54215735  0.50547876  1
  H+  H304  1  0.84052875  0.42887040  0.73400710  1
  H+  H305  1  0.32908673  0.18125591  0.43292746  1
  H+  H306  1  0.55440877  0.23270058  0.37870017  1
  H+  H307  1  0.58832880  0.67504650  0.39919532  1
  H+  H308  1  0.67205961  0.33816713  0.57588342  1
  H+  H309  1  0.56188910  0.35546665  0.04080416  1
  H+  H310  1  0.11703623  0.73327641  0.48806159  1
  H+  H311  1  0.37215810  0.77326113  0.50485970  1
  H+  H312  1  0.66377840  0.07468929  0.60231583  1
  H+  H313  1  0.09503855  0.17870390  0.10079313  1
  H+  H314  1  0.42807406  0.34155204  0.23465122  1
  H+  H315  1  0.08636396  0.67478719  0.39263292  1
  H+  H316  1  0.90386655  0.03225837  0.99135605  1
  H+  H317  1  0.91876786  0.83591532  0.93609854  1
  H+  H318  1  0.33815543  0.42318186  0.43840742  1
  H+  H319  1  0.56780192  0.17244313  0.06850919  1
  H+  H320  1  0.68347278  0.59094386  0.89804784  1
  H+  H321  1  0.80658973  0.68837824  0.08008322  1
  H+  H322  1  0.19918752  0.24156410  0.70896232  1
  H+  H323  1  0.62474606  0.28542906  0.83249409  1
  H+  H324  1  0.92002017  0.08421162  0.89771755  1
  H+  H325  1  0.84994149  0.17635746  0.11399243  1
  H+  H326  1  0.89208796  0.30726973  0.57118001  1
  H+  H327  1  0.41192591  0.08874176  0.23243588  1
  H+  H328  1  0.16537136  0.59237335  0.25911829  1
  H+  H329  1  0.87481563  0.27338769  0.66641973  1
  H+  H330  1  0.16806094  0.08825330  0.26280714  1
  H+  H331  1  0.16548184  0.33558293  0.93892114  1
  H+  H332  1  0.57446205  0.36775982  0.41254452  1
  H+  H333  1  0.09563509  0.17481906  0.77034977  1
  H+  H334  1  0.98119152  0.88067882  0.50526240  1
  H+  H335  1  0.92642559  0.59205307  0.59991290  1
  H+  H336  1  0.01937827  0.13684244  0.33859192  1
  H+  H337  1  0.41356367  0.58312678  0.89959771  1
  H+  H338  1  0.65171372  0.53836705  0.83712295  1
  H+  H339  1  0.66495453  0.58554291  0.56455122  1
  H+  H340  1  0.16326213  0.32911646  0.56279180  1
  H+  H341  1  0.92629899  0.57496441  0.89494584  1
  H+  H342  1  0.32673512  0.64793587  0.07016888  1
  H+  H343  1  0.23034181  0.35440688  0.32550026  1
  H+  H344  1  0.87009145  0.08443842  0.50817721  1
  H+  H345  1  0.46787230  0.61386409  0.18019961  1
  H+  H346  1  0.43251304  0.61683266  0.55693516  1
  H+  H347  1  0.26549246  0.04324218  0.88254426  1
  H+  H348  1  0.58196394  0.16776545  0.44533848  1
  H+  H349  1  0.09378357  0.91970382  0.73377074  1
  H+  H350  1  0.09075257  0.92806360  0.05855109  1
  H+  H351  1  0.82765032  0.39988927  0.42557865  1
  H+  H352  1  0.92707550  0.60470401  0.24541030  1
  H+  H353  1  0.66563172  0.84697192  0.94481717  1
  H+  H354  1  0.16762111  0.58106978  0.90331326  1
  H+  H355  1  0.90597071  0.33003609  0.90480071  1
  H+  H356  1  0.88656442  0.13540369  0.00965106  1
  H+  H357  1  0.09977371  0.42890441  0.43288643  1
  H+  H358  1  0.90259180  0.80427011  0.32262912  1
  H+  H359  1  0.58713474  0.90855194  0.39729997  1
  H+  H360  1  0.82554554  0.39988027  0.06925854  1
  H+  H361  1  0.50687773  0.55364859  0.12165849  1
  H+  H362  1  0.30621988  0.37030540  0.74452824  1
  H+  H363  1  0.89213362  0.37257131  0.17735824  1
  H+  H364  1  0.09506410  0.66968193  0.76564968  1
  H+  H365  1  0.56709062  0.15778308  0.76752322  1
  H+  H366  1  0.39058639  0.82575240  0.23361302  1
  H+  H367  1  0.09361296  0.92815977  0.43739766  1
  H+  H368  1  0.82384516  0.17486116  0.73991941  1
  H+  H369  1  0.58049320  0.43865067  0.76728997  1
  H+  H370  1  0.54185836  0.87883329  0.66499141  1
  H+  H371  1  0.31914530  0.65166513  0.39874683  1
  H+  H372  1  0.83246550  0.93282025  0.09240302  1
  H+  H373  1  0.41230541  0.33393211  0.92430570  1
  H+  H374  1  0.62640849  0.65204519  0.49748602  1
  H+  H375  1  0.13895547  0.03007198  0.99116217  1
  H+  H376  1  0.55556881  0.77352940  0.88875949  1
  H+  H377  1  0.64530859  0.62308724  0.65779456  1
  H+  H378  1  0.42412167  0.82489256  0.59624291  1
  H+  H379  1  0.41371995  0.57764060  0.27388757  1
  H+  H380  1  0.59007703  0.67271097  0.72793127  1
  H+  H381  1  0.66132036  0.08972016  0.21895712  1
  H+  H382  1  0.31923123  0.65778385  0.73881744  1
  H+  H383  1  0.34724189  0.94252237  0.04661083  1
  O2-  O384  1  0.09685314  0.17967821  0.14651007  1
  O2-  O385  1  0.07112031  0.15460974  0.47939120  1
  O2-  O386  1  0.07765086  0.16587726  0.81463855  1
  O2-  O387  1  0.08220198  0.41117491  0.15519852  1
  O2-  O388  1  0.10400323  0.43568711  0.47819959  1
  O2-  O389  1  0.07903896  0.40902085  0.82957813  1
  O2-  O390  1  0.08448671  0.66107041  0.15138191  1
  O2-  O391  1  0.08769188  0.67440332  0.46986669  1
  O2-  O392  1  0.09611596  0.67036279  0.81119635  1
  O2-  O393  1  0.09796549  0.93416839  0.13847508  1
  O2-  O394  1  0.08551201  0.92431765  0.48230146  1
  O2-  O395  1  0.09421776  0.91632713  0.81258940  1
  O2-  O396  1  0.33814573  0.17416990  0.14239339  1
  O2-  O397  1  0.33343323  0.18122151  0.47792415  1
  O2-  O398  1  0.35419750  0.18468361  0.79810394  1
  O2-  O399  1  0.36906663  0.44284389  0.14072900  1
  O2-  O400  1  0.34114205  0.42916697  0.48354454  1
  O2-  O401  1  0.31890314  0.41081289  0.81791002  1
  O2-  O402  1  0.32163507  0.65958935  0.15192938  1
  O2-  O403  1  0.32952494  0.66698302  0.46893673  1
  O2-  O404  1  0.32761240  0.66803864  0.81441265  1
  O2-  O405  1  0.33071830  0.92322996  0.13701498  1
  O2-  O406  1  0.32653747  0.91700131  0.46661207  1
  O2-  O407  1  0.34732985  0.93101706  0.83208828  1
  O2-  O408  1  0.57513713  0.17360099  0.14189532  1
  O2-  O409  1  0.58637873  0.16379277  0.49033227  1
  O2-  O410  1  0.56839288  0.16174096  0.81285452  1
  O2-  O411  1  0.59258211  0.42303966  0.15680426  1
  O2-  O412  1  0.58804738  0.41853425  0.48293170  1
  O2-  O413  1  0.58267163  0.43956866  0.81266501  1
  O2-  O414  1  0.54970693  0.61121721  0.13548554  1
  O2-  O415  1  0.60503952  0.69248616  0.48564308  1
  O2-  O416  1  0.58090753  0.65721151  0.80691895  1
  O2-  O417  1  0.57189154  0.91374702  0.18490743  1
  O2-  O418  1  0.60418123  0.91879751  0.46793754  1
  O2-  O419  1  0.58544549  0.91497374  0.80737046  1
  O2-  O420  1  0.83509626  0.18278984  0.15596838  1
  O2-  O421  1  0.82938810  0.14431142  0.48450330  1
  O2-  O422  1  0.82278525  0.16600206  0.82190654  1
  O2-  O423  1  0.83501843  0.41492788  0.14271604  1
  O2-  O424  1  0.82594939  0.40206983  0.47577317  1
  O2-  O425  1  0.82825933  0.41756591  0.80996885  1
  O2-  O426  1  0.83300441  0.66244772  0.14763953  1
  O2-  O427  1  0.84191965  0.67534334  0.51586855  1
  O2-  O428  1  0.85427517  0.67442289  0.81177554  1
  O2-  O429  1  0.82166067  0.93250107  0.13757958  1
  O2-  O430  1  0.78668329  0.88102765  0.50184692  1
  O2-  O431  1  0.84285956  0.91768658  0.81324072  1
  O2-  O432  1  0.17437915  0.09126234  0.18344970  1
  O2-  O433  1  0.16834337  0.08771877  0.52087518  1
  O2-  O434  1  0.22310734  0.05877936  0.86744828  1
  O2-  O435  1  0.15363577  0.32741870  0.19424135  1
  O2-  O436  1  0.17239967  0.33260619  0.51740483  1
  O2-  O437  1  0.15961791  0.33304239  0.86446438  1
  O2-  O438  1  0.16249795  0.58081068  0.19360287  1
  O2-  O439  1  0.17407254  0.59081201  0.51711896  1
  O2-  O440  1  0.16901431  0.58145072  0.85761283  1
  O2-  O441  1  0.16845007  0.83660268  0.18245692  1
  O2-  O442  1  0.16724521  0.83675489  0.51983813  1
  O2-  O443  1  0.17167366  0.83322036  0.85297216  1
  O2-  O444  1  0.41131628  0.08659696  0.18683528  1
  O2-  O445  1  0.40583375  0.07696917  0.49795360  1
  O2-  O446  1  0.39971854  0.03323613  0.85590994  1
  O2-  O447  1  0.42327542  0.33531546  0.18943459  1
  O2-  O448  1  0.42228312  0.34333554  0.52354643  1
  O2-  O449  1  0.41680201  0.34438856  0.85229627  1
  O2-  O450  1  0.40910598  0.58685542  0.19796171  1
  O2-  O451  1  0.43271821  0.60550472  0.51236787  1
  O2-  O452  1  0.40818429  0.58009695  0.85416407  1
  O2-  O453  1  0.40017462  0.82835724  0.18974705  1
  O2-  O454  1  0.39654691  0.82850713  0.52672075  1
  O2-  O455  1  0.42703952  0.83508116  0.85022877  1
  O2-  O456  1  0.65731285  0.08859559  0.17397325  1
  O2-  O457  1  0.66393661  0.07385605  0.52423173  1
  O2-  O458  1  0.65023993  0.07845183  0.85356190  1
  O2-  O459  1  0.67161809  0.33221802  0.18876525  1
  O2-  O460  1  0.66815588  0.33397171  0.53115043  1
  O2-  O461  1  0.65465936  0.34707274  0.84232368  1
  O2-  O462  1  0.67136357  0.57853478  0.19040323  1
  O2-  O463  1  0.66564359  0.58967876  0.51915157  1
  O2-  O464  1  0.68677383  0.59874121  0.85336219  1
  O2-  O465  1  0.64796888  0.82609107  0.16977862  1
  O2-  O466  1  0.69833942  0.84633413  0.52493737  1
  O2-  O467  1  0.61165039  0.80305654  0.86889345  1
  O2-  O468  1  0.94424578  0.09205038  0.18844077  1
  O2-  O469  1  0.89437246  0.04665931  0.51932213  1
  O2-  O470  1  0.91069134  0.07882904  0.85258803  1
  O2-  O471  1  0.92255862  0.34357420  0.19473217  1
  O2-  O472  1  0.88667840  0.29428712  0.52630007  1
  O2-  O473  1  0.90426912  0.33253200  0.85969842  1
  O2-  O474  1  0.91695994  0.58271906  0.14851499  1
  O2-  O475  1  0.92520525  0.59576865  0.51976332  1
  O2-  O476  1  0.92902661  0.58216784  0.85004862  1
  O2-  O477  1  0.91648477  0.79055082  0.24213546  1
  O2-  O478  1  0.92283512  0.84781413  0.52450571  1
  O2-  O479  1  0.93293219  0.83913367  0.85820942  1
  O2-  O480  1  0.16728265  0.09031771  0.30820911  1
  O2-  O481  1  0.17580705  0.08425216  0.64374613  1
  O2-  O482  1  0.17221852  0.09131581  0.97662813  1
  O2-  O483  1  0.17037663  0.32523026  0.30873254  1
  O2-  O484  1  0.14848109  0.32496878  0.63730402  1
  O2-  O485  1  0.16798236  0.33560876  0.98488840  1
  O2-  O486  1  0.16578041  0.59812266  0.30697334  1
  O2-  O487  1  0.15922423  0.58245489  0.64044067  1
  O2-  O488  1  0.16927167  0.57248486  0.97954837  1
  O2-  O489  1  0.16271343  0.83944170  0.30594995  1
  O2-  O490  1  0.17823317  0.83720366  0.64589178  1
  O2-  O491  1  0.18048890  0.84772369  0.97756175  1
  O2-  O492  1  0.40979701  0.09443650  0.31034095  1
  O2-  O493  1  0.41871201  0.06946057  0.65459927  1
  O2-  O494  1  0.36527352  0.04509710  0.91160890  1
  O2-  O495  1  0.45318496  0.36888914  0.31210817  1
  O2-  O496  1  0.41987109  0.33155510  0.64749980  1
  O2-  O497  1  0.41579757  0.33335762  0.97059592  1
  O2-  O498  1  0.41324877  0.57412300  0.31953294  1
  O2-  O499  1  0.44902422  0.66360409  0.62706786  1
  O2-  O500  1  0.41885478  0.58524052  0.97798739  1
  O2-  O501  1  0.40522018  0.82597543  0.33573489  1
  O2-  O502  1  0.44152899  0.81234013  0.63726160  1
  O2-  O503  1  0.44160279  0.85374963  0.98071191  1
  O2-  O504  1  0.66508188  0.07259562  0.30083128  1
  O2-  O505  1  0.66276922  0.07134136  0.64787947  1
  O2-  O506  1  0.63721610  0.09118789  0.97204356  1
  O2-  O507  1  0.68658872  0.33273338  0.30913556  1
  O2-  O508  1  0.66851289  0.35232930  0.66122272  1
  O2-  O509  1  0.66829165  0.30900351  0.97736538  1
  O2-  O510  1  0.59071734  0.52219079  0.31851704  1
  O2-  O511  1  0.67210309  0.58936922  0.64316490  1
  O2-  O512  1  0.65905300  0.56047430  0.97920623  1
  O2-  O513  1  0.66060349  0.82360833  0.29812166  1
  O2-  O514  1  0.69128605  0.84701637  0.63573574  1
  O2-  O515  1  0.67801110  0.85572094  0.98876173  1
  O2-  O516  1  0.91655351  0.09045644  0.31201217  1
  O2-  O517  1  0.92864409  0.06884668  0.63737001  1
  O2-  O518  1  0.93408913  0.09272219  0.97522567  1
  O2-  O519  1  0.91981371  0.33506932  0.31936902  1
  O2-  O520  1  0.90586399  0.33061636  0.64420284  1
  O2-  O521  1  0.91313856  0.32345075  0.98556816  1
  O2-  O522  1  0.92929740  0.63189765  0.28441282  1
  O2-  O523  1  0.92692287  0.59583928  0.64521062  1
  O2-  O524  1  0.91489578  0.55137899  0.97378385  1
  O2-  O525  1  0.91687190  0.83905683  0.36026211  1
  O2-  O526  1  0.92630746  0.83615412  0.64820863  1
  O2-  O527  1  0.91608668  0.84188786  0.98123003  1
  O2-  O528  1  0.09272178  0.17351062  0.02296914  1
  O2-  O529  1  0.07972709  0.16552974  0.35458011  1
  O2-  O530  1  0.13731743  0.19545454  0.70177788  1
  O2-  O531  1  0.07714241  0.40732914  0.02676900  1
  O2-  O532  1  0.09101044  0.41703777  0.35689529  1
  O2-  O533  1  0.07710991  0.40906410  0.67183989  1
  O2-  O534  1  0.08425492  0.64047908  0.02587148  1
  O2-  O535  1  0.08842837  0.67460250  0.34677198  1
  O2-  O536  1  0.09234363  0.67358725  0.68705010  1
  O2-  O537  1  0.08643945  0.92752526  0.01356051  1
  O2-  O538  1  0.09487837  0.93026313  0.35670613  1
  O2-  O539  1  0.09448388  0.92041157  0.68819542  1
  O2-  O540  1  0.33768996  0.17129209  0.02023910  1
  O2-  O541  1  0.32815446  0.17997304  0.35148929  1
  O2-  O542  1  0.34627016  0.16633376  0.68021090  1
  O2-  O543  1  0.33669414  0.41950187  0.01817662  1
  O2-  O544  1  0.33239231  0.40935020  0.35734703  1
  O2-  O545  1  0.28821179  0.33732487  0.70578204  1
  O2-  O546  1  0.32971557  0.64235739  0.02563822  1
  O2-  O547  1  0.31680949  0.64715841  0.35201283  1
  O2-  O548  1  0.31838400  0.65622372  0.69294039  1
  O2-  O549  1  0.34365213  0.93326816  0.00229429  1
  O2-  O550  1  0.32454116  0.92951317  0.34900277  1
  O2-  O551  1  0.33130180  0.90790505  0.70416820  1
  O2-  O552  1  0.56399536  0.17375803  0.02233005  1
  O2-  O553  1  0.56329244  0.18296548  0.36985404  1
  O2-  O554  1  0.57214163  0.14581491  0.68903909  1
  O2-  O555  1  0.57275986  0.38417909  0.00150167  1
  O2-  O556  1  0.55911430  0.33129894  0.37510933  1
  O2-  O557  1  0.58116516  0.42837246  0.68858026  1
  O2-  O558  1  0.62807209  0.69579283  0.03228530  1
  O2-  O559  1  0.58133683  0.66739739  0.35471106  1
  O2-  O560  1  0.59276585  0.67739586  0.68246279  1
  O2-  O561  1  0.59740337  0.93132762  0.02825737  1
  O2-  O562  1  0.57449533  0.90275863  0.35146837  1
  O2-  O563  1  0.60189230  0.91125100  0.68179961  1
  O2-  O564  1  0.85257563  0.16041198  0.02942410  1
  O2-  O565  1  0.82301762  0.17921782  0.35306964  1
  O2-  O566  1  0.82727502  0.17948121  0.69510710  1
  O2-  O567  1  0.82201352  0.39383905  0.02310708  1
  O2-  O568  1  0.83127202  0.39980984  0.36253381  1
  O2-  O569  1  0.84273579  0.43420617  0.68833253  1
  O2-  O570  1  0.78799580  0.70134290  0.04023763  1
  O2-  O571  1  0.76885472  0.57985368  0.33949669  1
  O2-  O572  1  0.83828725  0.67103341  0.68610780  1
  O2-  O573  1  0.84374782  0.93364461  0.01841603  1
  O2-  O574  1  0.82225451  0.92951724  0.34761012  1
  O2-  O575  1  0.83928397  0.90964652  0.68811175  1
