# generated using pymatgen
data_H2O
_symmetry_space_group_name_H-M   'P 1'
_cell_length_a   17.98997341
_cell_length_b   17.98652446
_cell_length_c   21.99282423
_cell_angle_alpha   89.99917434
_cell_angle_beta   90.02404312
_cell_angle_gamma   119.99315585
_symmetry_Int_Tables_number   1
_chemical_formula_structural   H2O
_chemical_formula_sum   'H384 O192'
_cell_volume   6163.38514543
_cell_formula_units_Z   192
loop_
 _symmetry_equiv_pos_site_id
 _symmetry_equiv_pos_as_xyz
  1  'x, y, z'
loop_
 _atom_type_symbol
 _atom_type_oxidation_number
  H+  1.0
  O2-  -2.0
loop_
 _atom_site_type_symbol
 _atom_site_label
 _atom_site_symmetry_multiplicity
 _atom_site_fract_x
 _atom_site_fract_y
 _atom_site_fract_z
 _atom_site_occupancy
  H+  H0  1  0.36578394  0.22681360  0.82893371  1
  H+  H1  1  0.11443693  1.00276274  0.49358857  1
  H+  H2  1  0.24819959  0.86687131  0.33465720  1
  H+  H3  1  0.98171649  0.87006305  0.84652243  1
  H+  H4  1  0.41251895  0.07952207  0.93072145  1
  H+  H5  1  0.48400059  0.62612667  0.98845815  1
  H+  H6  1  0.15587032  0.37580040  0.51147003  1
  H+  H7  1  0.61580320  0.47195074  0.83273599  1
  H+  H8  1  0.36174440  0.72352415  0.00236511  1
  H+  H9  1  0.66655874  0.58007809  0.23028454  1
  H+  H10  1  0.36794049  0.47861299  0.33759208  1
  H+  H11  1  0.76896166  0.13154304  0.17132559  1
  H+  H12  1  0.12086211  0.38877176  0.67291425  1
  H+  H13  1  0.73198887  0.89316408  0.49628444  1
  H+  H14  1  0.14285310  0.27072402  0.99181479  1
  H+  H15  1  0.60854070  0.62667775  0.15625344  1
  H+  H16  1  -0.01247603  0.61487077  -0.00888129  1
  H+  H17  1  0.70512066  0.67925955  0.52802388  1
  H+  H18  1  0.43293439  0.07547330  0.41712729  1
  H+  H19  1  0.88651655  0.60641063  0.64786273  1
  H+  H20  1  0.12028612  0.63830331  0.48272260  1
  H+  H21  1  0.03826174  0.65242692  0.32609928  1
  H+  H22  1  0.51527467  0.12995137  -0.00653862  1
  H+  H23  1  0.36829994  0.47881834  1.00100626  1
  H+  H24  1  0.58090106  0.59231109  0.49396415  1
  H+  H25  1  0.65131856  0.57944080  1.01295708  1
  H+  H26  1  0.36465164  0.54370331  0.47683132  1
  H+  H27  1  0.63384206  0.36563452  0.65416278  1
  H+  H28  1  0.61076527  0.38439316  0.33806358  1
  H+  H29  1  0.22749918  0.11341184  -0.00796493  1
  H+  H30  1  0.08924397  0.41697778  0.06010697  1
  H+  H31  1  0.87961801  0.27594849  0.83119736  1
  H+  H32  1  0.63753940  0.10771306  0.66123443  1
  H+  H33  1  0.13690225  0.86889630  0.17304984  1
  H+  H34  1  0.29886354  0.41167461  0.49762284  1
  H+  H35  1  0.40126083  0.81732694  0.58746579  1
  H+  H36  1  0.27487120  0.63944029  0.15825417  1
  H+  H37  1  0.13924963  0.52226358  0.66149830  1
  H+  H38  1  0.75225911  0.91150857  0.14026373  1
  H+  H39  1  0.38900118  1.02485675  0.83494666  1
  H+  H40  1  1.03083613  0.16315603  0.83782309  1
  H+  H41  1  0.62363405  0.76473044  0.33459638  1
  H+  H42  1  0.61415679  0.89338103  0.15845048  1
  H+  H43  1  0.38728627  0.36357541  0.99204678  1
  H+  H44  1  0.12891886  0.65379491  0.33152819  1
  H+  H45  1  0.02805838  0.91876818  0.14399876  1
  H+  H46  1  0.63742105  0.11494049  0.83905932  1
  H+  H47  1  0.63510496  0.26115964  0.18016841  1
  H+  H48  1  0.87447674  0.98640031  0.83305882  1
  H+  H49  1  0.89109545  0.35394845  0.17375087  1
  H+  H50  1  0.62172879  0.89075142  0.84072383  1
  H+  H51  1  0.15443967  1.12944874  0.51503631  1
  H+  H52  1  0.35564165  0.22578659  0.67337740  1
  H+  H53  1  0.87286014  0.47511060  0.32815131  1
  H+  H54  1  0.35754331  0.47739554  0.15509210  1
  H+  H55  1  0.89427213  0.87376055  -0.00202069  1
  H+  H56  1  0.36265746  0.63546854  0.00510573  1
  H+  H57  1  1.02339101  0.63271636  0.67229350  1
  H+  H58  1  0.11877720  0.15605527  0.33758127  1
  H+  H59  1  0.75605278  0.59836878  0.34180578  1
  H+  H60  1  0.89530934  0.60536129  -0.00442415  1
  H+  H61  1  0.74324606  0.12496585  0.51194475  1
  H+  H62  1  0.46692694  0.60961601  0.17047232  1
  H+  H63  1  -0.01241902  0.86420482  0.51044779  1
  H+  H64  1  0.37812834  0.73396071  0.81171500  1
  H+  H65  1  0.98580833  0.35859522  0.51214247  1
  H+  H66  1  0.57541703  0.72734156  0.52008807  1
  H+  H67  1  0.88964922  0.26988773  0.33216659  1
  H+  H68  1  0.47159437  0.35404485  -0.00410694  1
  H+  H69  1  0.12012174  0.39014901  1.00067415  1
  H+  H70  1  0.26371572  0.62998592  0.66548192  1
  H+  H71  1  0.73404912  0.35040099  0.99940268  1
  H+  H72  1  0.61595270  0.48937332  0.48652182  1
  H+  H73  1  0.84455068  0.17014051  0.40971097  1
  H+  H74  1  0.36795799  0.14428157  0.14911290  1
  H+  H75  1  0.72376444  0.60233883  0.16912603  1
  H+  H76  1  1.02794312  0.38833303  0.16026093  1
  H+  H77  1  0.12635304  0.60011840  0.83979007  1
  H+  H78  1  0.22338579  0.13245520  0.32022048  1
  H+  H79  1  0.36153459  0.97021510  0.00312511  1
  H+  H80  1  0.64325399  0.76201820  0.17510168  1
  H+  H81  1  0.72724000  0.62026383  0.66750623  1
  H+  H82  1  0.47697333  0.86273471  0.32992317  1
  H+  H83  1  0.94876423  0.07847103  0.34981013  1
  H+  H84  1  0.51841962  0.12578450  0.65045616  1
  H+  H85  1  0.60574645  0.88691613  0.34269678  1
  H+  H86  1  0.89945742  0.51875608  0.16047661  1
  H+  H87  1  0.77788950  0.14202726  0.82850587  1
  H+  H88  1  0.37868880  0.64570679  0.81587564  1
  H+  H89  1  0.61733726  0.37317407  0.02112130  1
  H+  H90  1  0.60939561  0.17109450  0.09634555  1
  H+  H91  1  0.12687771  0.83805385  0.50747229  1
  H+  H92  1  0.49438633  0.38543952  0.16546264  1
  H+  H93  1  0.38830987  0.63883809  0.63429857  1
  H+  H94  1  0.37058769  0.84493650  0.51141493  1
  H+  H95  1  0.16618363  0.08624550  0.89991180  1
  H+  H96  1  0.74259711  0.85899138  0.50474716  1
  H+  H97  1  0.37995018  0.61396900  0.16796350  1
  H+  H98  1  0.02187014  0.39074072  0.34197447  1
  H+  H99  1  0.14025750  0.02304581  0.99271174  1
  H+  H100  1  0.87555442  0.14107402  0.49682548  1
  H+  H101  1  0.38796004  0.85612543  0.98868551  1
  H+  H102  1  0.09153886  0.41654467  0.73265868  1
  H+  H103  1  0.33300341  0.90965309  0.06213957  1
  H+  H104  1  0.87170106  0.73130798  0.66900706  1
  H+  H105  1  0.63572464  0.89396977  0.68267104  1
  H+  H106  1  0.38695232  0.61605945  0.32440553  1
  H+  H107  1  0.92150364  0.83432136  0.60487346  1
  H+  H108  1  0.98279277  0.36070612  0.66223428  1
  H+  H109  1  0.99640720  0.89071383  0.34099649  1
  H+  H110  1  0.72036214  0.35911023  0.82270648  1
  H+  H111  1  0.60125779  0.16771582  -0.04254995  1
  H+  H112  1  0.36269976  0.38034564  0.68077825  1
  H+  H113  1  0.14347782  0.77521825  0.33198183  1
  H+  H114  1  0.37083543  0.96735132  0.35498576  1
  H+  H115  1  0.88545719  0.35741871  0.32651461  1
  H+  H116  1  1.02019046  0.64076810  0.82663885  1
  H+  H117  1  0.88973191  0.42389293  0.08728626  1
  H+  H118  1  0.66974309  0.08676933  0.89921181  1
  H+  H119  1  0.63970154  0.27116015  1.00558247  1
  H+  H120  1  0.98545796  0.59558807  0.50239552  1
  H+  H121  1  0.04263667  0.15252305  0.50191794  1
  H+  H122  1  0.90959665  0.47467915  -0.00238884  1
  H+  H123  1  0.62764746  0.51569945  0.31814404  1
  H+  H124  1  0.77580987  0.13401040  0.67776279  1
  H+  H125  1  0.47459687  0.35974151  0.66124226  1
  H+  H126  1  1.11352599  0.97921802  0.82885585  1
  H+  H127  1  0.85278782  0.38641720  0.81647521  1
  H+  H128  1  0.86257188  0.48125944  0.48898169  1
  H+  H129  1  0.84378222  0.96812354  0.33135022  1
  H+  H130  1  0.65014944  0.11555798  0.17517500  1
  H+  H131  1  0.36568083  0.75239748  0.65393320  1
  H+  H132  1  0.73064561  0.38245751  0.49520277  1
  H+  H133  1  0.16589378  0.88475752  0.33947188  1
  H+  H134  1  0.65046192  0.12054408  0.33922803  1
  H+  H135  1  0.52287838  0.38470963  0.82860585  1
  H+  H136  1  0.90246129  0.90182383  0.48272509  1
  H+  H137  1  0.78840303  0.89257169  0.67810773  1
  H+  H138  1  0.62035510  0.40342062  0.48707471  1
  H+  H139  1  0.11648838  0.72605330  0.00428878  1
  H+  H140  1  0.22633383  0.11713032  0.66562038  1
  H+  H141  1  0.55616433  0.69976386  0.70353522  1
  H+  H142  1  0.10931140  0.22944049  0.15688315  1
  H+  H143  1  0.89595903  1.02573762  0.66541647  1
  H+  H144  1  0.47529606  0.85138868  0.98275812  1
  H+  H145  1  0.21744577  0.84576838  0.51234979  1
  H+  H146  1  0.14064547  0.61450896  0.17445785  1
  H+  H147  1  0.89404349  0.60498862  0.31911588  1
  H+  H148  1  0.86643074  0.74391392  0.84083006  1
  H+  H149  1  0.11657930  0.39040907  0.15642373  1
  H+  H150  1  0.68301761  0.08770108  0.57192859  1
  H+  H151  1  0.63479157  0.60848414  0.32037104  1
  H+  H152  1  0.60215333  0.21893186  0.66047408  1
  H+  H153  1  0.27550132  0.13897923  0.83013302  1
  H+  H154  1  0.79031309  0.63760552  0.50116656  1
  H+  H155  1  0.11971045  0.88591656  0.00337776  1
  H+  H156  1  0.53307132  0.13172175  0.14236133  1
  H+  H157  1  0.60884546  0.17413825  0.42069361  1
  H+  H158  1  0.64493269  0.27831890  0.34411570  1
  H+  H159  1  0.13491050  0.52230114  0.99536407  1
  H+  H160  1  0.83934767  0.99925851  0.14166885  1
  H+  H161  1  0.38866802  0.77421685  0.17148368  1
  H+  H162  1  0.91842382  0.90594508  0.16431192  1
  H+  H163  1  0.22874151  0.61206561  0.33184519  1
  H+  H164  1  0.11561897  0.89062826  0.82979891  1
  H+  H165  1  0.64460702  0.76959097  -0.03270459  1
  H+  H166  1  0.22357594  0.61204815  0.99499368  1
  H+  H167  1  0.89413398  0.87457326  0.84904935  1
  H+  H168  1  0.11358374  0.72775315  0.15922355  1
  H+  H169  1  0.63535643  0.61668944  0.66634572  1
  H+  H170  1  0.75752914  0.38737709  0.66478129  1
  H+  H171  1  0.60593184  0.45239309  0.00823347  1
  H+  H172  1  0.54440208  0.14336678  0.36636095  1
  H+  H173  1  0.57830825  0.86178738  0.49737722  1
  H+  H174  1  0.98178225  0.11661540  0.66524559  1
  H+  H175  1  0.47951810  0.86806279  0.83748969  1
  H+  H176  1  0.02339508  0.38041791  0.81960300  1
  H+  H177  1  0.73283945  0.11017534  0.99474698  1
  H+  H178  1  0.15999588  0.30666020  0.32077730  1
  H+  H179  1  0.11362264  0.46217322  0.82911109  1
  H+  H180  1  0.92074778  1.03759801  0.50491547  1
  H+  H181  1  0.86883798  0.13722008  0.17020371  1
  H+  H182  1  0.07410514  0.64470358  0.42484785  1
  H+  H183  1  0.27611652  0.88705134  0.15918669  1
  H+  H184  1  0.78167067  0.13754240  0.35032210  1
  H+  H185  1  0.88423148  0.86509243  0.14957707  1
  H+  H186  1  0.83408656  0.83635121  0.31424321  1
  H+  H187  1  0.87044037  0.15661236  0.00489942  1
  H+  H188  1  0.23105856  0.12270125  0.16917209  1
  H+  H189  1  0.52029822  0.63110061  0.33186510  1
  H+  H190  1  0.22151270  0.36118526  0.16445042  1
  H+  H191  1  0.22831085  0.86599228  0.83424291  1
  H+  H192  1  0.10870794  0.31303757  0.82723498  1
  H+  H193  1  0.16231477  0.31543992  -0.07208253  1
  H+  H194  1  0.27890946  0.38851767  -0.00245516  1
  H+  H195  1  0.22717801  0.86021517  -0.00985867  1
  H+  H196  1  0.39840136  0.26385742  0.51227034  1
  H+  H197  1  0.98187173  0.81842981  0.20800634  1
  H+  H198  1  0.89240892  0.04013714  0.98812542  1
  H+  H199  1  0.07983519  0.66796841  0.76804278  1
  H+  H200  1  0.38321550  0.11274129  0.98944946  1
  H+  H201  1  0.89459065  0.12560994  0.84056632  1
  H+  H202  1  0.78781962  0.90516082  -0.02267065  1
  H+  H203  1  0.13804342  1.02537000  0.66467852  1
  H+  H204  1  0.61173881  0.87597607  -0.02721760  1
  H+  H205  1  0.27980949  0.38137447  0.82903060  1
  H+  H206  1  0.11096733  0.72352828  0.67418000  1
  H+  H207  1  0.02795513  0.88652611  0.67658569  1
  H+  H208  1  0.77833532  0.39035927  0.33401471  1
  H+  H209  1  0.61414282  0.47836344  0.67455560  1
  H+  H210  1  0.39029525  0.02213003  0.14224657  1
  H+  H211  1  0.72769983  0.61283698  0.84970870  1
  H+  H212  1  0.86627474  0.23148803  0.17182602  1
  H+  H213  1  0.11380498  0.13515798  1.00609289  1
  H+  H214  1  0.36762810  0.96756494  0.64899511  1
  H+  H215  1  0.10852757  0.48219242  0.34205771  1
  H+  H216  1  0.85741755  0.48265953  0.66425455  1
  H+  H217  1  0.51773856  0.13760526  0.81845399  1
  H+  H218  1  0.36608220  0.11999295  0.51400967  1
  H+  H219  1  0.38723033  0.11326306  0.83903638  1
  H+  H220  1  0.35963514  0.64328304  0.41542481  1
  H+  H221  1  1.04911696  0.18595266  0.33898657  1
  H+  H222  1  0.60814502  0.62054524  0.82751544  1
  H+  H223  1  0.15940011  0.28944627  0.51201833  1
  H+  H224  1  0.48365821  0.08939820  0.52976285  1
  H+  H225  1  0.88494471  0.11601834  0.33797867  1
  H+  H226  1  0.13808462  0.86020249  0.66329122  1
  H+  H227  1  0.11643773  0.63594263  0.00732925  1
  H+  H228  1  0.27519958  0.38236687  0.68310230  1
  H+  H229  1  0.90579968  0.61382532  0.50812019  1
  H+  H230  1  0.37237300  0.85140446  0.65299619  1
  H+  H231  1  0.60402090  0.19602454  0.53287264  1
  H+  H232  1  0.35820961  0.96127840  0.50878325  1
  H+  H233  1  0.36628373  0.87497434  0.34293809  1
  H+  H234  1  0.30108610  0.68097899  0.41062560  1
  H+  H235  1  0.14304986  0.03312842  0.16802745  1
  H+  H236  1  0.90283171  0.77153461  0.50794342  1
  H+  H237  1  0.78532218  0.89814140  0.84077014  1
  H+  H238  1  0.14014471  0.27403507  0.66270152  1
  H+  H239  1  0.84971446  0.47470563  0.82188968  1
  H+  H240  1  0.79248128  0.65801557  0.01278225  1
  H+  H241  1  0.84221986  0.75841107  0.33591790  1
  H+  H242  1  0.36117202  0.22597236  1.00096104  1
  H+  H243  1  0.00010310  0.85163114  0.34747986  1
  H+  H244  1  0.89181501  0.86366985  0.66598955  1
  H+  H245  1  0.87873405  0.70976172  0.17104175  1
  H+  H246  1  0.87187190  0.61816663  0.15182397  1
  H+  H247  1  0.39562309  0.10438541  0.36474272  1
  H+  H248  1  0.13306739  0.37777125  0.31606673  1
  H+  H249  1  0.63804570  0.09466499  -0.00194241  1
  H+  H250  1  0.66985966  0.66874297  0.99000680  1
  H+  H251  1  0.36702822  0.89195304  0.81921803  1
  H+  H252  1  0.11071779  0.14085925  0.15925530  1
  H+  H253  1  0.41817878  0.08532352  0.08749678  1
  H+  H254  1  0.87932161  0.23298019  0.49868427  1
  H+  H255  1  0.13776054  0.61006542  0.66337011  1
  H+  H256  1  0.60203771  0.47821563  0.16324031  1
  H+  H257  1  0.63879675  0.29623425  0.49005114  1
  H+  H258  1  0.36433093  0.88435326  0.16056624  1
  H+  H259  1  0.97889542  0.12112460  0.17396254  1
  H+  H260  1  0.14996935  0.99938884  0.33880207  1
  H+  H261  1  -0.01756219  0.12718161  -0.00692465  1
  H+  H262  1  0.87814779  0.61237185  0.84226209  1
  H+  H263  1  0.50982856  0.63344199  0.65221308  1
  H+  H264  1  0.27469199  0.88439395  0.66399223  1
  H+  H265  1  0.80293763  0.38832041  0.12060397  1
  H+  H266  1  0.71203306  0.35481586  0.19176352  1
  H+  H267  1  0.44913876  0.63173529  0.47493804  1
  H+  H268  1  0.27038353  0.07246497  0.37078402  1
  H+  H269  1  0.78188030  0.54071492  0.37894826  1
  H+  H270  1  0.14099993  0.12304511  0.84283288  1
  H+  H271  1  0.33757464  0.41308305  0.76852829  1
  H+  H272  1  0.89448003  0.27261220  0.66398709  1
  H+  H273  1  0.64754709  1.02534950  0.18124238  1
  H+  H274  1  0.11502704  0.13664725  0.67970753  1
  H+  H275  1  0.36862178  0.39095015  0.33959807  1
  H+  H276  1  0.66197612  0.77196977  0.65707278  1
  H+  H277  1  0.61187047  0.97928434  0.34330160  1
  H+  H278  1  0.61891889  0.97734074  0.83317218  1
  H+  H279  1  0.47705606  0.35775103  0.32163158  1
  H+  H280  1  0.39288032  0.77071335  0.33732814  1
  H+  H281  1  0.64502901  1.02214951  0.66701704  1
  H+  H282  1  0.38106196  0.37253260  0.16862140  1
  H+  H283  1  0.33312791  0.41830839  0.09466607  1
  H+  H284  1  -0.07585011  0.84098601  -0.05888897  1
  H+  H285  1  0.47884706  0.60927471  0.84159882  1
  H+  H286  1  0.12918943  0.48279179  0.49330817  1
  H+  H287  1  0.46342977  0.85234562  0.50873349  1
  H+  H288  1  0.16038959  0.82295498  0.60353564  1
  H+  H289  1  0.39237367  0.36585994  0.83783104  1
  H+  H290  1  0.67646600  0.09161442  0.27709195  1
  H+  H291  1  0.32725864  0.14693661  0.41550649  1
  H+  H292  1  0.10055159  0.18365735  0.44190476  1
  H+  H293  1  0.40156507  0.59998403  0.57254780  1
  H+  H294  1  0.32961655  0.90869263  0.44492746  1
  H+  H295  1  0.66624258  0.34197187  0.59235044  1
  H+  H296  1  0.08974027  0.17543803  0.73717172  1
  H+  H297  1  0.86433142  0.66545745  0.72045921  1
  H+  H298  1  0.89556826  0.78171345  0.24964785  1
  H+  H299  1  0.03159122  0.89004232  0.00680934  1
  H+  H300  1  0.09246420  0.42132582  0.43652414  1
  H+  H301  1  0.80988274  0.69438059  0.78438959  1
  H+  H302  1  0.62382735  0.26162253  0.81825623  1
  H+  H303  1  0.16591894  0.09769436  0.26041690  1
  H+  H304  1  0.60091624  0.91946120  0.74061797  1
  H+  H305  1  0.58606623  0.41733837  0.73269565  1
  H+  H306  1  0.41077796  0.58712677  0.26215726  1
  H+  H307  1  0.09176173  0.92296763  0.09335235  1
  H+  H308  1  0.41413574  0.82818456  0.23335365  1
  H+  H309  1  0.75509354  0.88208240  0.34454625  1
  H+  H310  1  0.83609191  0.17444619  0.06589353  1
  H+  H311  1  0.42116313  0.33506279  0.89734463  1
  H+  H312  1  0.63019815  0.12680908  0.51074410  1
  H+  H313  1  0.61077806  0.95737158  -0.00492725  1
  H+  H314  1  0.33801598  0.66563599  0.72032473  1
  H+  H315  1  0.42233309  0.58764440  0.93098483  1
  H+  H316  1  0.28105885  0.12769619  0.50935446  1
  H+  H317  1  0.34474532  0.43258405  0.43235860  1
  H+  H318  1  0.41710495  0.32984793  0.60134364  1
  H+  H319  1  0.87727453  0.93306773  0.42208958  1
  H+  H320  1  0.17080650  0.08759066  0.57502585  1
  H+  H321  1  0.16874608  0.84170697  0.23218315  1
  H+  H322  1  0.51564197  0.72836503  0.57050265  1
  H+  H323  1  0.41217530  0.33934473  0.22996287  1
  H+  H324  1  0.67688350  0.60478784  0.57612477  1
  H+  H325  1  0.92764239  0.58540985  0.25680096  1
  H+  H326  1  0.56997126  0.41084308  0.10433344  1
  H+  H327  1  0.33337487  0.66862411  0.09744537  1
  H+  H328  1  0.48299139  0.53683359  0.47354323  1
  H+  H329  1  0.56590242  0.62876429  0.76688788  1
  H+  H330  1  0.57529275  0.65765539  0.10012739  1
  H+  H331  1  0.38777331  0.52390802  0.84287155  1
  H+  H332  1  0.56955256  0.63909927  0.39313005  1
  H+  H333  1  0.46066607  0.15125294  0.25091850  1
  H+  H334  1  0.65646282  0.82281932  0.60307199  1
  H+  H335  1  0.13805758  0.77722423  0.83646486  1
  H+  H336  1  0.17788416  0.33839457  0.60537110  1
  H+  H337  1  0.13226464  0.95696348  0.40473278  1
  H+  H338  1  0.83725851  0.65153420  0.43812941  1
  H+  H339  1  0.15444347  0.57321671  0.89994562  1
  H+  H340  1  0.47718505  0.35867782  0.50596940  1
  H+  H341  1  0.33267697  0.17019254  0.06189526  1
  H+  H342  1  0.92215300  0.57201001  0.59368101  1
  H+  H343  1  0.86476321  0.13292440  0.67733976  1
  H+  H344  1  0.02949918  0.96400812  0.45357920  1
  H+  H345  1  0.93002537  0.08577105  0.56925789  1
  H+  H346  1  0.33843434  0.92231786  0.75968067  1
  H+  H347  1  0.88330402  0.74351485  0.01462179  1
  H+  H348  1  0.62577734  0.36073202  0.82627449  1
  H+  H349  1  0.56628205  0.90557591  0.43817332  1
  H+  H350  1  0.83678898  0.16803872  0.76847204  1
  H+  H351  1  0.52719558  0.89378244  0.16946904  1
  H+  H352  1  0.84556840  0.30144821  1.00282913  1
  H+  H353  1  0.36651374  0.23296103  0.15754631  1
  H+  H354  1  0.91066380  0.57779343  0.89719559  1
  H+  H355  1  0.08358932  0.16666990  0.06502831  1
  H+  H356  1  0.84242112  0.92013837  0.74056825  1
  H+  H357  1  0.41227365  0.83130413  0.89165924  1
  H+  H358  1  0.41647078  0.14534858  0.25446898  1
  H+  H359  1  0.57150142  0.16182281  0.75512783  1
  H+  H360  1  0.64406500  0.75897250  0.03735979  1
  H+  H361  1  0.83161183  0.42494455  0.42670808  1
  H+  H362  1  0.84889507  0.67052552  0.09393153  1
  H+  H363  1  0.08645015  0.91675985  0.73601334  1
  H+  H364  1  0.57955389  0.42149079  0.39245590  1
  H+  H365  1  0.65362140  0.82302010  0.27528228  1
  H+  H366  1  0.82038162  0.42068414  0.72945730  1
  H+  H367  1  0.65800340  0.32153831  0.27832284  1
  H+  H368  1  0.32759079  0.16682419  0.73253845  1
  H+  H369  1  0.98452183  0.61304714  0.16252549  1
  H+  H370  1  0.73413876  0.81308547  0.20527831  1
  H+  H371  1  0.38681425  0.27044523  0.32122377  1
  H+  H372  1  0.91094713  0.34412642  0.88532389  1
  H+  H373  1  0.16824084  0.83325039  0.93036886  1
  H+  H374  1  0.08866768  0.67018742  0.09823402  1
  H+  H375  1  0.92014042  0.08869587  0.23504374  1
  H+  H376  1  0.66703144  0.58486318  0.90675211  1
  H+  H377  1  0.14002387  0.52545431  0.17468607  1
  H+  H378  1  0.16075895  0.33725880  0.22367452  1
  H+  H379  1  0.81947966  0.93514485  0.04585975  1
  H+  H380  1  0.92517262  0.32606617  0.57066887  1
  H+  H381  1  0.92573332  0.10094914  0.90145631  1
  H+  H382  1  0.91434473  0.32351056  0.23822859  1
  H+  H383  1  0.17585241  0.58973371  0.26886723  1
  O2-  O384  1  0.07653890  0.16689499  0.14431802  1
  O2-  O385  1  0.10345751  0.18149241  0.48684413  1
  O2-  O386  1  0.09283085  0.19361647  0.82149920  1
  O2-  O387  1  0.08695848  0.42333033  0.14482279  1
  O2-  O388  1  0.09737153  0.42182035  0.48166347  1
  O2-  O389  1  0.08489908  0.40192185  0.81195472  1
  O2-  O390  1  0.08489175  0.66765565  0.14423669  1
  O2-  O391  1  0.06382593  0.61274292  0.46302346  1
  O2-  O392  1  0.08081492  0.67215723  0.81360312  1
  O2-  O393  1  0.08546644  0.92589225  0.13954491  1
  O2-  O394  1  0.07517430  0.95190909  0.46658686  1
  O2-  O395  1  0.08181369  0.91796918  0.81549942  1
  O2-  O396  1  0.33417092  0.17345333  0.14152305  1
  O2-  O397  1  0.33989773  0.14920500  0.49178957  1
  O2-  O398  1  0.33609196  0.16554142  0.81583443  1
  O2-  O399  1  0.33212273  0.41667781  0.14034998  1
  O2-  O400  1  0.35336165  0.45101528  0.47618336  1
  O2-  O401  1  0.33974849  0.41509419  0.81613497  1
  O2-  O402  1  0.33555615  0.67006699  0.14338666  1
  O2-  O403  1  0.23660440  0.66769557  0.48140152  1
  O2-  O404  1  0.35868520  0.67821504  0.79127310  1
  O2-  O405  1  0.33507983  0.91427339  0.14224769  1
  O2-  O406  1  0.32233344  0.90370247  0.48941700  1
  O2-  O407  1  0.33668612  0.92305597  0.80488404  1
  O2-  O408  1  0.59742631  0.16357159  0.14006150  1
  O2-  O409  1  0.58859603  0.15375034  0.50041599  1
  O2-  O410  1  0.57743438  0.16947801  0.80057201  1
  O2-  O411  1  0.56326953  0.41660484  0.14956043  1
  O2-  O412  1  0.58805517  0.43126436  0.46994778  1
  O2-  O413  1  0.58493363  0.41341110  0.81382320  1
  O2-  O414  1  0.57902059  0.65929076  0.14450238  1
  O2-  O415  1  0.53566268  0.59337928  0.46916909  1
  O2-  O416  1  0.57452554  0.64514582  0.80981087  1
  O2-  O417  1  0.58932139  0.93055940  0.15952650  1
  O2-  O418  1  0.55853649  0.90049557  0.48276995  1
  O2-  O419  1  0.58945224  0.91601720  0.82079210  1
  O2-  O420  1  0.83412027  0.16646477  0.15559961  1
  O2-  O421  1  0.84584059  0.17108099  0.48092340  1
  O2-  O422  1  0.83871998  0.17424554  0.81446612  1
  O2-  O423  1  0.86421382  0.41796537  0.12980865  1
  O2-  O424  1  0.81735561  0.42701842  0.46991905  1
  O2-  O425  1  0.81954470  0.41557552  0.80303065  1
  O2-  O426  1  0.84302760  0.65530727  0.14171179  1
  O2-  O427  1  0.84785253  0.66490136  0.48221260  1
  O2-  O428  1  0.83076287  0.68375259  0.82250039  1
  O2-  O429  1  0.79232260  0.95978887  0.11474302  1
  O2-  O430  1  0.91728051  0.95291133  0.45723671  1
  O2-  O431  1  0.84407737  0.92484581  0.82079201  1
  O2-  O432  1  0.17040983  0.09272243  0.18420321  1
  O2-  O433  1  0.17667744  0.09107500  0.52904043  1
  O2-  O434  1  0.16687841  0.08778057  0.85432978  1
  O2-  O435  1  0.16045842  0.33130910  0.17739498  1
  O2-  O436  1  0.18925001  0.34938203  0.52774433  1
  O2-  O437  1  0.13659861  0.28220635  0.84615049  1
  O2-  O438  1  0.17174767  0.58599244  0.19064213  1
  O2-  O439  1  0.21859390  0.59946705  0.51028546  1
  O2-  O440  1  0.14663621  0.56208352  0.85562053  1
  O2-  O441  1  0.16582618  0.83751173  0.18749185  1
  O2-  O442  1  0.15705106  0.81246532  0.52720066  1
  O2-  O443  1  0.16930635  0.83796952  0.85196261  1
  O2-  O444  1  0.42310708  0.08528791  0.13176801  1
  O2-  O445  1  0.42206807  0.06162432  0.54306339  1
  O2-  O446  1  0.41987730  0.08429672  0.85312641  1
  O2-  O447  1  0.41485178  0.34377913  0.18390828  1
  O2-  O448  1  0.42214432  0.32347861  0.52675341  1
  O2-  O449  1  0.42426729  0.33582394  0.85209350  1
  O2-  O450  1  0.40665819  0.58007816  0.18458699  1
  O2-  O451  1  0.38726004  0.60846686  0.47827548  1
  O2-  O452  1  0.41887633  0.58402912  0.85823354  1
  O2-  O453  1  0.41727332  0.83409499  0.18833892  1
  O2-  O454  1  0.40329533  0.81755787  0.52623390  1
  O2-  O455  1  0.41680374  0.83940922  0.84660217  1
  O2-  O456  1  0.68227641  0.08894128  0.19332520  1
  O2-  O457  1  0.68276538  0.09445397  0.52686663  1
  O2-  O458  1  0.67081064  0.08858421  0.85374865  1
  O2-  O459  1  0.65254491  0.31575166  0.20248307  1
  O2-  O460  1  0.66756149  0.35038319  0.51246567  1
  O2-  O461  1  0.65679542  0.32542583  0.83458718  1
  O2-  O462  1  0.66422556  0.57797935  0.18386886  1
  O2-  O463  1  0.68402742  0.61762096  0.53087515  1
  O2-  O464  1  0.66699457  0.57472138  0.86250392  1
  O2-  O465  1  0.68339595  0.81741250  0.19570268  1
  O2-  O466  1  0.56981195  0.76647435  0.54795853  1
  O2-  O467  1  0.68952377  0.85462694  0.87400442  1
  O2-  O468  1  0.91812319  0.09454804  0.19031506  1
  O2-  O469  1  0.93722611  0.09368973  0.52405786  1
  O2-  O470  1  0.92959684  0.10012618  0.85576731  1
  O2-  O471  1  0.91383366  0.31846532  0.19198909  1
  O2-  O472  1  0.92536506  0.32334035  0.52486264  1
  O2-  O473  1  0.90683373  0.33966167  0.84107033  1
  O2-  O474  1  0.92171089  0.57866450  0.17562538  1
  O2-  O475  1  0.92793198  0.57668446  0.52336335  1
  O2-  O476  1  0.90361181  0.57630841  0.85197257  1
  O2-  O477  1  0.92816210  0.76699227  0.21844999  1
  O2-  O478  1  0.92805169  0.82995924  0.52616799  1
  O2-  O479  1  0.92204498  0.84123666  0.86420758  1
  O2-  O480  1  0.16351036  0.09928025  0.30615386  1
  O2-  O481  1  0.16405383  0.08560657  0.64982793  1
  O2-  O482  1  0.16654562  0.08349310  0.97784653  1
  O2-  O483  1  0.16182327  0.35083266  0.29369180  1
  O2-  O484  1  0.17300873  0.33559119  0.65081687  1
  O2-  O485  1  0.17413973  0.32835346  0.97167791  1
  O2-  O486  1  0.17133293  0.59224551  0.31432920  1
  O2-  O487  1  0.16976586  0.58304858  0.64702169  1
  O2-  O488  1  0.16234072  0.58451124  0.98225771  1
  O2-  O489  1  0.18298549  0.84278774  0.32031514  1
  O2-  O490  1  0.16555987  0.82691379  0.64904691  1
  O2-  O491  1  0.16613295  0.83182081  0.97606465  1
  O2-  O492  1  0.43147103  0.07680396  0.37272170  1
  O2-  O493  1  0.42848113  0.06055004  0.61059489  1
  O2-  O494  1  0.41366388  0.08115833  0.97672650  1
  O2-  O495  1  0.41702556  0.32849629  0.30427575  1
  O2-  O496  1  0.41443909  0.33080480  0.64719098  1
  O2-  O497  1  0.41396933  0.32905463  0.97735949  1
  O2-  O498  1  0.41821996  0.58920106  0.30744376  1
  O2-  O499  1  0.43227225  0.63297678  0.60875932  1
  O2-  O500  1  0.42376290  0.58774923  0.97749944  1
  O2-  O501  1  0.41505061  0.82675011  0.31643459  1
  O2-  O502  1  0.39821804  0.81587787  0.63737996  1
  O2-  O503  1  0.41240830  0.82205189  0.97136937  1
  O2-  O504  1  0.67641876  0.08721487  0.32206200  1
  O2-  O505  1  0.67364877  0.08251670  0.65006025  1
  O2-  O506  1  0.67325302  0.07410674  0.97806391  1
  O2-  O507  1  0.66767047  0.33490098  0.32296786  1
  O2-  O508  1  0.66640332  0.33794511  0.63772559  1
  O2-  O509  1  0.67289594  0.33418370  1.00034758  1
  O2-  O510  1  0.66380736  0.57711159  0.30417626  1
  O2-  O511  1  0.66794744  0.58983851  0.65039653  1
  O2-  O512  1  0.69042043  0.62511502  0.98577725  1
  O2-  O513  1  0.65104243  0.82566511  0.32015142  1
  O2-  O514  1  0.68640092  0.83124999  0.64266299  1
  O2-  O515  1  0.68976372  0.85413377  0.93584203  1
  O2-  O516  1  0.91226090  0.08280873  0.31876731  1
  O2-  O517  1  0.92228895  0.08462615  0.64795219  1
  O2-  O518  1  0.92216628  0.10270588  0.97775735  1
  O2-  O519  1  0.91678864  0.32770245  0.31204968  1
  O2-  O520  1  0.92295522  0.33092442  0.64631128  1
  O2-  O521  1  0.83744817  0.34936585  0.98848251  1
  O2-  O522  1  0.93388173  0.58747973  0.30187708  1
  O2-  O523  1  0.91328954  0.57077882  0.63990488  1
  O2-  O524  1  0.92598095  0.57864743  0.97682103  1
  O2-  O525  1  0.83204018  0.78250825  0.29927952  1
  O2-  O526  1  0.91924981  0.83047472  0.65024205  1
  O2-  O527  1  0.92462879  0.84149115  0.98691935  1
  O2-  O528  1  0.08571725  0.16827189  0.01966925  1
  O2-  O529  1  0.09941109  0.19164141  0.36015786  1
  O2-  O530  1  0.08469958  0.16841012  0.69258570  1
  O2-  O531  1  0.09046507  0.42040100  0.01526211  1
  O2-  O532  1  0.08241138  0.42205077  0.35655165  1
  O2-  O533  1  0.08985567  0.41867357  0.68742176  1
  O2-  O534  1  0.08537608  0.66704931  0.02213519  1
  O2-  O535  1  0.09809836  0.68603206  0.34292789  1
  O2-  O536  1  0.08093114  0.66360772  0.69106520  1
  O2-  O537  1  0.09270478  0.91874269  0.02108055  1
  O2-  O538  1  0.16646508  0.96586317  0.36614832  1
  O2-  O539  1  0.08862849  0.91695166  0.69056140  1
  O2-  O540  1  0.33346855  0.16546298  0.01673481  1
  O2-  O541  1  0.31775385  0.13299894  0.37065851  1
  O2-  O542  1  0.32106984  0.16536585  0.68787034  1
  O2-  O543  1  0.33799675  0.41814275  0.01593171  1
  O2-  O544  1  0.34234383  0.42213507  0.35782648  1
  O2-  O545  1  0.33441070  0.40975027  0.70035304  1
  O2-  O546  1  0.33194493  0.66446912  0.02117026  1
  O2-  O547  1  0.33677129  0.66755929  0.38350053  1
  O2-  O548  1  0.32895758  0.66402253  0.67464170  1
  O2-  O549  1  0.33190340  0.90949545  0.01679321  1
  O2-  O550  1  0.33326907  0.90363419  0.35851005  1
  O2-  O551  1  0.33715289  0.91352469  0.67456058  1
  O2-  O552  1  0.58000077  0.15873393  -0.00074219  1
  O2-  O553  1  0.60691043  0.17714201  0.37540695  1
  O2-  O554  1  0.57220528  0.15948554  0.67607067  1
  O2-  O555  1  0.57913216  0.39892708  0.03118589  1
  O2-  O556  1  0.57846467  0.41557094  0.34703962  1
  O2-  O557  1  0.58755459  0.41750333  0.68745231  1
  O2-  O558  1  0.62251926  0.72194285  0.00157632  1
  O2-  O559  1  0.57971623  0.65603484  0.34957619  1
  O2-  O560  1  0.56122793  0.65622678  0.68018515  1
  O2-  O561  1  0.57894380  0.89429577  -0.00107759  1
  O2-  O562  1  0.57568041  0.91802237  0.35589742  1
  O2-  O563  1  0.60621579  0.92469196  0.69561287  1
  O2-  O564  1  0.83443976  0.18021144  0.02158308  1
  O2-  O565  1  0.84333673  0.16793595  0.36281087  1
  O2-  O566  1  0.83566633  0.16298884  0.69468586  1
  O2-  O567  1  0.91147443  0.42487182  0.01675151  1
  O2-  O568  1  0.83992537  0.41715238  0.34662725  1
  O2-  O569  1  0.81873023  0.42152451  0.68310939  1
  O2-  O570  1  0.85197917  0.68141147  0.02925692  1
  O2-  O571  1  0.80531605  0.59974313  0.36468243  1
  O2-  O572  1  0.84026995  0.66773819  0.68115153  1
  O2-  O573  1  0.83953665  0.93024981  0.00432958  1
  O2-  O574  1  0.81895337  0.91033187  0.34994606  1
  O2-  O575  1  0.84732322  0.92019895  0.69513461  1
