# generated using pymatgen
data_H2O
_symmetry_space_group_name_H-M   'P 1'
_cell_length_a   17.98821573
_cell_length_b   17.98183207
_cell_length_c   22.01244993
_cell_angle_alpha   90.01801766
_cell_angle_beta   89.99817062
_cell_angle_gamma   119.98515095
_symmetry_Int_Tables_number   1
_chemical_formula_structural   H2O
_chemical_formula_sum   'H384 O192'
_cell_volume   6167.17078268
_cell_formula_units_Z   192
loop_
 _symmetry_equiv_pos_site_id
 _symmetry_equiv_pos_as_xyz
  1  'x, y, z'
loop_
 _atom_type_symbol
 _atom_type_oxidation_number
  H+  1.0
  O2-  -2.0
loop_
 _atom_site_type_symbol
 _atom_site_label
 _atom_site_symmetry_multiplicity
 _atom_site_fract_x
 _atom_site_fract_y
 _atom_site_fract_z
 _atom_site_occupancy
  H+  H0  1  0.83516485  0.17225922  0.71960502  1
  H+  H1  1  0.18338320  0.37350959  0.50010736  1
  H+  H2  1  0.59645982  0.45132801  0.66673007  1
  H+  H3  1  0.36709270  0.27556794  1.01837376  1
  H+  H4  1  0.87039661  0.86614118  0.98602429  1
  H+  H5  1  0.74910997  0.13236372  0.18089553  1
  H+  H6  1  0.35485605  0.94293440  0.77085366  1
  H+  H7  1  0.77895810  0.14573148  0.66004382  1
  H+  H8  1  0.04351602  0.89469027  0.82372299  1
  H+  H9  1  0.63756706  0.99431436  0.16307468  1
  H+  H10  1  0.99393856  0.36428858  0.98202391  1
  H+  H11  1  0.11089629  0.90040320  0.33620089  1
  H+  H12  1  0.37062465  -0.00264761  0.48896313  1
  H+  H13  1  0.14816683  0.77823402  0.17965785  1
  H+  H14  1  0.99583396  0.61724948  0.48558883  1
  H+  H15  1  0.62626788  0.72430749  0.02456102  1
  H+  H16  1  0.47359673  0.85897687  0.31051388  1
  H+  H17  1  0.97051656  0.36576096  0.20571305  1
  H+  H18  1  0.36356007  0.23458077  0.84585361  1
  H+  H19  1  0.37011600  0.25863904  0.18978590  1
  H+  H20  1  0.61689973  0.97180236  0.33728854  1
  H+  H21  1  0.60269950  0.46577300  0.34379082  1
  H+  H22  1  0.11854277  0.19580627  0.04357692  1
  H+  H23  1  0.41219050  0.06996600  0.24174253  1
  H+  H24  1  0.86883370  0.50167611  0.50357682  1
  H+  H25  1  0.14731663  0.11245115  0.65517185  1
  H+  H26  1  0.61527882  0.25346613  0.33341936  1
  H+  H27  1  0.27824724  0.44259078  0.99680523  1
  H+  H28  1  0.15199319  0.43104827  0.98229759  1
  H+  H29  1  0.79818715  0.14476948  0.00426608  1
  H+  H30  1  0.95520469  0.84433135  0.17230844  1
  H+  H31  1  0.73066171  0.86602822  0.65391870  1
  H+  H32  1  0.13567814  0.61034258  0.83262040  1
  H+  H33  1  0.40861117  0.64586761  1.00887338  1
  H+  H34  1  0.61793316  0.13719727  0.66405013  1
  H+  H35  1  0.42139231  0.65754141  0.64797427  1
  H+  H36  1  0.91516535  0.30655115  0.45232281  1
  H+  H37  1  0.39779522  0.51435648  0.02831387  1
  H+  H38  1  0.86056642  0.46829007  0.80868364  1
  H+  H39  1  0.62595996  0.50867497  0.50359422  1
  H+  H40  1  0.56114991  0.67692743  0.75618712  1
  H+  H41  1  0.63026332  0.60025611  0.49991234  1
  H+  H42  1  0.36237662  0.12477816  0.17569573  1
  H+  H43  1  0.47688268  0.10672912  0.18574540  1
  H+  H44  1  0.29166700  0.64140318  0.68191416  1
  H+  H45  1  0.40177682  0.80331568  0.21824200  1
  H+  H46  1  0.38060851  0.00424238  0.33279257  1
  H+  H47  1  0.81887461  0.44352094  0.36625061  1
  H+  H48  1  0.63978681  0.10817289  0.33523796  1
  H+  H49  1  0.87834952  0.77642385  0.65336581  1
  H+  H50  1  0.14314027  0.74368358  0.64926023  1
  H+  H51  1  0.11010013  0.10428147  0.04172705  1
  H+  H52  1  0.61898616  0.58793446  0.65269531  1
  H+  H53  1  0.15199157  0.52342162  0.66299283  1
  H+  H54  1  1.03073567  0.64366783  1.01525557  1
  H+  H55  1  0.36709563  0.28049281  0.33542971  1
  H+  H56  1  0.61149520  0.89620252  0.15622389  1
  H+  H57  1  0.21635139  0.09717852  1.01436662  1
  H+  H58  1  0.47290340  0.36297726  0.33339706  1
  H+  H59  1  0.85618778  0.71171388  0.49322246  1
  H+  H60  1  0.87644505  0.84207167  0.49816528  1
  H+  H61  1  0.91790289  0.10294175  0.55906447  1
  H+  H62  1  0.59537242  0.37245286  0.34451978  1
  H+  H63  1  0.86739784  0.59185335  0.49877141  1
  H+  H64  1  0.14820361  0.26977539  0.80598501  1
  H+  H65  1  0.35592944  0.30612166  0.69437213  1
  H+  H66  1  0.60616491  0.37313400  -0.01395290  1
  H+  H67  1  0.15582999  0.13167113  0.22764815  1
  H+  H68  1  0.36988938  0.14723566  0.83651470  1
  H+  H69  1  0.39640090  0.55787609  0.32846406  1
  H+  H70  1  0.76572729  0.13494819  0.81742293  1
  H+  H71  1  0.60787767  0.61916156  0.17311144  1
  H+  H72  1  0.29230593  0.66238975  1.01280695  1
  H+  H73  1  0.64650584  0.31799648  0.57032051  1
  H+  H74  1  0.02430115  0.64039081  0.16360626  1
  H+  H75  1  0.15773922  0.77546066  -0.00190052  1
  H+  H76  1  1.01422231  0.36236053  0.14579801  1
  H+  H77  1  0.68350553  0.27549476  0.03904296  1
  H+  H78  1  0.98129901  1.14106033  0.50134029  1
  H+  H79  1  0.71392491  0.36523367  0.18459241  1
  H+  H80  1  0.96628058  0.89960396  0.97435394  1
  H+  H81  1  0.16567647  0.26148566  0.35916885  1
  H+  H82  1  0.13819480  0.62807310  0.33243253  1
  H+  H83  1  0.46034783  0.09806973  0.49410409  1
  H+  H84  1  0.87000473  0.85295766  0.17175881  1
  H+  H85  1  0.70699253  0.34245446  0.51261886  1
  H+  H86  1  0.84323901  0.71612482  0.16492123  1
  H+  H87  1  0.66494977  0.81686900  0.56676812  1
  H+  H88  1  0.15616970  1.02886545  0.83249651  1
  H+  H89  1  0.74907897  0.89084143  0.82794193  1
  H+  H90  1  0.50000463  0.38196111  1.02644530  1
  H+  H91  1  0.03385956  0.66549412  0.33188602  1
  H+  H92  1  0.74097154  0.35309445  0.35034512  1
  H+  H93  1  0.32259966  0.41019698  0.70258983  1
  H+  H94  1  0.87749593  0.61905387  0.81449801  1
  H+  H95  1  0.88717431  0.99902102  0.82857328  1
  H+  H96  1  0.61678418  0.71280833  0.49016430  1
  H+  H97  1  0.87895439  0.61279633  0.16917674  1
  H+  H98  1  0.09996777  0.31277008  0.09950784  1
  H+  H99  1  0.08900319  0.97709336  0.33408336  1
  H+  H100  1  0.31385149  0.36779701  0.47639579  1
  H+  H101  1  0.11628311  0.64477109  0.16654038  1
  H+  H102  1  0.26100037  0.13343744  0.83454052  1
  H+  H103  1  0.58305546  0.16004497  0.11997491  1
  H+  H104  1  0.47287474  0.36511436  0.86703230  1
  H+  H105  1  0.60629621  0.81664327  1.06542701  1
  H+  H106  1  0.65679138  0.12530897  0.18631126  1
  H+  H107  1  0.91344939  0.57045417  0.59266124  1
  H+  H108  1  0.15472982  0.86371718  0.65596994  1
  H+  H109  1  0.53003682  0.64693876  0.01654199  1
  H+  H110  1  0.25579576  0.11105904  0.48655773  1
  H+  H111  1  0.39595123  0.03197349  0.67776760  1
  H+  H112  1  0.20428282  0.33059198  0.65698872  1
  H+  H113  1  0.01619583  0.11917295  0.66375033  1
  H+  H114  1  0.11224064  0.11672880  0.32624309  1
  H+  H115  1  0.00664103  0.62510490  0.78810749  1
  H+  H116  1  0.29145871  0.89963197  1.00902490  1
  H+  H117  1  0.37455338  0.83359207  0.49265405  1
  H+  H118  1  0.77518679  0.91226706  0.99732536  1
  H+  H119  1  0.63273804  0.60877316  1.00301514  1
  H+  H120  1  0.34973388  0.46922057  0.08860658  1
  H+  H121  1  0.72292410  0.35437930  0.65788323  1
  H+  H122  1  0.77080077  0.53869328  0.70993851  1
  H+  H123  1  0.11960114  0.47214465  0.82252425  1
  H+  H124  1  0.36204322  0.87655922  0.32883857  1
  H+  H125  1  0.89174309  0.63278431  0.32669078  1
  H+  H126  1  0.88848958  0.35537803  0.36606695  1
  H+  H127  1  0.05999672  0.17084694  0.19546246  1
  H+  H128  1  0.36476073  0.64526188  0.83946590  1
  H+  H129  1  0.53189823  0.89456325  0.66246822  1
  H+  H130  1  0.87912955  0.59224012  0.65190893  1
  H+  H131  1  0.88234179  0.16255247  0.50069300  1
  H+  H132  1  0.15499677  0.98443688  0.67089530  1
  H+  H133  1  0.26230189  0.15385792  0.31848339  1
  H+  H134  1  0.60750423  0.48140714  0.83202945  1
  H+  H135  1  0.38487054  0.77094615  0.31639644  1
  H+  H136  1  0.91331291  0.55606299  0.32151588  1
  H+  H137  1  0.17725357  0.62741391  0.52450155  1
  H+  H138  1  0.89273988  0.35814539  0.82899102  1
  H+  H139  1  0.38024460  0.75242234  1.01216219  1
  H+  H140  1  0.17596650  0.78924447  0.85283289  1
  H+  H141  1  0.15067636  0.11686764  0.82628566  1
  H+  H142  1  0.12188045  0.49083031  0.34774138  1
  H+  H143  1  0.88629218  0.24607044  0.15303849  1
  H+  H144  1  0.36041400  0.08982725  0.48379300  1
  H+  H145  1  0.13166049  0.89351214  0.83346237  1
  H+  H146  1  0.63325370  0.59317815  0.76195332  1
  H+  H147  1  0.12846296  0.35132995  0.64868414  1
  H+  H148  1  0.83892756  0.35002995  0.50382527  1
  H+  H149  1  0.13280501  0.00341080  1.01205757  1
  H+  H150  1  0.91887477  0.59875228  0.22995449  1
  H+  H151  1  0.07541503  0.91589368  0.43083476  1
  H+  H152  1  0.08605044  0.66073613  0.70115922  1
  H+  H153  1  0.35904813  0.14392378  0.01844559  1
  H+  H154  1  0.63117375  0.83593308  0.50424866  1
  H+  H155  1  0.59803344  0.37395748  0.49813234  1
  H+  H156  1  0.61955694  0.35663399  0.18284970  1
  H+  H157  1  0.63825192  0.76727749  0.32411741  1
  H+  H158  1  0.85856655  0.72640273  0.34281775  1
  H+  H159  1  0.18675370  0.54536351  0.51036130  1
  H+  H160  1  0.64403689  0.86792084  0.65143004  1
  H+  H161  1  0.12729357  0.23196658  0.49770152  1
  H+  H162  1  0.27831680  0.64769391  0.82945738  1
  H+  H163  1  0.31108082  0.68330381  0.50148522  1
  H+  H164  1  0.15406385  0.86125189  0.99874817  1
  H+  H165  1  0.52968943  0.73459227  0.78693814  1
  H+  H166  1  0.12626236  0.76142288  0.49715113  1
  H+  H167  1  1.03916415  0.39800549  0.36266798  1
  H+  H168  1  1.03308189  0.39492221  0.66339205  1
  H+  H169  1  1.04077579  0.13663455  0.82408127  1
  H+  H170  1  0.38190463  0.25766530  0.60132688  1
  H+  H171  1  0.27492182  0.64979565  0.34351407  1
  H+  H172  1  0.90817096  0.11657445  1.00579196  1
  H+  H173  1  0.16442413  0.38755879  0.34033775  1
  H+  H174  1  0.56032025  0.79120071  0.07523089  1
  H+  H175  1  0.85964867  0.88804758  0.33232130  1
  H+  H176  1  0.70146071  0.83301663  0.16905787  1
  H+  H177  1  0.83695025  0.11050404  0.80393519  1
  H+  H178  1  0.63323878  0.85507402  0.32206445  1
  H+  H179  1  0.68440836  0.16027447  0.98210050  1
  H+  H180  1  0.08854754  0.71512373  0.78303042  1
  H+  H181  1  0.37617738  0.24493104  0.50408997  1
  H+  H182  1  0.86607454  0.89198850  0.66416999  1
  H+  H183  1  0.88825410  0.11502506  0.65093058  1
  H+  H184  1  0.89861951  0.27317361  0.36041403  1
  H+  H185  1  0.73993252  0.58801449  0.66805437  1
  H+  H186  1  0.27455423  0.88368747  0.33490549  1
  H+  H187  1  0.62799438  0.90845457  0.81675185  1
  H+  H188  1  0.39651007  0.03870503  0.84280252  1
  H+  H189  1  0.58928398  0.66274694  0.39330481  1
  H+  H190  1  0.88458419  0.90979667  0.81966592  1
  H+  H191  1  0.07259744  0.60338170  0.46778949  1
  H+  H192  1  0.36090136  0.87523651  0.15570048  1
  H+  H193  1  0.59706593  0.93350332  0.51000874  1
  H+  H194  1  0.27737186  0.39026692  0.83940647  1
  H+  H195  1  0.76406885  0.62309943  0.49078567  1
  H+  H196  1  0.14628311  0.64293304  0.65433449  1
  H+  H197  1  0.77428938  0.37782412  0.80951840  1
  H+  H198  1  0.58717601  0.21906673  0.49743733  1
  H+  H199  1  0.24578108  0.13881802  0.64530942  1
  H+  H200  1  0.24876652  0.34023414  0.74266215  1
  H+  H201  1  0.53870642  0.92258154  0.00433709  1
  H+  H202  1  0.45864214  0.33542370  0.51634751  1
  H+  H203  1  0.28942488  0.42792214  0.39165215  1
  H+  H204  1  0.43185800  0.61058418  0.94847334  1
  H+  H205  1  0.02989327  0.84853455  -0.00004134  1
  H+  H206  1  0.85757705  0.39361813  0.18635577  1
  H+  H207  1  0.69339867  0.32313368  0.97794160  1
  H+  H208  1  0.83301790  0.40642781  0.71740685  1
  H+  H209  1  0.09203267  0.41820686  0.72357053  1
  H+  H210  1  0.65321402  0.05919650  0.99038789  1
  H+  H211  1  0.15620259  0.54477373  0.98788108  1
  H+  H212  1  0.18088292  0.30293369  0.02487450  1
  H+  H213  1  0.59106200  0.46132810  0.17558084  1
  H+  H214  1  0.45278285  0.35241902  0.18399759  1
  H+  H215  1  0.09881600  0.85205907  0.15883430  1
  H+  H216  1  0.63409102  0.26792148  0.81476963  1
  H+  H217  1  0.59283652  0.46853542  0.02701741  1
  H+  H218  1  0.87867316  0.61148154  1.01393838  1
  H+  H219  1  0.29987159  0.46282344  0.18514208  1
  H+  H220  1  0.40364339  0.87764575  0.83890704  1
  H+  H221  1  0.61053213  0.13520101  0.81695995  1
  H+  H222  1  0.08078210  0.41359804  0.50507681  1
  H+  H223  1  0.77330813  0.65537316  0.81135475  1
  H+  H224  1  0.85959386  0.72997549  0.00395083  1
  H+  H225  1  0.12761263  0.01528624  0.50479149  1
  H+  H226  1  0.62948471  0.35173272  0.66565574  1
  H+  H227  1  0.60657756  0.71710785  0.17161346  1
  H+  H228  1  0.89957644  0.36887757  0.64892917  1
  H+  H229  1  0.10744391  0.88107062  0.48592983  1
  H+  H230  1  0.53569105  0.63081638  0.33013244  1
  H+  H231  1  0.77481743  0.13333043  0.35000348  1
  H+  H232  1  0.63777926  0.03074660  0.65163482  1
  H+  H233  1  0.14307448  0.29033325  1.00372571  1
  H+  H234  1  0.38345683  0.54734357  0.48090822  1
  H+  H235  1  0.86121597  0.48434244  0.17684299  1
  H+  H236  1  0.40290690  0.88330177  0.99321521  1
  H+  H237  1  0.29832135  0.34124635  0.20809746  1
  H+  H238  1  0.59958298  0.13809656  0.49627419  1
  H+  H239  1  0.53363445  0.89836892  0.82163189  1
  H+  H240  1  0.37709517  0.09177639  0.33548834  1
  H+  H241  1  0.23460255  0.86907797  0.17317487  1
  H+  H242  1  0.81472727  0.94516482  0.15276541  1
  H+  H243  1  0.50773678  0.55945102  0.70482545  1
  H+  H244  1  0.90676486  0.14474015  0.18244721  1
  H+  H245  1  0.62655860  0.39745149  0.91730703  1
  H+  H246  1  0.82466007  0.66178739  0.75371326  1
  H+  H247  1  0.92952681  0.06997797  0.18161984  1
  H+  H248  1  0.39772356  0.78559398  0.84127918  1
  H+  H249  1  0.60117535  0.95353651  0.06269342  1
  H+  H250  1  0.87433205  0.48215892  0.03627375  1
  H+  H251  1  0.99025237  0.10468131  1.01810485  1
  H+  H252  1  0.66243846  0.06289247  0.48759968  1
  H+  H253  1  0.66499411  0.93092615  0.97946795  1
  H+  H254  1  0.76617229  0.86029315  0.49015609  1
  H+  H255  1  0.38194121  0.51946212  0.70578614  1
  H+  H256  1  0.72504809  0.60131283  0.33134372  1
  H+  H257  1  0.89714959  0.78886812  0.82324123  1
  H+  H258  1  0.24051650  0.85979127  0.63844588  1
  H+  H259  1  0.15155003  0.63017718  0.99248965  1
  H+  H260  1  0.39831688  0.77280097  0.65926181  1
  H+  H261  1  0.71132339  0.59715691  0.18040132  1
  H+  H262  1  0.51144297  0.85728219  0.48662092  1
  H+  H263  1  0.10898737  0.13512696  0.49780386  1
  H+  H264  1  0.47536086  0.12847690  0.99785431  1
  H+  H265  1  0.37069309  0.96934505  0.16560966  1
  H+  H266  1  0.80718941  0.37394510  0.02959272  1
  H+  H267  1  0.15943973  0.38399545  0.14471224  1
  H+  H268  1  0.29476971  0.90597427  0.83025259  1
  H+  H269  1  0.88356447  0.02314995  0.64761019  1
  H+  H270  1  0.19860782  0.29065649  0.19922523  1
  H+  H271  1  0.86999475  1.00713980  0.33032485  1
  H+  H272  1  0.88802616  0.23168813  1.00468072  1
  H+  H273  1  0.10096127  0.20890201  0.66328050  1
  H+  H274  1  0.17280405  0.55793242  0.17838929  1
  H+  H275  1  0.39046649  0.51469845  0.73894450  1
  H+  H276  1  0.26741820  0.86854973  0.48478937  1
  H+  H277  1  0.52204333  0.13875539  0.81902713  1
  H+  H278  1  0.63725008  1.03158630  0.83312238  1
  H+  H279  1  0.14276387  0.79499830  0.32888475  1
  H+  H280  1  0.37789809  0.37165399  0.02017434  1
  H+  H281  1  0.90589022  0.28490400  0.64885760  1
  H+  H282  1  0.35012541  -0.06914165  1.06814018  1
  H+  H283  1  0.96781574  0.84652652  0.50139827  1
  H+  H284  1  0.86002161  0.46671903  0.65799408  1
  H+  H285  1  0.47070526  0.62282110  0.84814490  1
  H+  H286  1  0.61941172  0.23492205  0.66775055  1
  H+  H287  1  0.96792383  0.86164636  0.32808497  1
  H+  H288  1  0.66732452  0.09435408  0.59317000  1
  H+  H289  1  0.84629584  0.41947166  0.09895303  1
  H+  H290  1  0.84554493  0.93137124  0.72333389  1
  H+  H291  1  0.42114123  0.81276141  0.59232579  1
  H+  H292  1  0.85026260  0.17508326  0.10092718  1
  H+  H293  1  0.42254819  0.57459190  0.25965902  1
  H+  H294  1  0.66338174  0.32772083  0.87214945  1
  H+  H295  1  0.90613739  0.82843372  0.26944089  1
  H+  H296  1  0.81922209  0.66228504  0.10338479  1
  H+  H297  1  0.08144899  0.15068423  0.75585214  1
  H+  H298  1  0.91421409  0.09057414  0.27726848  1
  H+  H299  1  0.20328831  0.58761004  0.60763196  1
  H+  H300  1  0.12474321  0.92602329  0.73053475  1
  H+  H301  1  0.76764510  0.88506060  0.32986775  1
  H+  H302  1  0.40883260  0.33088747  0.92409898  1
  H+  H303  1  0.83200138  0.66222854  0.40113290  1
  H+  H304  1  0.07976078  0.68230515  0.39568107  1
  H+  H305  1  0.93577952  0.14999512  0.86713912  1
  H+  H306  1  0.63895248  0.60699782  0.33169165  1
  H+  H307  1  0.92504531  0.59604191  0.86468013  1
  H+  H308  1  0.65047416  0.81229547  0.23323857  1
  H+  H309  1  0.68174152  0.08960161  0.27689176  1
  H+  H310  1  0.56430389  0.40170865  0.44000866  1
  H+  H311  1  0.91992839  0.84081891  0.88558489  1
  H+  H312  1  0.18637265  0.32946223  0.56091116  1
  H+  H313  1  0.39270004  0.03565500  0.99814794  1
  H+  H314  1  0.60615988  0.39249870  0.82513531  1
  H+  H315  1  0.87479222  0.35175655  0.26406489  1
  H+  H316  1  0.17146465  0.59821816  0.27570419  1
  H+  H317  1  0.10872383  0.42518060  0.04547906  1
  H+  H318  1  0.34400210  0.69587726  0.39591810  1
  H+  H319  1  0.16294725  0.82406141  0.55408140  1
  H+  H320  1  0.65189598  0.56469378  0.94712300  1
  H+  H321  1  0.24435178  0.65451983  0.18290658  1
  H+  H322  1  0.22116911  0.36715482  0.29354490  1
  H+  H323  1  0.42668994  0.09997224  0.90142899  1
  H+  H324  1  0.06821499  0.87335841  0.06641286  1
  H+  H325  1  0.38649033  0.53178400  0.86495849  1
  H+  H326  1  0.12318065  0.44176345  0.43939847  1
  H+  H327  1  0.01507754  0.77671683  0.13206924  1
  H+  H328  1  0.80896318  0.89693655  0.09151337  1
  H+  H329  1  0.40750486  0.64402704  0.49039007  1
  H+  H330  1  0.35222241  0.67892493  0.74026309  1
  H+  H331  1  0.17056052  0.59420574  0.89577437  1
  H+  H332  1  0.51636761  0.36111307  0.68616545  1
  H+  H333  1  0.58059221  0.90627650  0.39240863  1
  H+  H334  1  0.32932465  0.89750084  0.42594456  1
  H+  H335  1  0.65290331  0.56487932  0.59075082  1
  H+  H336  1  0.58186511  0.65247620  0.10888637  1
  H+  H337  1  0.87478133  0.10762518  0.34152787  1
  H+  H338  1  0.36047606  0.39220148  0.86806124  1
  H+  H339  1  0.61193057  0.22751760  0.17433395  1
  H+  H340  1  0.40760845  0.33176176  0.26910438  1
  H+  H341  1  0.24263145  0.20130984  0.36823522  1
  H+  H342  1  0.77103642  0.64001688  0.00619201  1
  H+  H343  1  0.43278358  0.85086118  0.93471272  1
  H+  H344  1  0.90797134  0.82849309  0.59253668  1
  H+  H345  1  0.37758673  0.62999298  0.17709013  1
  H+  H346  1  0.26799086  0.43160016  0.92622190  1
  H+  H347  1  0.82387470  0.89767359  0.43097869  1
  H+  H348  1  0.44412475  0.62676759  0.58542542  1
  H+  H349  1  0.14841250  0.36031075  0.80192252  1
  H+  H350  1  0.64815153  0.31832164  0.27586414  1
  H+  H351  1  0.58096774  0.16244495  0.72733229  1
  H+  H352  1  0.69311361  0.89643300  0.91988392  1
  H+  H353  1  0.27153411  0.11856489  0.17971508  1
  H+  H354  1  0.89958837  0.56232586  0.96395285  1
  H+  H355  1  0.30853289  0.14752260  0.42374324  1
  H+  H356  1  0.80592336  0.37900996  0.44738975  1
  H+  H357  1  0.94829695  0.09466469  0.91652459  1
  H+  H358  1  0.65786073  0.57228111  0.24352824  1
  H+  H359  1  0.65668703  0.80443929  0.82994784  1
  H+  H360  1  0.03094844  0.38302580  0.81959625  1
  H+  H361  1  0.51602626  0.11905350  0.34390647  1
  H+  H362  1  0.84814985  0.30360493  0.26035149  1
  H+  H363  1  0.09223232  0.67316958  0.07243394  1
  H+  H364  1  0.37858547  0.88710724  0.64465142  1
  H+  H365  1  0.16935713  0.07968914  0.56213803  1
  H+  H366  1  0.52383369  0.63640691  0.66235900  1
  H+  H367  1  0.12423326  0.19031352  0.41326997  1
  H+  H368  1  0.83602457  0.16526729  0.41001661  1
  H+  H369  1  0.56070216  0.40182660  0.11648235  1
  H+  H370  1  0.58967574  0.93034585  0.72247498  1
  H+  H371  1  0.32735995  0.16125211  0.08200497  1
  H+  H372  1  0.89245424  0.27000878  0.82921717  1
  H+  H373  1  0.19367879  0.84659633  0.91029033  1
  H+  H374  1  0.67368426  0.09760579  0.89088339  1
  H+  H375  1  0.62707424  0.62529811  0.82537973  1
  H+  H376  1  0.87093806  0.97771295  0.01486151  1
  H+  H377  1  0.74254866  0.15014606  0.50516890  1
  H+  H378  1  0.10785573  0.16447823  0.13739294  1
  H+  H379  1  0.57254421  0.15533115  0.40366694  1
  H+  H380  1  0.17469805  0.85177448  0.26866439  1
  H+  H381  1  0.52492588  0.62968999  0.48219015  1
  H+  H382  1  0.92641296  0.32576147  0.92876646  1
  H+  H383  1  0.34967255  0.71260408  0.10963463  1
  O2-  O384  1  0.11737290  0.18470860  0.18072719  1
  O2-  O385  1  0.08659198  0.17227371  0.48215892  1
  O2-  O386  1  0.09514653  0.16040595  0.80078000  1
  O2-  O387  1  0.10836737  0.36498250  0.11932378  1
  O2-  O388  1  0.13610329  0.44620958  0.48463073  1
  O2-  O389  1  0.09107626  0.41442911  0.80356810  1
  O2-  O390  1  0.08518737  0.67347919  0.14976648  1
  O2-  O391  1  0.05814045  0.64873514  0.47064949  1
  O2-  O392  1  0.06849608  0.65448850  0.77557380  1
  O2-  O393  1  0.04410814  0.83910412  0.13654241  1
  O2-  O394  1  0.07605715  0.91189195  0.47613626  1
  O2-  O395  1  0.10576925  0.92460536  0.81348204  1
  O2-  O396  1  0.32927460  0.15407642  0.16312652  1
  O2-  O397  1  0.31477489  0.13420295  0.46664135  1
  O2-  O398  1  0.33674699  0.17686397  0.82502404  1
  O2-  O399  1  0.31636365  0.50927856  0.15474805  1
  O2-  O400  1  0.35510557  0.39292253  0.44237949  1
  O2-  O401  1  0.32965912  0.42522637  0.86469314  1
  O2-  O402  1  0.34527836  0.71143312  0.15564274  1
  O2-  O403  1  0.36599752  0.71978349  0.47848424  1
  O2-  O404  1  0.34070080  0.67821000  0.81884410  1
  O2-  O405  1  0.33648673  0.91272177  0.14486958  1
  O2-  O406  1  0.32933577  0.89833668  0.47180176  1
  O2-  O407  1  0.35532444  0.93789351  0.81580290  1
  O2-  O408  1  0.58591182  0.16445969  0.16422926  1
  O2-  O409  1  0.56020105  0.15813964  0.48122923  1
  O2-  O410  1  0.57916184  0.16291884  0.79810708  1
  O2-  O411  1  0.55916852  0.40000685  0.16222737  1
  O2-  O412  1  0.56664519  0.40396799  0.48503882  1
  O2-  O413  1  0.58486342  0.42376211  0.85013035  1
  O2-  O414  1  0.57926637  0.65162689  0.15489562  1
  O2-  O415  1  0.58617145  0.65465349  0.46976202  1
  O2-  O416  1  0.55882063  0.70242606  0.79638517  1
  O2-  O417  1  0.60381704  0.94184650  0.13848835  1
  O2-  O418  1  0.57409635  0.89214604  0.47686195  1
  O2-  O419  1  0.59201553  0.93344206  0.80293696  1
  O2-  O420  1  0.85245029  0.18257678  0.14642873  1
  O2-  O421  1  0.84223569  0.19129496  0.48338621  1
  O2-  O422  1  0.82620971  0.15841238  0.80129443  1
  O2-  O423  1  0.82874596  0.42060859  0.16559312  1
  O2-  O424  1  0.81211604  0.38481359  0.49242736  1
  O2-  O425  1  0.83630971  0.40738438  0.79739769  1
  O2-  O426  1  0.81749291  0.65622807  0.14833411  1
  O2-  O427  1  0.82498308  0.65121237  0.47589901  1
  O2-  O428  1  0.83333492  0.67935115  0.79770353  1
  O2-  O429  1  0.80288920  0.88928636  0.13785095  1
  O2-  O430  1  0.82620015  0.88840504  0.47470383  1
  O2-  O431  1  0.85540579  0.94263052  0.80810522  1
  O2-  O432  1  0.17410993  0.10227357  0.25791441  1
  O2-  O433  1  0.16288306  0.07723274  0.51672595  1
  O2-  O434  1  0.18401142  0.09101343  0.84488642  1
  O2-  O435  1  0.24708888  0.34760493  0.21210767  1
  O2-  O436  1  0.19945114  0.33239026  0.51639611  1
  O2-  O437  1  0.18526372  0.33321895  0.80011773  1
  O2-  O438  1  0.18373781  0.61246158  0.19565003  1
  O2-  O439  1  0.21560473  0.60432581  0.53026285  1
  O2-  O440  1  0.16949748  0.58664065  0.85041676  1
  O2-  O441  1  0.17508077  0.84010919  0.19093156  1
  O2-  O442  1  0.16219060  0.82246548  0.50868893  1
  O2-  O443  1  0.19344490  0.84817210  0.86408743  1
  O2-  O444  1  0.41479024  0.07336241  0.19631326  1
  O2-  O445  1  0.39533330  0.06091601  0.50075450  1
  O2-  O446  1  0.42603638  0.10051272  0.85615744  1
  O2-  O447  1  0.39392457  0.31979301  0.20252734  1
  O2-  O448  1  0.40043327  0.29455814  0.53176391  1
  O2-  O449  1  0.41116489  0.33171326  0.87867355  1
  O2-  O450  1  0.39125984  0.58331874  0.18347903  1
  O2-  O451  1  0.42073980  0.59980696  0.50448992  1
  O2-  O452  1  0.41690984  0.59578309  0.87185498  1
  O2-  O453  1  0.39789642  0.80300366  0.17232859  1
  O2-  O454  1  0.40599495  0.80414650  0.50870597  1
  O2-  O455  1  0.43310565  0.84692938  0.85435097  1
  O2-  O456  1  0.69115170  0.09908231  0.19979168  1
  O2-  O457  1  0.67856425  0.11244195  0.51384263  1
  O2-  O458  1  0.66789760  0.09407666  0.84556557  1
  O2-  O459  1  0.65315676  0.32842718  0.19679647  1
  O2-  O460  1  0.64529587  0.31694198  0.52488594  1
  O2-  O461  1  0.66723498  0.32978173  0.82769016  1
  O2-  O462  1  0.65203648  0.56966972  0.19741480  1
  O2-  O463  1  0.66028122  0.57031089  0.51713799  1
  O2-  O464  1  0.65084638  0.59395429  0.80427288  1
  O2-  O465  1  0.64294179  0.80292096  0.18757059  1
  O2-  O466  1  0.66306655  0.80904161  0.52072015  1
  O2-  O467  1  0.68822763  0.86515576  0.84236240  1
  O2-  O468  1  0.93947077  0.12026994  0.20492729  1
  O2-  O469  1  0.92070747  0.11856993  0.51488270  1
  O2-  O470  1  0.94746298  0.10277178  0.87118868  1
  O2-  O471  1  0.95954413  0.35526745  0.16224049  1
  O2-  O472  1  0.89374608  0.28533690  0.49441908  1
  O2-  O473  1  0.92412861  0.32951179  0.84477190  1
  O2-  O474  1  0.91398651  0.58742323  0.18500781  1
  O2-  O475  1  0.90179213  0.56431545  0.51217841  1
  O2-  O476  1  0.90854137  0.58595478  0.82202940  1
  O2-  O477  1  0.89709806  0.82159079  0.18998548  1
  O2-  O478  1  0.90743629  0.81251751  0.51589513  1
  O2-  O479  1  0.93061146  0.84734463  0.84115119  1
  O2-  O480  1  0.09795352  0.06653773  0.29844578  1
  O2-  O481  1  0.18579422  0.09184123  0.63918193  1
  O2-  O482  1  0.15404748  0.06481521  1.00446651  1
  O2-  O483  1  0.20545650  0.36575212  0.33678335  1
  O2-  O484  1  0.15014921  0.31302237  0.63384748  1
  O2-  O485  1  0.24460406  0.44552296  0.96233805  1
  O2-  O486  1  0.16625352  0.59429261  0.32070518  1
  O2-  O487  1  0.18973823  0.58684261  0.65162480  1
  O2-  O488  1  0.18576405  0.60639088  0.97425972  1
  O2-  O489  1  0.17502725  0.85579023  0.31401128  1
  O2-  O490  1  0.17600586  0.82649038  0.63342878  1
  O2-  O491  1  0.18942947  0.83635763  0.98339082  1
  O2-  O492  1  0.41085306  0.06742220  0.31948093  1
  O2-  O493  1  0.37338799  -0.02553428  0.69519814  1
  O2-  O494  1  0.41691541  0.09653568  0.98216719  1
  O2-  O495  1  0.41125938  0.33799517  0.31643108  1
  O2-  O496  1  0.36170624  0.22298876  0.64050228  1
  O2-  O497  1  0.40061773  0.33576760  1.00266523  1
  O2-  O498  1  0.44049682  0.56420737  0.29980171  1
  O2-  O499  1  0.46797174  0.65691462  0.62426129  1
  O2-  O500  1  0.43995314  0.61634417  0.99369636  1
  O2-  O501  1  0.41350193  0.82943876  0.29554904  1
  O2-  O502  1  0.42676748  0.82838623  0.63583021  1
  O2-  O503  1  0.43380893  0.85276128  0.98008513  1
  O2-  O504  1  0.67559006  0.08283504  0.32221371  1
  O2-  O505  1  0.66636469  0.09315434  0.63838734  1
  O2-  O506  1  0.69473201  0.11434377  0.96869322  1
  O2-  O507  1  0.64589256  0.31586797  0.32119858  1
  O2-  O508  1  0.65909042  0.32031655  0.64815235  1
  O2-  O509  1  0.63754846  0.36696240  0.95055419  1
  O2-  O510  1  0.66403887  0.57035924  0.31750453  1
  O2-  O511  1  0.65023350  0.55938506  0.63676514  1
  O2-  O512  1  0.66156786  0.57519649  0.99070703  1
  O2-  O513  1  0.66555098  0.82699047  0.30614480  1
  O2-  O514  1  0.67033777  0.83343779  0.63919837  1
  O2-  O515  1  0.71071121  0.92274322  0.96055807  1
  O2-  O516  1  0.90351762  0.07549602  0.32181477  1
  O2-  O517  1  0.91707890  0.08459047  0.63352966  1
  O2-  O518  1  0.93671378  0.08287043  0.99344275  1
  O2-  O519  1  0.92846876  0.33401863  0.37454811  1
  O2-  O520  1  0.93812025  0.34644233  0.63781152  1
  O2-  O521  1  0.93183753  0.32621082  0.97355486  1
  O2-  O522  1  0.93017817  0.61278439  0.30542916  1
  O2-  O523  1  0.91442117  0.56781113  0.63769039  1
  O2-  O524  1  0.90794737  0.57655247  1.00711083  1
  O2-  O525  1  0.90604021  0.83022521  0.31468219  1
  O2-  O526  1  0.90785670  0.83481291  0.63784286  1
  O2-  O527  1  0.91088320  0.84699416  0.96885887  1
  O2-  O528  1  0.08430312  0.13855051  0.06182397  1
  O2-  O529  1  0.15331600  0.20300856  0.37207560  1
  O2-  O530  1  0.07653664  0.14951792  0.68009631  1
  O2-  O531  1  0.10447397  0.43703903  0.00242394  1
  O2-  O532  1  0.10286219  0.43302454  0.36600574  1
  O2-  O533  1  0.09529237  0.42234750  0.67836975  1
  O2-  O534  1  0.09182914  0.67426437  0.02684559  1
  O2-  O535  1  0.09167707  0.69091541  0.35120856  1
  O2-  O536  1  0.11127275  0.67380035  0.65898374  1
  O2-  O537  1  0.08192500  0.88850256  0.02199112  1
  O2-  O538  1  0.07111201  0.91939306  0.35211226  1
  O2-  O539  1  0.13349964  0.92537483  0.68630005  1
  O2-  O540  1  0.32485544  0.16743419  0.03722262  1
  O2-  O541  1  0.29033617  0.18983541  0.35479057  1
  O2-  O542  1  0.39943086  0.28775799  0.68908452  1
  O2-  O543  1  0.36437361  0.45685777  0.04777524  1
  O2-  O544  1  0.33716609  0.46028437  0.42116601  1
  O2-  O545  1  0.28466021  0.34793209  0.70548020  1
  O2-  O546  1  0.35014913  0.69429963  0.03204412  1
  O2-  O547  1  0.33754377  0.68192511  0.35234956  1
  O2-  O548  1  0.35265890  0.67810743  0.69483371  1
  O2-  O549  1  0.35224271  0.93646509  0.02269424  1
  O2-  O550  1  0.33503260  0.90679466  0.35044019  1
  O2-  O551  1  0.34612045  0.91944895  0.64096748  1
  O2-  O552  1  0.72154565  0.29802296  0.00390699  1
  O2-  O553  1  0.57663387  0.15291383  0.35841818  1
  O2-  O554  1  0.58665372  0.16802980  0.68085478  1
  O2-  O555  1  0.56181840  0.40778899  0.04030247  1
  O2-  O556  1  0.56591987  0.40459965  0.35742891  1
  O2-  O557  1  0.57948353  0.39796088  0.69004853  1
  O2-  O558  1  0.59003394  0.66337321  0.03410136  1
  O2-  O559  1  0.59517486  0.66601581  0.34772266  1
  O2-  O560  1  0.55446968  0.61670534  0.69409285  1
  O2-  O561  1  0.59934456  0.96099739  0.01751835  1
  O2-  O562  1  0.58299881  0.90937743  0.34755452  1
  O2-  O563  1  0.59194039  0.93131128  0.67716356  1
  O2-  O564  1  0.85599240  0.17163853  0.02336613  1
  O2-  O565  1  0.83632573  0.15997230  0.36421095  1
  O2-  O566  1  0.83910483  0.17251743  0.67469067  1
  O2-  O567  1  0.85849079  0.42310907  0.05249013  1
  O2-  O568  1  0.80038072  0.38278707  0.36954214  1
  O2-  O569  1  0.82610198  0.40481025  0.67241238  1
  O2-  O570  1  0.83148304  0.67162255  0.02176533  1
  O2-  O571  1  0.83411182  0.66476655  0.35509284  1
  O2-  O572  1  0.79139293  0.59587067  0.69285885  1
  O2-  O573  1  0.82691749  0.91548595  0.02072124  1
  O2-  O574  1  0.82867587  0.91947158  0.34497175  1
  O2-  O575  1  0.83804496  0.92542304  0.67880700  1
