# generated using pymatgen
data_H2O
_symmetry_space_group_name_H-M   'P 1'
_cell_length_a   17.96272214
_cell_length_b   17.97115520
_cell_length_c   21.98347209
_cell_angle_alpha   90.05412348
_cell_angle_beta   89.95955100
_cell_angle_gamma   119.99551564
_symmetry_Int_Tables_number   1
_chemical_formula_structural   H2O
_chemical_formula_sum   'H384 O192'
_cell_volume   6146.02720251
_cell_formula_units_Z   192
loop_
 _symmetry_equiv_pos_site_id
 _symmetry_equiv_pos_as_xyz
  1  'x, y, z'
loop_
 _atom_type_symbol
 _atom_type_oxidation_number
  H+  1.0
  O2-  -2.0
loop_
 _atom_site_type_symbol
 _atom_site_label
 _atom_site_symmetry_multiplicity
 _atom_site_fract_x
 _atom_site_fract_y
 _atom_site_fract_z
 _atom_site_occupancy
  H+  H0  1  0.75610147  0.87043824  0.33593516  1
  H+  H1  1  0.57298196  0.16705482  0.39930659  1
  H+  H2  1  0.83157130  0.55969415  0.31203953  1
  H+  H3  1  0.87604241  0.14557663  0.49995962  1
  H+  H4  1  0.27545919  0.64594718  0.50178375  1
  H+  H5  1  0.14115731  0.37557914  0.50387120  1
  H+  H6  1  0.18465400  0.86758812  0.94550802  1
  H+  H7  1  0.11430558  0.48819470  0.49954161  1
  H+  H8  1  0.21046427  0.36900503  0.67948423  1
  H+  H9  1  0.18517274  0.12809251  0.26317463  1
  H+  H10  1  0.11238564  0.46367890  0.00343549  1
  H+  H11  1  1.03596637  0.62089133  1.01415045  1
  H+  H12  1  0.63426719  0.36405199  0.17409026  1
  H+  H13  1  0.65797812  0.07108351  0.23869089  1
  H+  H14  1  0.15043208  0.04457480  0.49937837  1
  H+  H15  1  0.79569423  0.62385277  1.04549377  1
  H+  H16  1  0.89399303  0.50159703  0.99864886  1
  H+  H17  1  0.50024158  0.14547739  0.83825948  1
  H+  H18  1  0.36757594  0.77518357  0.99101769  1
  H+  H19  1  0.14518093  0.86721942  0.49295953  1
  H+  H20  1  0.46117394  0.61085949  0.66151190  1
  H+  H21  1  0.38911474  0.12900412  0.84465271  1
  H+  H22  1  0.03791382  0.40456716  0.81078460  1
  H+  H23  1  0.15179115  0.02606665  0.33321027  1
  H+  H24  1  0.60131903  0.14025978  0.68443328  1
  H+  H25  1  0.82755432  0.67317840  0.12567549  1
  H+  H26  1  0.12050877  0.70650241  0.00045392  1
  H+  H27  1  0.83570223  0.13621154  0.12631474  1
  H+  H28  1  0.47790752  0.85900335  0.32725183  1
  H+  H29  1  0.12640279  0.60813427  0.17612125  1
  H+  H30  1  0.12839918  0.52489763  0.32943475  1
  H+  H31  1  0.62806579  0.51985676  0.83608563  1
  H+  H32  1  0.14119750  0.29390545  0.32385773  1
  H+  H33  1  0.60270696  0.72079460  0.67356053  1
  H+  H34  1  0.36907776  0.14693051  0.49189056  1
  H+  H35  1  0.07122464  0.85842920  -0.01951874  1
  H+  H36  1  -0.00737272  0.12557763  0.33745447  1
  H+  H37  1  0.16336346  0.60357567  0.57475718  1
  H+  H38  1  0.37131147  0.14009827  0.33915850  1
  H+  H39  1  0.08966947  0.32552375  0.98195214  1
  H+  H40  1  0.83665784  0.88260345  0.02239863  1
  H+  H41  1  0.61727201  0.01234345  1.00301969  1
  H+  H42  1  0.27062555  0.88949147  0.15650886  1
  H+  H43  1  0.11885647  0.38983511  0.81636790  1
  H+  H44  1  0.28047095  0.89066989  0.48982389  1
  H+  H45  1  0.60771382  0.38812684  0.82639727  1
  H+  H46  1  0.80895802  0.61773923  -0.05639090  1
  H+  H47  1  0.03520848  0.88406693  0.80411459  1
  H+  H48  1  0.90119412  0.02281647  0.50926243  1
  H+  H49  1  0.85912902  0.49032538  0.81353688  1
  H+  H50  1  0.84984536  0.84057703  0.66522231  1
  H+  H51  1  0.87698940  0.89312539  0.50326997  1
  H+  H52  1  0.65558185  0.33287375  0.56621532  1
  H+  H53  1  0.15595048  0.52835529  0.83491854  1
  H+  H54  1  0.89416090  0.90002935  0.34447734  1
  H+  H55  1  0.61127962  0.75030850  0.16953594  1
  H+  H56  1  0.01641650  0.38643846  0.00632744  1
  H+  H57  1  0.22335773  0.36569193  0.84529961  1
  H+  H58  1  0.38412462  0.62470543  -0.01052208  1
  H+  H59  1  0.77840338  0.65121151  0.74596507  1
  H+  H60  1  0.32480758  0.67335154  0.40316246  1
  H+  H61  1  0.85129787  0.42136489  0.66329991  1
  H+  H62  1  0.71448018  0.61137093  0.83218885  1
  H+  H63  1  0.99527591  0.12962359  0.66841896  1
  H+  H64  1  0.61685442  0.36210129  0.65932377  1
  H+  H65  1  0.42292915  0.35631222  0.22585685  1
  H+  H66  1  0.61398877  0.23053160  0.49347253  1
  H+  H67  1  0.86372222  0.81274348  0.25460055  1
  H+  H68  1  0.12094265  0.49577524  0.16305473  1
  H+  H69  1  0.88525657  0.60684141  0.18293705  1
  H+  H70  1  0.87150595  0.29180535  0.95846232  1
  H+  H71  1  0.11844356  0.23126722  0.81050905  1
  H+  H72  1  0.34144429  0.67858160  0.06033878  1
  H+  H73  1  0.61573886  0.88631707  0.49827550  1
  H+  H74  1  0.10853029  0.40642938  0.72218021  1
  H+  H75  1  0.46278904  0.61213043  0.83774018  1
  H+  H76  1  1.02596540  0.39914024  0.49884312  1
  H+  H77  1  0.57364278  0.41481698  0.76673176  1
  H+  H78  1  0.63293665  0.36253005  0.50354824  1
  H+  H79  1  0.89246355  0.60870331  0.95412448  1
  H+  H80  1  0.66230638  0.06683744  0.79953932  1
  H+  H81  1  0.61501092  0.23337676  0.16592443  1
  H+  H82  1  0.13745556  0.62307509  0.51168846  1
  H+  H83  1  0.60847717  0.13945756  0.01721421  1
  H+  H84  1  0.37325896  0.64711805  0.15444954  1
  H+  H85  1  0.47098380  0.10718521  0.32495056  1
  H+  H86  1  0.35729344  0.47899200  0.16384944  1
  H+  H87  1  0.60908844  0.48343795  0.67911393  1
  H+  H88  1  0.41410524  0.32536687  0.93483678  1
  H+  H89  1  0.59876748  0.62760287  0.82593803  1
  H+  H90  1  0.23129962  0.37808341  0.50326037  1
  H+  H91  1  0.12737117  0.70516766  0.63966347  1
  H+  H92  1  0.36823319  0.41638812  0.33356970  1
  H+  H93  1  0.47984787  0.11697856  -0.00008069  1
  H+  H94  1  0.88009498  0.34390825  0.12736196  1
  H+  H95  1  0.77481087  0.68234808  0.33860814  1
  H+  H96  1  0.99312144  0.88004460  0.26605596  1
  H+  H97  1  0.36738342  0.98266979  0.49254064  1
  H+  H98  1  0.64334157  1.02544451  0.48351670  1
  H+  H99  1  0.85180008  0.46952559  0.34004619  1
  H+  H100  1  0.82343046  0.83450940  0.19760890  1
  H+  H101  1  0.11124132  0.83440980  0.64376777  1
  H+  H102  1  0.10982185  0.39660673  0.34040602  1
  H+  H103  1  0.38088348  0.12493177  0.65219866  1
  H+  H104  1  0.38875230  0.78094829  0.51009169  1
  H+  H105  1  0.36494385  0.22207439  0.01320738  1
  H+  H106  1  0.89290040  0.74415185  0.48708230  1
  H+  H107  1  0.36081404  0.23196098  0.82853791  1
  H+  H108  1  0.04234444  0.90107649  0.46541563  1
  H+  H109  1  0.99384849  0.85257184  0.66230519  1
  H+  H110  1  0.63067121  0.26365481  0.32537325  1
  H+  H111  1  0.88340221  0.77430599  0.81308831  1
  H+  H112  1  0.36516832  0.14114011  0.16459462  1
  H+  H113  1  0.90947327  0.11493531  1.01872984  1
  H+  H114  1  1.02192742  0.63787653  0.16809167  1
  H+  H115  1  0.83973527  0.96252199  0.67901443  1
  H+  H116  1  0.88629878  0.22982582  0.06492135  1
  H+  H117  1  0.59155161  0.63699835  0.33354270  1
  H+  H118  1  0.25776939  0.15560356  0.31671721  1
  H+  H119  1  0.77868309  0.65010373  0.31903452  1
  H+  H120  1  0.39511592  0.36404952  0.99463226  1
  H+  H121  1  0.69267574  0.08534464  1.04171604  1
  H+  H122  1  0.06404575  0.93562909  0.33559851  1
  H+  H123  1  0.76707035  0.38874899  1.01030925  1
  H+  H124  1  0.60990488  0.47584169  0.00204964  1
  H+  H125  1  0.86172715  0.39098660  0.50134271  1
  H+  H126  1  0.36601864  0.39820204  0.49143268  1
  H+  H127  1  0.74853108  0.62341287  0.47751139  1
  H+  H128  1  0.12202001  0.10642846  0.67047011  1
  H+  H129  1  0.24139347  0.09930182  0.01508141  1
  H+  H130  1  0.62069373  0.50918071  0.16639260  1
  H+  H131  1  0.13406718  0.16831532  0.33736449  1
  H+  H132  1  0.04092966  0.12390865  0.02316750  1
  H+  H133  1  0.61626380  0.85806763  -0.01220913  1
  H+  H134  1  0.42281834  0.85997587  0.84251109  1
  H+  H135  1  0.74886986  0.88964998  0.17048853  1
  H+  H136  1  0.55879149  0.82859851  0.82139999  1
  H+  H137  1  0.63651429  0.54274307  0.32061395  1
  H+  H138  1  0.51452436  0.63992627  1.00132100  1
  H+  H139  1  0.93456862  0.82781482  0.97947531  1
  H+  H140  1  0.35239772  0.73066130  0.67288454  1
  H+  H141  1  0.36229441  0.88573220  0.00347248  1
  H+  H142  1  0.70146461  0.59749115  0.54033094  1
  H+  H143  1  0.47931571  0.11472695  0.17385568  1
  H+  H144  1  0.92847223  0.74697909  0.94641601  1
  H+  H145  1  0.60237171  0.23040107  0.67740988  1
  H+  H146  1  0.36298961  0.22898029  0.16340605  1
  H+  H147  1  0.61938099  0.14643295  0.16715612  1
  H+  H148  1  0.79349991  0.58130809  0.05055958  1
  H+  H149  1  0.11606902  -0.02248693  0.79671289  1
  H+  H150  1  0.33955226  0.47647781  0.66526768  1
  H+  H151  1  0.18464276  0.89931498  0.79086711  1
  H+  H152  1  0.78631253  0.14182952  0.48657818  1
  H+  H153  1  0.64042272  0.01605298  0.34666893  1
  H+  H154  1  0.51472973  0.38101130  0.15480507  1
  H+  H155  1  0.61663363  0.14264222  0.48389333  1
  H+  H156  1  0.60489706  0.72559183  0.00575742  1
  H+  H157  1  0.47221426  0.36578882  0.84039533  1
  H+  H158  1  0.38131631  0.36638358  0.16567919  1
  H+  H159  1  0.39260924  0.87193295  0.50676186  1
  H+  H160  1  0.11942295  0.62437132  0.83295863  1
  H+  H161  1  0.93136039  0.37021121  0.88432289  1
  H+  H162  1  0.13803998  0.77371902  0.49676392  1
  H+  H163  1  0.26829948  0.14502088  0.67711587  1
  H+  H164  1  0.60764130  0.24139492  0.83096968  1
  H+  H165  1  0.33250304  0.86711829  0.67741364  1
  H+  H166  1  0.22155703  0.37112359  0.16880556  1
  H+  H167  1  0.85495578  0.97828762  0.01786220  1
  H+  H168  1  0.70906378  0.86667113  0.99660195  1
  H+  H169  1  0.12948015  0.25358756  0.49011839  1
  H+  H170  1  1.10417855  0.87319569  0.16611740  1
  H+  H171  1  0.63569383  0.36580686  -0.00667076  1
  H+  H172  1  0.39368365  0.50533643  0.00542661  1
  H+  H173  1  0.60009840  0.71709440  0.82790089  1
  H+  H174  1  0.86592637  0.40412347  0.81599614  1
  H+  H175  1  0.87627051  0.12148198  0.18529869  1
  H+  H176  1  0.84531793  0.63921944  0.78681075  1
  H+  H177  1  0.82333762  0.71275313  0.18972659  1
  H+  H178  1  0.14220476  0.59958354  0.99600985  1
  H+  H179  1  0.83715595  0.53646419  0.65724350  1
  H+  H180  1  0.27380904  0.63677971  0.00399708  1
  H+  H181  1  0.02304458  0.63795976  0.50296833  1
  H+  H182  1  0.11962448  0.94925277  0.42117243  1
  H+  H183  1  0.21545724  0.61641955  0.32913839  1
  H+  H184  1  0.52307262  0.38244170  0.00272791  1
  H+  H185  1  0.60523827  0.13028934  0.34650081  1
  H+  H186  1  0.35873045  0.49012654  0.85575361  1
  H+  H187  1  0.93026038  0.66366273  0.33459195  1
  H+  H188  1  0.99698225  0.60122563  0.35167562  1
  H+  H189  1  0.12791620  0.12971817  0.15586789  1
  H+  H190  1  0.59774767  0.87082506  0.14800216  1
  H+  H191  1  0.72581734  0.37172206  0.83868850  1
  H+  H192  1  0.61454155  0.96652667  0.14525702  1
  H+  H193  1  0.86144373  0.87982843  0.82635726  1
  H+  H194  1  0.08377857  0.22197980  0.67271513  1
  H+  H195  1  0.14708220  0.94516596  0.00576848  1
  H+  H196  1  0.36435715  0.64545758  0.49617900  1
  H+  H197  1  1.01908668  0.73658467  0.35978159  1
  H+  H198  1  1.00491443  0.15011553  0.85405931  1
  H+  H199  1  1.00830572  0.20607661  0.91015399  1
  H+  H200  1  0.14095581  0.77644638  0.17621006  1
  H+  H201  1  0.77326915  0.38658590  0.16307869  1
  H+  H202  1  0.13089029  0.13023538  0.01684112  1
  H+  H203  1  0.46323028  0.27307288  0.36103187  1
  H+  H204  1  0.38681253  0.28172472  0.50478695  1
  H+  H205  1  0.97561735  0.62277461  0.81775662  1
  H+  H206  1  0.95849885  0.80574460  0.31942726  1
  H+  H207  1  0.32405137  0.42175152  0.90858746  1
  H+  H208  1  0.47084104  0.63375597  0.32965646  1
  H+  H209  1  0.48134890  0.62283004  0.50681721  1
  H+  H210  1  0.56430219  0.32761583  0.34174651  1
  H+  H211  1  0.90200396  0.82567857  0.57951712  1
  H+  H212  1  0.62352650  0.88225996  0.34322352  1
  H+  H213  1  0.12477176  0.39600266  0.16085457  1
  H+  H214  1  0.11489746  0.67407181  0.77684973  1
  H+  H215  1  0.38961430  0.11438283  1.00196642  1
  H+  H216  1  0.63045802  0.60904074  0.99028034  1
  H+  H217  1  0.27433737  0.88785918  0.73456628  1
  H+  H218  1  0.47008673  0.60808482  0.17516620  1
  H+  H219  1  0.67296522  0.08878551  0.42878724  1
  H+  H220  1  0.37615710  0.62653785  0.83807743  1
  H+  H221  1  1.04388832  0.09699986  0.19627013  1
  H+  H222  1  0.28114746  0.15028400  0.48997458  1
  H+  H223  1  0.34146356  0.38891903  0.66572133  1
  H+  H224  1  0.38144359  0.28591207  0.65983942  1
  H+  H225  1  0.70606065  0.85628370  0.66655698  1
  H+  H226  1  0.85649835  0.09759506  0.67001074  1
  H+  H227  1  0.57025087  0.17789204  0.77051330  1
  H+  H228  1  0.34667268  0.17722209  0.39838594  1
  H+  H229  1  0.62220725  0.73693251  0.34100273  1
  H+  H230  1  0.04052465  0.16270912  0.48323714  1
  H+  H231  1  0.36660539  -0.02476480  0.33740506  1
  H+  H232  1  0.85382759  0.96370970  0.83533600  1
  H+  H233  1  0.89987586  0.17645585  0.84182705  1
  H+  H234  1  -0.03280208  0.35920733  0.32956212  1
  H+  H235  1  0.73642613  0.11628380  0.19351445  1
  H+  H236  1  0.70852430  0.85219363  0.84062343  1
  H+  H237  1  0.16241762  0.89678605  0.31847104  1
  H+  H238  1  0.86466950  0.47329677  0.16375439  1
  H+  H239  1  0.98959211  0.87871613  0.54650212  1
  H+  H240  1  0.61466209  0.47249107  0.47222251  1
  H+  H241  1  0.88309151  0.37617611  -0.01200659  1
  H+  H242  1  0.61555068  1.03559668  0.80481448  1
  H+  H243  1  0.59132035  0.87881507  0.67214999  1
  H+  H244  1  0.39185444  0.53433010  0.50427947  1
  H+  H245  1  0.90229706  0.30228729  0.83109210  1
  H+  H246  1  0.27394574  0.14057999  0.82115101  1
  H+  H247  1  0.93534863  0.35735906  0.68167422  1
  H+  H248  1  0.38515355  0.36956264  0.85249872  1
  H+  H249  1  0.45154053  0.48183449  0.04405230  1
  H+  H250  1  0.71004563  0.59926226  0.17728563  1
  H+  H251  1  0.06951695  0.16367898  0.75583785  1
  H+  H252  1  0.36046280  0.88947153  0.15898795  1
  H+  H253  1  0.47212283  0.86947557  0.17190413  1
  H+  H254  1  0.49815436  0.87987950  -0.00749139  1
  H+  H255  1  0.13342758  0.11642952  0.81339417  1
  H+  H256  1  0.46878766  0.37375437  0.32129486  1
  H+  H257  1  0.47458469  0.37055912  0.50649272  1
  H+  H258  1  0.89379215  0.28104164  0.51272088  1
  H+  H259  1  0.70673960  0.36575297  0.66021871  1
  H+  H260  1  0.62538598  0.64515855  0.48542646  1
  H+  H261  1  0.82464493  0.41358325  0.40118625  1
  H+  H262  1  0.37278154  0.73624347  0.15499451  1
  H+  H263  1  0.80308708  0.17509149  0.89568924  1
  H+  H264  1  0.45712914  0.86685925  0.66374602  1
  H+  H265  1  0.15170999  0.13379633  0.49862009  1
  H+  H266  1  0.51396520  0.39880985  0.67173479  1
  H+  H267  1  0.71323537  0.35763072  0.33081473  1
  H+  H268  1  0.38856884  0.02621549  0.16984625  1
  H+  H269  1  0.73400813  0.86775103  0.51104577  1
  H+  H270  1  0.46033083  0.77365730  0.80303676  1
  H+  H271  1  0.85169220  0.92042824  0.44057464  1
  H+  H272  1  0.83872227  0.17599355  0.00552170  1
  H+  H273  1  0.22800355  0.38453157  0.32418397  1
  H+  H274  1  0.10652521  0.24487549  0.98372416  1
  H+  H275  1  0.33336127  0.67156567  0.77580826  1
  H+  H276  1  0.65157350  0.62881952  0.67917453  1
  H+  H277  1  0.09359775  0.62190135  0.34500419  1
  H+  H278  1  0.85882272  0.21440331  0.68402698  1
  H+  H279  1  0.89575164  1.01501715  0.19249992  1
  H+  H280  1  0.39218278  0.86702461  0.32796180  1
  H+  H281  1  0.47528991  0.11582479  0.50436208  1
  H+  H282  1  0.60281701  0.62577104  0.15440930  1
  H+  H283  1  0.13060141  0.72786734  0.87949918  1
  H+  H284  1  0.77142146  0.38868134  0.49975764  1
  H+  H285  1  0.86605549  0.22603051  0.33781586  1
  H+  H286  1  0.49693279  0.46266738  0.29219039  1
  H+  H287  1  0.24093826  0.87459465  0.83235252  1
  H+  H288  1  0.70449368  0.83925007  0.27430787  1
  H+  H289  1  0.65631526  0.83072603  0.60326815  1
  H+  H290  1  0.58977658  0.79566853  0.22295113  1
  H+  H291  1  0.58398660  0.90231218  0.40232153  1
  H+  H292  1  0.88367382  0.52660358  0.50933824  1
  H+  H293  1  0.93384757  0.09097711  0.95512397  1
  H+  H294  1  0.41139823  0.58926460  0.23529261  1
  H+  H295  1  0.54567224  0.88388908  0.73257670  1
  H+  H296  1  0.40217610  0.83945395  0.60261263  1
  H+  H297  1  0.57231448  0.65903036  0.09567615  1
  H+  H298  1  0.81389759  0.90503076  0.73935889  1
  H+  H299  1  0.33747230  0.43141966  0.43235163  1
  H+  H300  1  0.08571785  0.42314897  0.09930126  1
  H+  H301  1  0.23369143  0.85625757  0.66285314  1
  H+  H302  1  0.64576623  0.77803543  0.50688651  1
  H+  H303  1  0.41645302  0.83976457  0.23367534  1
  H+  H304  1  1.00320815  0.33328401  0.66198347  1
  H+  H305  1  0.55985673  0.38742682  0.43005615  1
  H+  H306  1  0.52604916  0.88749232  0.49812699  1
  H+  H307  1  0.15369792  0.57460930  0.23510118  1
  H+  H308  1  0.97589874  0.08810071  0.55318465  1
  H+  H309  1  0.73195324  0.10827267  0.34605227  1
  H+  H310  1  0.89782309  0.11630092  0.33600071  1
  H+  H311  1  0.14243917  0.07189506  0.87141825  1
  H+  H312  1  0.15942324  0.82493511  0.58463361  1
  H+  H313  1  0.66888438  0.34101545  0.90041851  1
  H+  H314  1  0.35452570  0.73169976  0.34264928  1
  H+  H315  1  0.24332442  0.62018389  0.84296691  1
  H+  H316  1  0.93178598  0.82503677  0.87369229  1
  H+  H317  1  0.64960608  0.07461116  0.61947211  1
  H+  H318  1  0.84043052  0.17191187  0.78436699  1
  H+  H319  1  0.37832259  0.62826639  0.32933498  1
  H+  H320  1  0.34413373  0.63784051  0.67147321  1
  H+  H321  1  0.55588077  0.89898801  0.05295649  1
  H+  H322  1  0.08444967  0.66765591  0.10926372  1
  H+  H323  1  0.87779271  0.06600307  0.60725103  1
  H+  H324  1  0.17507838  0.84396866  0.23213923  1
  H+  H325  1  0.78934169  0.61355131  0.63174817  1
  H+  H326  1  0.46585969  0.12003689  0.65727178  1
  H+  H327  1  0.17266438  0.57410219  0.93391749  1
  H+  H328  1  0.65036615  0.82416753  0.90006203  1
  H+  H329  1  0.61761919  1.01390099  0.67673829  1
  H+  H330  1  0.66292637  0.33490663  0.23506122  1
  H+  H331  1  0.33721169  0.92219264  0.07134531  1
  H+  H332  1  0.90142158  0.61654501  0.86134576  1
  H+  H333  1  0.10227693  0.19438616  0.39784153  1
  H+  H334  1  0.38199745  0.83135829  0.92854799  1
  H+  H335  1  0.58261958  0.17591492  0.07377291  1
  H+  H336  1  0.21956702  0.65744441  0.69572956  1
  H+  H337  1  0.14068805  0.31616998  0.88771379  1
  H+  H338  1  0.42351759  0.09987861  0.90519520  1
  H+  H339  1  0.95790086  0.53604873  0.94169055  1
  H+  H340  1  0.16478214  0.34961074  0.22914002  1
  H+  H341  1  0.41189133  0.59517235  0.92728651  1
  H+  H342  1  0.18589343  0.05957035  0.95696999  1
  H+  H343  1  0.65428500  0.57785173  0.92951943  1
  H+  H344  1  0.87909903  0.58974235  0.59612827  1
  H+  H345  1  0.84844058  0.17214902  0.39936160  1
  H+  H346  1  0.33748664  0.17879417  0.72944509  1
  H+  H347  1  0.07972787  0.42459319  0.40124533  1
  H+  H348  1  0.82664672  0.41616121  0.07235386  1
  H+  H349  1  0.90142341  0.70504028  0.42365077  1
  H+  H350  1  0.57334804  0.66196469  0.73350244  1
  H+  H351  1  0.06970807  0.89706392  0.70980160  1
  H+  H352  1  0.35863563  0.49799689  0.34086768  1
  H+  H353  1  0.07925209  -0.00381451  0.19922875  1
  H+  H354  1  0.87550509  0.35129792  0.32940326  1
  H+  H355  1  0.40993260  0.59067055  0.59947614  1
  H+  H356  1  0.88748697  0.98525334  0.34987391  1
  H+  H357  1  0.58724617  0.67636043  0.43266596  1
  H+  H358  1  0.81228818  0.91678277  0.11465565  1
  H+  H359  1  0.23352439  0.87027479  0.32308359  1
  H+  H360  1  0.63617852  0.27689260  0.99558656  1
  H+  H361  1  0.81975720  0.42940012  0.73020720  1
  H+  H362  1  0.35106646  0.76422437  0.84688529  1
  H+  H363  1  0.90983862  0.57367568  0.24231011  1
  H+  H364  1  0.41224084  0.07884580  0.26495632  1
  H+  H365  1  0.07155058  0.65382541  0.43910711  1
  H+  H366  1  0.41379700  0.08933076  0.56339385  1
  H+  H367  1  0.62121692  0.56443413  0.25300746  1
  H+  H368  1  0.92525809  0.33533426  0.57367911  1
  H+  H369  1  0.95687403  0.77949044  0.08160483  1
  H+  H370  1  0.34038109  0.91838615  0.39826243  1
  H+  H371  1  0.93307058  0.07584735  0.25136224  1
  H+  H372  1  0.33848924  0.42912391  0.10096600  1
  H+  H373  1  0.34174514  0.16881673  0.07745487  1
  H+  H374  1  0.37283147  -0.01233801  1.00872470  1
  H+  H375  1  0.73458201  0.14279105  0.95177394  1
  H+  H376  1  0.57886322  0.41052197  0.09673049  1
  H+  H377  1  0.12799181  0.02270175  0.65979570  1
  H+  H378  1  0.82430803  0.74417456  0.64478089  1
  H+  H379  1  0.96967530  0.74799887  0.07024638  1
  H+  H380  1  0.41182310  0.34439711  0.60024482  1
  H+  H381  1  0.89470752  0.62086098  0.50052962  1
  H+  H382  1  0.76100702  0.13392894  0.68890034  1
  H+  H383  1  0.89431126  0.27067979  0.15268929  1
  O2-  O384  1  0.10142405  0.10058681  0.19407288  1
  O2-  O385  1  0.10152949  0.19181211  0.47184573  1
  O2-  O386  1  0.08347851  0.16844490  0.80047954  1
  O2-  O387  1  0.09473853  0.43031299  0.14443125  1
  O2-  O388  1  0.08494761  0.42970868  0.48122752  1
  O2-  O389  1  0.09806111  0.42660385  0.79670297  1
  O2-  O390  1  0.08347036  0.66972731  0.15440278  1
  O2-  O391  1  0.08162633  0.66675268  0.48433657  1
  O2-  O392  1  0.09147300  0.65813517  0.81838137  1
  O2-  O393  1  0.06021150  0.89154797  0.15727077  1
  O2-  O394  1  0.10494009  0.93234293  0.46561250  1
  O2-  O395  1  0.09262424  0.91617563  0.78493292  1
  O2-  O396  1  0.33426937  0.16925181  0.14735962  1
  O2-  O397  1  0.34294688  0.18052965  0.47517184  1
  O2-  O398  1  0.33681503  0.17201678  0.81260435  1
  O2-  O399  1  0.32840905  0.41984914  0.14533063  1
  O2-  O400  1  0.33923839  0.43261206  0.47781121  1
  O2-  O401  1  0.32987649  0.42466300  0.86449304  1
  O2-  O402  1  0.35755759  0.68416760  0.13088804  1
  O2-  O403  1  0.33377622  0.67639396  0.48278660  1
  O2-  O404  1  0.34276804  0.67678079  0.82009043  1
  O2-  O405  1  0.33186204  0.92004464  0.14052308  1
  O2-  O406  1  0.34187240  0.92209709  0.47669226  1
  O2-  O407  1  0.23970764  0.89906453  0.79255013  1
  O2-  O408  1  0.58605499  0.17242332  0.15050894  1
  O2-  O409  1  0.58187865  0.17086722  0.47624371  1
  O2-  O410  1  0.57018561  0.17986492  0.81686746  1
  O2-  O411  1  0.57713895  0.41015112  0.14232392  1
  O2-  O412  1  0.57785040  0.40921109  0.47246670  1
  O2-  O413  1  0.57462856  0.41599000  0.81239053  1
  O2-  O414  1  0.57313202  0.65803222  0.14158580  1
  O2-  O415  1  0.59295773  0.67565047  0.47796084  1
  O2-  O416  1  0.56862342  0.65780584  0.81036114  1
  O2-  O417  1  0.57523466  0.90792746  0.13158540  1
  O2-  O418  1  0.58513891  0.91448944  0.47986287  1
  O2-  O419  1  0.51193918  0.83163364  0.79985939  1
  O2-  O420  1  0.83765272  0.14296508  0.17089426  1
  O2-  O421  1  0.85043084  0.17780582  0.48246446  1
  O2-  O422  1  0.85823463  0.19375483  0.82629145  1
  O2-  O423  1  0.83183824  0.41492601  0.14463361  1
  O2-  O424  1  0.83209733  0.42087140  0.48482635  1
  O2-  O425  1  0.82733825  0.42728239  0.80365213  1
  O2-  O426  1  0.81673554  0.65900548  0.16874278  1
  O2-  O427  1  0.86941270  0.69049987  0.46326342  1
  O2-  O428  1  0.80945448  0.66690329  0.78525453  1
  O2-  O429  1  0.80986601  0.91447537  0.15999428  1
  O2-  O430  1  0.84775156  0.92316505  0.48594508  1
  O2-  O431  1  0.82379525  0.90625395  0.81869194  1
  O2-  O432  1  0.06733238  -0.06169457  0.21368619  1
  O2-  O433  1  0.18210625  0.10426118  0.51403927  1
  O2-  O434  1  0.16081306  0.08231607  0.82886493  1
  O2-  O435  1  0.16149381  0.34674634  0.18377737  1
  O2-  O436  1  0.17016450  0.34314574  0.51610673  1
  O2-  O437  1  0.15921477  0.32981379  0.84415825  1
  O2-  O438  1  0.15311427  0.57348719  0.18951329  1
  O2-  O439  1  0.16910188  0.59592282  0.53094737  1
  O2-  O440  1  0.18032006  0.58433347  0.85668694  1
  O2-  O441  1  0.17234191  0.83937045  0.18586300  1
  O2-  O442  1  0.17186904  0.83523243  0.51085740  1
  O2-  O443  1  0.14109009  0.75188198  0.92177926  1
  O2-  O444  1  0.41830957  0.08484042  0.18816028  1
  O2-  O445  1  0.41393876  0.08585831  0.51710905  1
  O2-  O446  1  0.42656103  0.10539832  0.85975880  1
  O2-  O447  1  0.41463046  0.33950081  0.18179804  1
  O2-  O448  1  0.41394221  0.34232328  0.52068751  1
  O2-  O449  1  0.41277101  0.33358475  0.85802579  1
  O2-  O450  1  0.40979656  0.58123066  0.19010909  1
  O2-  O451  1  0.42052800  0.59495661  0.52030455  1
  O2-  O452  1  0.40439502  0.58830569  0.85573963  1
  O2-  O453  1  0.41282791  0.84165640  0.18814447  1
  O2-  O454  1  0.42114083  0.84156072  0.52559246  1
  O2-  O455  1  0.36649006  0.82433455  0.86152708  1
  O2-  O456  1  0.67228032  0.08950423  0.19569351  1
  O2-  O457  1  0.67612768  0.08846820  0.47408356  1
  O2-  O458  1  0.79302765  0.18543230  0.93889279  1
  O2-  O459  1  0.66657745  0.33601501  0.18946007  1
  O2-  O460  1  0.66340378  0.33364567  0.52112548  1
  O2-  O461  1  0.66572095  0.34092454  0.85477847  1
  O2-  O462  1  0.64593055  0.56938447  0.18359108  1
  O2-  O463  1  0.69049265  0.59197992  0.49598308  1
  O2-  O464  1  0.65674841  0.58055133  0.85152293  1
  O2-  O465  1  0.63011238  0.80896367  0.18922624  1
  O2-  O466  1  0.67292876  0.83776138  0.52409782  1
  O2-  O467  1  0.64815109  0.81992011  0.85466089  1
  O2-  O468  1  0.93827154  0.07406318  0.20578201  1
  O2-  O469  1  0.93079890  0.08361174  0.52681262  1
  O2-  O470  1  0.96718065  0.15494112  0.88556145  1
  O2-  O471  1  0.90729231  0.30900315  0.11779954  1
  O2-  O472  1  0.92000210  0.34065925  0.52933456  1
  O2-  O473  1  0.93062597  0.36583592  0.83893822  1
  O2-  O474  1  0.91688669  0.57735713  0.19501508  1
  O2-  O475  1  0.91404052  0.58701079  0.52532923  1
  O2-  O476  1  0.91233386  0.59938050  0.82082516  1
  O2-  O477  1  0.81670245  0.78709914  0.22430575  1
  O2-  O478  1  0.92879045  0.84300066  0.53687810  1
  O2-  O479  1  0.92060437  0.83275166  0.83033114  1
  O2-  O480  1  0.19485255  0.12674167  0.30708736  1
  O2-  O481  1  0.15891234  0.08040304  0.67641871  1
  O2-  O482  1  0.17987360  0.06016516  1.00113548  1
  O2-  O483  1  0.16765201  0.35419870  0.30834130  1
  O2-  O484  1  0.14399046  0.33024420  0.68631343  1
  O2-  O485  1  0.09293960  0.28127874  0.95639236  1
  O2-  O486  1  0.15586702  0.58489783  0.31256873  1
  O2-  O487  1  0.16704059  0.66239552  0.70442845  1
  O2-  O488  1  0.17074387  0.56837340  0.97952168  1
  O2-  O489  1  0.17606703  0.85233781  0.30535377  1
  O2-  O490  1  0.15016149  0.81241297  0.62974036  1
  O2-  O491  1  0.20835881  0.84178801  0.91496359  1
  O2-  O492  1  0.40995851  0.07682319  0.31064244  1
  O2-  O493  1  0.40982497  0.09390961  0.63640896  1
  O2-  O494  1  0.41952305  0.08458151  0.98341506  1
  O2-  O495  1  0.44593622  0.40405355  0.29558430  1
  O2-  O496  1  0.41204711  0.34717821  0.64570186  1
  O2-  O497  1  0.41601405  0.32520816  0.98056147  1
  O2-  O498  1  0.41135656  0.60070325  0.31313284  1
  O2-  O499  1  0.40249253  0.58721846  0.64464293  1
  O2-  O500  1  0.41475160  0.59432115  0.97378663  1
  O2-  O501  1  0.41846284  0.83290050  0.31114737  1
  O2-  O502  1  0.39662294  0.83746461  0.64818938  1
  O2-  O503  1  0.39424760  0.83647117  0.97543312  1
  O2-  O504  1  0.66717752  0.07995763  0.34665848  1
  O2-  O505  1  0.65101790  0.07644774  0.66381385  1
  O2-  O506  1  0.65614530  0.07689086  1.00659113  1
  O2-  O507  1  0.65403092  0.32485303  0.31264988  1
  O2-  O508  1  0.64663433  0.33054963  0.64520669  1
  O2-  O509  1  0.66757314  0.33642620  0.97846935  1
  O2-  O510  1  0.59912254  0.55641108  0.29669535  1
  O2-  O511  1  0.69084031  0.60279253  0.68109615  1
  O2-  O512  1  0.65752659  0.57625965  0.97479556  1
  O2-  O513  1  0.69647143  0.84168046  0.31823016  1
  O2-  O514  1  0.64720865  0.82761583  0.64822808  1
  O2-  O515  1  0.65152050  0.83047929  0.97794687  1
  O2-  O516  1  0.93057921  0.08599028  0.32599659  1
  O2-  O517  1  0.88380211  0.06531491  0.65148974  1
  O2-  O518  1  0.92599350  0.07495939  0.99897501  1
  O2-  O519  1  0.90686274  0.32184347  0.31587399  1
  O2-  O520  1  0.94017108  0.31554101  0.65660615  1
  O2-  O521  1  0.91452103  0.35369871  0.96347864  1
  O2-  O522  1  0.89043310  0.57063994  0.31104126  1
  O2-  O523  1  0.85436933  0.59180899  0.63675742  1
  O2-  O524  1  0.93988965  0.55649539  0.97681224  1
  O2-  O525  1  0.95737042  0.85834813  0.30414521  1
  O2-  O526  1  0.87279920  0.80477103  0.64728281  1
  O2-  O527  1  0.96059541  0.81166798  0.94699093  1
  O2-  O528  1  0.10330437  0.16401415  0.02806432  1
  O2-  O529  1  0.09674257  0.19110744  0.35201228  1
  O2-  O530  1  0.05709330  0.15885363  0.67956309  1
  O2-  O531  1  0.07532090  0.40475096  0.02107196  1
  O2-  O532  1  0.07623491  0.42351098  0.35590143  1
  O2-  O533  1  0.10738482  0.38659299  0.67889262  1
  O2-  O534  1  0.09604421  0.65729531  0.02882538  1
  O2-  O535  1  0.05561582  0.63894400  0.36700560  1
  O2-  O536  1  0.12490305  0.64867926  0.64495820  1
  O2-  O537  1  0.13016399  0.88487289  -0.00320366  1
  O2-  O538  1  0.12444888  0.96584233  0.34962658  1
  O2-  O539  1  0.05717891  0.88500740  0.66523742  1
  O2-  O540  1  0.34108688  0.16331506  0.03064128  1
  O2-  O541  1  0.35759801  0.18496310  0.35320831  1
  O2-  O542  1  0.33173764  0.18043776  0.68464710  1
  O2-  O543  1  0.39335558  0.45530255  0.02764663  1
  O2-  O544  1  0.33123465  0.43626532  0.35361235  1
  O2-  O545  1  0.30686578  0.41542272  0.67827219  1
  O2-  O546  1  0.33556937  0.67721641  0.01419002  1
  O2-  O547  1  0.32193698  0.67110819  0.35768998  1
  O2-  O548  1  0.31953336  0.67156203  0.68986041  1
  O2-  O549  1  0.34028575  0.92561979  0.02413983  1
  O2-  O550  1  0.33981059  0.91461995  0.35276145  1
  O2-  O551  1  0.29012449  0.88716570  0.68847426  1
  O2-  O552  1  0.58110478  0.17415664  0.02794145  1
  O2-  O553  1  0.57336357  0.16155000  0.35374772  1
  O2-  O554  1  0.57234152  0.17238376  0.69736471  1
  O2-  O555  1  0.58315776  0.41541949  0.01875678  1
  O2-  O556  1  0.51657870  0.33105974  0.36254633  1
  O2-  O557  1  0.57384800  0.42155397  0.68881674  1
  O2-  O558  1  0.57373608  0.66449354  0.01956857  1
  O2-  O559  1  0.57823752  0.67824922  0.35458385  1
  O2-  O560  1  0.57882269  0.66040541  0.68803047  1
  O2-  O561  1  0.55925410  0.90651925  0.00794219  1
  O2-  O562  1  0.58689864  0.90597021  0.35671487  1
  O2-  O563  1  0.56140931  0.90811439  0.69019333  1
  O2-  O564  1  0.86333805  0.17200949  0.04505442  1
  O2-  O565  1  0.83924128  0.16433801  0.35468175  1
  O2-  O566  1  0.82150978  0.15670992  0.70255805  1
  O2-  O567  1  0.82759910  0.41666330  0.02599190  1
  O2-  O568  1  0.81924624  0.40862665  0.35619344  1
  O2-  O569  1  0.81137290  0.43361126  0.68471118  1
  O2-  O570  1  0.86927729  0.64191064  -0.06833293  1
  O2-  O571  1  0.95986678  0.72503276  0.35466507  1
  O2-  O572  1  0.74578568  0.63854129  0.62632274  1
  O2-  O573  1  0.81204869  0.91842919  0.03341330  1
  O2-  O574  1  0.85896758  0.92285493  0.36248988  1
  O2-  O575  1  0.80990244  0.90193129  0.69414048  1
