# generated using pymatgen
data_H2O
_symmetry_space_group_name_H-M   'P 1'
_cell_length_a   17.97713366
_cell_length_b   17.99139294
_cell_length_c   21.99351853
_cell_angle_alpha   90.01122939
_cell_angle_beta   90.00642656
_cell_angle_gamma   119.99163705
_symmetry_Int_Tables_number   1
_chemical_formula_structural   H2O
_chemical_formula_sum   'H384 O192'
_cell_volume   6160.94245657
_cell_formula_units_Z   192
loop_
 _symmetry_equiv_pos_site_id
 _symmetry_equiv_pos_as_xyz
  1  'x, y, z'
loop_
 _atom_type_symbol
 _atom_type_oxidation_number
  H+  1.0
  O2-  -2.0
loop_
 _atom_site_type_symbol
 _atom_site_label
 _atom_site_symmetry_multiplicity
 _atom_site_fract_x
 _atom_site_fract_y
 _atom_site_fract_z
 _atom_site_occupancy
  H+  H0  1  0.38277038  0.52854777  0.82447524  1
  H+  H1  1  0.32813695  0.64836532  1.07474992  1
  H+  H2  1  0.66216083  0.30120801  0.16733744  1
  H+  H3  1  0.59960952  0.53758167  0.66662945  1
  H+  H4  1  0.86597513  0.48190555  0.47376743  1
  H+  H5  1  0.30283596  0.67140803  0.84249006  1
  H+  H6  1  0.07680201  0.64901563  0.88432003  1
  H+  H7  1  0.87559084  0.25877497  0.68180891  1
  H+  H8  1  0.15349901  0.87848600  0.47989165  1
  H+  H9  1  0.38218451  0.76877226  0.66062638  1
  H+  H10  1  0.85834233  0.83766197  0.17751069  1
  H+  H11  1  0.62192237  0.15008346  0.34332298  1
  H+  H12  1  0.70916878  0.36089299  0.84594779  1
  H+  H13  1  0.12426734  0.15477170  -0.00081223  1
  H+  H14  1  0.97235425  0.11841239  0.32112916  1
  H+  H15  1  -0.00887717  0.92474625  0.47865572  1
  H+  H16  1  0.48489670  0.12052405  0.32791812  1
  H+  H17  1  0.40512029  0.43814956  0.80720630  1
  H+  H18  1  0.14130622  0.24009417  0.82728375  1
  H+  H19  1  0.40472774  0.79913225  0.83772224  1
  H+  H20  1  0.33766763  0.42014335  0.09200637  1
  H+  H21  1  0.36757641  0.22537460  0.33866280  1
  H+  H22  1  0.61742264  0.26183794  0.01377103  1
  H+  H23  1  0.62304841  0.24354067  0.49776315  1
  H+  H24  1  0.97658282  0.12847058  0.66184770  1
  H+  H25  1  0.68113104  0.88253616  0.16332166  1
  H+  H26  1  0.87927214  0.36035754  0.68722070  1
  H+  H27  1  0.11812631  0.63801227  0.49116950  1
  H+  H28  1  0.25655898  0.37918755  0.83368507  1
  H+  H29  1  0.59809713  0.37738807  0.82106972  1
  H+  H30  1  0.98414984  0.12982686  0.98794720  1
  H+  H31  1  -0.03195118  0.33533847  0.84551309  1
  H+  H32  1  0.39494157  0.80395662  0.25327295  1
  H+  H33  1  0.84865669  0.73027632  0.82936638  1
  H+  H34  1  0.39149863  0.36174171  0.32486966  1
  H+  H35  1  0.13803766  0.11293223  0.83752196  1
  H+  H36  1  0.59977329  0.83974863  0.81146670  1
  H+  H37  1  0.77569195  0.63848422  0.32887282  1
  H+  H38  1  0.64328673  0.28130474  0.32332699  1
  H+  H39  1  0.26254843  0.12687733  0.15598700  1
  H+  H40  1  0.23347243  0.86228459  0.67420647  1
  H+  H41  1  0.59975039  0.92938469  0.42527047  1
  H+  H42  1  0.60135206  0.38456690  0.48844518  1
  H+  H43  1  0.76791713  0.14304096  0.48721263  1
  H+  H44  1  0.61802467  0.85947862  0.50919711  1
  H+  H45  1  0.46394040  0.07111179  0.15657379  1
  H+  H46  1  0.84250656  0.71363284  0.15709420  1
  H+  H47  1  0.13887426  0.39850262  0.39909280  1
  H+  H48  1  0.04795542  0.64456134  0.14697114  1
  H+  H49  1  0.85956525  0.13514214  0.33772178  1
  H+  H50  1  0.64120250  0.86416830  0.32071703  1
  H+  H51  1  0.84683834  0.63121963  0.00568499  1
  H+  H52  1  0.37219604  0.47704220  0.15266510  1
  H+  H53  1  0.61241033  0.72741974  0.33597290  1
  H+  H54  1  0.53435889  0.89884578  0.33820540  1
  H+  H55  1  0.10991874  0.12940244  0.67387005  1
  H+  H56  1  0.11895013  0.47827138  0.00358863  1
  H+  H57  1  0.57239093  0.94980850  0.74698125  1
  H+  H58  1  0.88877627  0.27591891  1.00224789  1
  H+  H59  1  0.22595184  0.61857269  0.51040178  1
  H+  H60  1  0.36594373  0.74839113  1.03058409  1
  H+  H61  1  0.11966444  0.37218314  0.83221560  1
  H+  H62  1  0.61181691  0.60344151  0.51216004  1
  H+  H63  1  0.28350893  0.65495316  1.00453665  1
  H+  H64  1  0.62899905  0.32996644  0.66329282  1
  H+  H65  1  0.63366215  0.10770604  0.99501192  1
  H+  H66  1  0.39383259  0.88213830  0.33793538  1
  H+  H67  1  0.14610540  0.76989238  0.31558183  1
  H+  H68  1  0.46936035  0.35271650  0.16896794  1
  H+  H69  1  0.63651178  0.61666620  0.32730369  1
  H+  H70  1  0.54371265  0.78951826  0.54370862  1
  H+  H71  1  0.87545273  0.25238365  0.84625604  1
  H+  H72  1  0.31666252  0.90342192  0.49863337  1
  H+  H73  1  0.21074227  0.35128730  0.89821882  1
  H+  H74  1  0.36820584  0.14454243  0.49375222  1
  H+  H75  1  0.12093578  0.73468865  0.84581867  1
  H+  H76  1  0.35430498  0.94170552  0.43332752  1
  H+  H77  1  0.82402814  0.94105761  0.17549036  1
  H+  H78  1  0.37269203  0.09789671  0.82959884  1
  H+  H79  1  0.61459560  0.97395530  0.66075678  1
  H+  H80  1  0.97325813  0.85463143  0.66099696  1
  H+  H81  1  0.35535632  0.11731458  0.67139894  1
  H+  H82  1  0.57336369  0.41461660  0.42915867  1
  H+  H83  1  0.46235060  0.34629852  0.84326903  1
  H+  H84  1  0.46137030  0.35745063  0.50417446  1
  H+  H85  1  0.95527896  0.97117517  0.39858633  1
  H+  H86  1  0.59250618  0.46348405  0.81613496  1
  H+  H87  1  0.59449620  0.37601251  0.01420086  1
  H+  H88  1  0.34030513  0.02799014  0.61651392  1
  H+  H89  1  0.84164037  0.62560491  0.15353966  1
  H+  H90  1  0.11020468  0.85268808  0.49502440  1
  H+  H91  1  1.01971405  0.63711761  0.70209656  1
  H+  H92  1  0.83871670  0.68395792  0.42077227  1
  H+  H93  1  0.87153693  0.47781784  0.32752497  1
  H+  H94  1  0.88024612  0.49441358  0.15772700  1
  H+  H95  1  0.78891353  0.41018151  0.16426354  1
  H+  H96  1  0.02910509  0.39085860  0.00545846  1
  H+  H97  1  0.37839509  0.65442871  0.82684729  1
  H+  H98  1  0.23840601  0.63077694  0.66209911  1
  H+  H99  1  0.61681282  0.51203920  0.98612878  1
  H+  H100  1  0.37872943  0.63922502  0.64823736  1
  H+  H101  1  0.92388385  0.59534182  0.06083454  1
  H+  H102  1  0.39567060  0.11815871  0.32703447  1
  H+  H103  1  0.87237405  0.11841186  0.50451839  1
  H+  H104  1  0.87147934  0.60569975  0.68668824  1
  H+  H105  1  0.60608545  0.14758437  0.82584260  1
  H+  H106  1  0.39935880  0.88658262  1.02474095  1
  H+  H107  1  0.70572058  0.60036730  0.98469584  1
  H+  H108  1  0.23548374  0.37108186  0.16047387  1
  H+  H109  1  0.86046659  0.38585809  0.00573038  1
  H+  H110  1  0.21946516  0.09954114  0.83447554  1
  H+  H111  1  0.91555549  0.05744713  0.82565872  1
  H+  H112  1  0.89040750  0.61537577  0.31890630  1
  H+  H113  1  0.10831255  0.49107554  0.51600826  1
  H+  H114  1  0.90246158  0.13806518  0.82844914  1
  H+  H115  1  0.46075837  0.60325652  0.49783699  1
  H+  H116  1  1.03109150  0.39070283  0.15756893  1
  H+  H117  1  0.98536285  0.85561391  0.32353667  1
  H+  H118  1  0.42854099  0.83275926  0.60219099  1
  H+  H119  1  0.71820066  1.00889159  0.12616230  1
  H+  H120  1  0.36332759  0.88766852  0.82883463  1
  H+  H121  1  0.08238238  0.41749027  0.73711297  1
  H+  H122  1  0.36802726  0.97656369  0.67582739  1
  H+  H123  1  0.37603427  -0.00643481  0.33390124  1
  H+  H124  1  0.14498492  0.26572010  0.66538857  1
  H+  H125  1  0.40843704  0.04564435  0.50587761  1
  H+  H126  1  0.35203289  0.47109462  0.49065533  1
  H+  H127  1  0.72014551  0.61262471  0.83701699  1
  H+  H128  1  0.37384017  0.26761287  0.50452482  1
  H+  H129  1  0.35879453  0.48297495  -0.01324742  1
  H+  H130  1  0.87306695  0.38883628  0.33196799  1
  H+  H131  1  0.61301315  0.39566653  0.15856028  1
  H+  H132  1  0.63102059  0.10274316  0.65697956  1
  H+  H133  1  0.61023521  0.63719864  0.15999887  1
  H+  H134  1  0.26242215  0.36818705  0.67365134  1
  H+  H135  1  0.37540173  0.79434578  0.18386591  1
  H+  H136  1  0.78766989  0.88442942  0.08197608  1
  H+  H137  1  0.38015689  0.60036150  0.32006232  1
  H+  H138  1  0.20354342  0.57366943  0.80414789  1
  H+  H139  1  0.14498054  0.37130973  0.16201543  1
  H+  H140  1  0.95055873  0.03481427  0.19221640  1
  H+  H141  1  0.92577201  0.85013084  0.99963966  1
  H+  H142  1  0.21610288  0.87746352  0.15925980  1
  H+  H143  1  0.72906750  0.13693411  0.83568213  1
  H+  H144  1  0.46850635  0.10276560  0.83064501  1
  H+  H145  1  0.78800678  0.08585240  0.80359591  1
  H+  H146  1  0.95914444  0.36290395  0.52333180  1
  H+  H147  1  0.45813952  0.59937904  -0.01409420  1
  H+  H148  1  0.14222255  0.62039178  0.66780467  1
  H+  H149  1  0.35133170  0.62557836  0.48473511  1
  H+  H150  1  0.75668130  0.87942514  0.48864428  1
  H+  H151  1  0.49089320  0.85357293  0.50071025  1
  H+  H152  1  0.70324599  0.10870972  0.17273115  1
  H+  H153  1  0.84536558  0.10523028  0.15130655  1
  H+  H154  1  0.81910468  0.86116420  0.01687785  1
  H+  H155  1  0.57693348  0.83034335  0.84152575  1
  H+  H156  1  0.37386034  0.88800584  0.67408853  1
  H+  H157  1  0.59315083  0.62716347  0.00295466  1
  H+  H158  1  0.40713591  0.57258693  0.92123822  1
  H+  H159  1  0.10806192  0.48415803  0.68076622  1
  H+  H160  1  1.03662331  0.64660582  1.00051582  1
  H+  H161  1  0.61772637  0.39262926  0.33643436  1
  H+  H162  1  0.47736096  0.89711239  0.82966072  1
  H+  H163  1  0.12900015  0.72885557  0.48749527  1
  H+  H164  1  0.37837389  0.37204340  0.99392626  1
  H+  H165  1  0.77131726  0.88213737  0.65917313  1
  H+  H166  1  -0.01777270  0.35485592  0.33698506  1
  H+  H167  1  -0.00079437  0.17538929  0.47870464  1
  H+  H168  1  0.53186006  0.16275623  0.17609262  1
  H+  H169  1  0.29392594  0.13524743  0.00088698  1
  H+  H170  1  0.10294752  0.97269268  0.82800416  1
  H+  H171  1  0.87361704  0.52608135  0.84738793  1
  H+  H172  1  0.14133538  0.85527643  0.31231934  1
  H+  H173  1  0.71732522  0.85298990  1.01623996  1
  H+  H174  1  0.62034668  0.27469784  0.83326250  1
  H+  H175  1  0.63240483  0.97533604  0.15877007  1
  H+  H176  1  0.77831776  0.13878662  1.00104079  1
  H+  H177  1  0.90783938  0.82200377  0.23142167  1
  H+  H178  1  0.26375250  0.60176959  0.14797442  1
  H+  H179  1  0.86571512  0.87258656  0.65868557  1
  H+  H180  1  0.34943096  0.38042908  0.49390491  1
  H+  H181  1  0.22246133  0.10158857  0.50526747  1
  H+  H182  1  0.87494503  0.36168179  0.50087500  1
  H+  H183  1  0.12956068  1.01324012  0.66283018  1
  H+  H184  1  0.30027915  0.92376382  -0.00517852  1
  H+  H185  1  0.35607275  0.20381599  0.82635627  1
  H+  H186  1  0.15456628  1.01067097  0.32322799  1
  H+  H187  1  0.13051732  0.10756266  0.16942343  1
  H+  H188  1  0.60655512  0.09207322  0.17814269  1
  H+  H189  1  0.35607713  0.60274722  0.14759758  1
  H+  H190  1  0.70621707  0.35124242  0.01078759  1
  H+  H191  1  0.98782080  0.62230503  0.48482650  1
  H+  H192  1  0.53265436  0.15657264  0.49806666  1
  H+  H193  1  0.13881107  0.38055151  0.52771768  1
  H+  H194  1  0.82299071  0.40304206  0.79122114  1
  H+  H195  1  0.91695471  0.10403999  0.60322265  1
  H+  H196  1  0.10602457  0.67741557  0.05168378  1
  H+  H197  1  0.86757432  0.15209136  0.67426653  1
  H+  H198  1  0.88505726  0.52241866  1.01226705  1
  H+  H199  1  0.09249368  0.25831383  0.48730612  1
  H+  H200  1  0.27845598  0.38033966  0.33318816  1
  H+  H201  1  0.62130483  0.98757827  0.48623559  1
  H+  H202  1  0.62103126  0.44209062  0.66678061  1
  H+  H203  1  0.70956751  0.60557000  0.17383672  1
  H+  H204  1  0.87580228  0.90747231  0.81241135  1
  H+  H205  1  0.60627686  0.75697291  1.00362397  1
  H+  H206  1  0.73373701  0.36895362  0.31982695  1
  H+  H207  1  0.48038243  0.87364122  1.02748066  1
  H+  H208  1  0.84792485  0.75667965  -0.00948505  1
  H+  H209  1  0.62381642  -0.01299128  0.33537234  1
  H+  H210  1  0.96888346  0.68477927  0.18664686  1
  H+  H211  1  0.28695866  0.90101315  0.33310230  1
  H+  H212  1  0.76157096  0.36692486  0.69238117  1
  H+  H213  1  0.85706723  0.23235800  0.48976900  1
  H+  H214  1  0.00608509  0.87342410  0.15294858  1
  H+  H215  1  0.13552215  0.51752296  0.16235476  1
  H+  H216  1  0.12339526  0.01489153  0.16567590  1
  H+  H217  1  0.49938134  0.10900505  0.66671070  1
  H+  H218  1  0.04482988  0.16097982  0.82643744  1
  H+  H219  1  0.90471885  0.37904275  0.17622817  1
  H+  H220  1  0.15028374  0.62089364  0.98036023  1
  H+  H221  1  0.87196028  0.65516202  0.47624362  1
  H+  H222  1  0.14344078  0.60699034  0.83048488  1
  H+  H223  1  0.35458306  0.20875914  0.67320113  1
  H+  H224  1  0.32009699  0.65640514  0.42657354  1
  H+  H225  1  0.11727342  0.50736946  0.30555150  1
  H+  H226  1  0.90825789  0.87239813  0.33045908  1
  H+  H227  1  0.87029637  0.14180887  0.99985698  1
  H+  H228  1  0.13945646  0.34920332  0.31325977  1
  H+  H229  1  0.36782966  0.33210657  0.84935003  1
  H+  H230  1  0.10903891  0.21892010  0.32260214  1
  H+  H231  1  0.06755113  0.91579870  -0.00131963  1
  H+  H232  1  0.34199372  0.69517672  0.30934097  1
  H+  H233  1  0.47619685  0.37023997  1.00219309  1
  H+  H234  1  0.97548768  0.36907954  0.68007781  1
  H+  H235  1  0.08171835  1.01331544  0.47736910  1
  H+  H236  1  0.88071472  0.76639556  0.66103156  1
  H+  H237  1  0.50787286  0.10655840  0.00939808  1
  H+  H238  1  0.73012184  0.12283631  0.32767557  1
  H+  H239  1  0.63524573  0.05614696  0.83109203  1
  H+  H240  1  -0.03193450  0.86765108  0.84014129  1
  H+  H241  1  0.22137928  0.37032231  0.51159363  1
  H+  H242  1  0.63725925  0.52733476  0.32698895  1
  H+  H243  1  0.10237303  0.44950183  0.83542816  1
  H+  H244  1  0.84334330  0.46217285  0.70190245  1
  H+  H245  1  0.81625663  0.66824139  0.73754185  1
  H+  H246  1  0.37335606  1.00085149  0.82856780  1
  H+  H247  1  0.25526769  0.77659215  0.55367110  1
  H+  H248  1  0.86665047  0.72707070  0.32689973  1
  H+  H249  1  0.64561302  0.87390339  0.66422003  1
  H+  H250  1  0.38152153  0.35252073  0.16671259  1
  H+  H251  1  0.16339704  1.04890773  -0.00481053  1
  H+  H252  1  0.80031512  0.92828303  0.80335371  1
  H+  H253  1  0.12551873  0.23803426  0.15603063  1
  H+  H254  1  0.62661054  0.71510704  0.83323472  1
  H+  H255  1  0.14904347  0.61471035  0.16016338  1
  H+  H256  1  0.75309334  0.81910432  0.87729842  1
  H+  H257  1  0.25697385  0.61312106  0.32597140  1
  H+  H258  1  0.48117873  0.61647066  0.17178957  1
  H+  H259  1  0.28209930  0.13192155  0.33629451  1
  H+  H260  1  0.74131907  0.38548831  0.50283219  1
  H+  H261  1  0.03195847  0.15876435  0.15434977  1
  H+  H262  1  0.22499833  0.86586326  0.83468658  1
  H+  H263  1  0.21992849  0.10019111  0.66411949  1
  H+  H264  1  0.20480170  0.37948774  1.00582110  1
  H+  H265  1  0.16440732  0.88160075  0.99547704  1
  H+  H266  1  0.11287461  0.62999940  0.32843019  1
  H+  H267  1  0.89193063  0.27227493  0.32732559  1
  H+  H268  1  0.40462584  0.80729523  0.36631796  1
  H+  H269  1  0.52651123  0.38834624  0.33451176  1
  H+  H270  1  0.88001124  0.03409892  0.50783356  1
  H+  H271  1  0.60951079  0.51369765  0.51302832  1
  H+  H272  1  0.06755549  0.18495771  0.38705271  1
  H+  H273  1  0.13262900  0.73509234  0.14683787  1
  H+  H274  1  0.58953264  0.71594549  0.49335205  1
  H+  H275  1  0.37350007  0.07703151  1.00127008  1
  H+  H276  1  0.89504788  1.02698157  0.33551563  1
  H+  H277  1  0.62116012  0.61756812  0.82652564  1
  H+  H278  1  0.68007715  0.83580545  0.26643689  1
  H+  H279  1  0.52318829  0.63697629  0.33573895  1
  H+  H280  1  0.47424555  0.61408716  0.83319411  1
  H+  H281  1  0.88347474  0.78076766  0.49749754  1
  H+  H282  1  0.14356889  0.77387023  0.67788615  1
  H+  H283  1  0.84531416  0.88161764  0.50084173  1
  H+  H284  1  0.64162057  0.57763935  0.60050255  1
  H+  H285  1  0.10895405  0.87729351  0.67730056  1
  H+  H286  1  0.46468750  0.63221920  0.65093146  1
  H+  H287  1  0.82790856  0.16674283  0.74102837  1
  H+  H288  1  0.92879176  0.10672287  0.92785128  1
  H+  H289  1  0.09156628  0.16851732  0.73365456  1
  H+  H290  1  0.89911606  0.05216875  0.24373860  1
  H+  H291  1  0.09606421  0.87373741  0.15644618  1
  H+  H292  1  0.83274997  0.17064166  0.39655074  1
  H+  H293  1  0.40369649  0.32012222  0.59845014  1
  H+  H294  1  0.93438223  0.34591711  0.23318594  1
  H+  H295  1  0.40499497  0.75980637  0.50308435  1
  H+  H296  1  0.33372014  0.91353337  0.76489301  1
  H+  H297  1  0.91450152  0.32682148  0.94045430  1
  H+  H298  1  0.72712376  0.11782986  0.65861204  1
  H+  H299  1  0.84711698  0.92690164  0.71406216  1
  H+  H300  1  0.67626455  0.34674311  0.23232122  1
  H+  H301  1  0.18519119  0.58508759  0.92744451  1
  H+  H302  1  0.09123254  0.17738321  0.05844557  1
  H+  H303  1  0.15843150  0.57257752  0.25013587  1
  H+  H304  1  0.32816651  0.15069189  0.76198267  1
  H+  H305  1  0.32903540  0.40802616  0.39724947  1
  H+  H306  1  0.85481121  0.37914719  0.85046352  1
  H+  H307  1  0.52334834  0.88294536  0.66604920  1
  H+  H308  1  0.70208822  0.42162893  0.55038161  1
  H+  H309  1  0.53146778  1.00624244  0.76265933  1
  H+  H310  1  0.59159588  0.67054212  0.76315009  1
  H+  H311  1  0.10207225  0.88329309  0.82966158  1
  H+  H312  1  0.57569408  0.66440508  0.43031568  1
  H+  H313  1  0.76081579  0.63382564  0.67619543  1
  H+  H314  1  0.93454100  0.60609811  0.23141500  1
  H+  H315  1  0.46693113  0.34349309  0.65520518  1
  H+  H316  1  0.61178718  0.65205621  0.67392579  1
  H+  H317  1  0.38765492  0.51593034  0.32624259  1
  H+  H318  1  0.17201607  0.59927304  0.57455698  1
  H+  H319  1  0.60061051  0.47721441  0.16227589  1
  H+  H320  1  0.16337477  0.79260992  0.98812619  1
  H+  H321  1  0.65083171  0.57385115  0.89421756  1
  H+  H322  1  0.33737092  0.41711069  0.73873132  1
  H+  H323  1  0.62295471  0.73103540  0.15409183  1
  H+  H324  1  0.56683259  0.65472828  0.06542675  1
  H+  H325  1  0.09636198  0.92535019  0.06780759  1
  H+  H326  1  0.07217512  0.90484446  0.73427372  1
  H+  H327  1  0.17917092  0.09358219  0.93069927  1
  H+  H328  1  0.61937258  0.97957985  -0.00238816  1
  H+  H329  1  0.56420378  0.15638183  0.76295841  1
  H+  H330  1  0.17507873  0.06685089  0.26276034  1
  H+  H331  1  0.06507079  0.93631717  0.40123522  1
  H+  H332  1  0.65617118  0.83148997  0.60410681  1
  H+  H333  1  0.98150188  0.61669468  0.32103792  1
  H+  H334  1  0.35522337  0.21263354  0.15972132  1
  H+  H335  1  0.41872913  0.57622572  0.23001486  1
  H+  H336  1  0.33498723  0.68067367  0.72090335  1
  H+  H337  1  0.16800684  0.83002981  0.22088700  1
  H+  H338  1  0.35954173  0.37256506  0.67502877  1
  H+  H339  1  0.81824202  0.13402216  0.08907638  1
  H+  H340  1  0.09412001  0.66743269  0.38946308  1
  H+  H341  1  0.56866037  0.41820271  0.06778534  1
  H+  H342  1  0.57466354  0.39486007  0.72879776  1
  H+  H343  1  0.59376718  0.18531599  0.40080824  1
  H+  H344  1  0.80654477  0.65635833  0.05969308  1
  H+  H345  1  0.83440279  0.41551587  0.06618133  1
  H+  H346  1  0.61693896  0.74270553  0.68104668  1
  H+  H347  1  0.17821220  0.33724900  0.25098339  1
  H+  H348  1  0.08756771  0.66578953  0.75448969  1
  H+  H349  1  0.67495872  0.31304454  0.60800516  1
  H+  H350  1  0.20664645  0.81965164  0.58258495  1
  H+  H351  1  0.41040117  0.32638027  0.94036531  1
  H+  H352  1  0.85754203  0.92633058  0.40848503  1
  H+  H353  1  0.33379030  0.16659094  0.43298886  1
  H+  H354  1  0.42873614  0.10002565  0.56783483  1
  H+  H355  1  0.85026139  0.64040044  0.82769686  1
  H+  H356  1  0.55888776  0.13612318  0.07081407  1
  H+  H357  1  0.34001658  0.14782816  0.06445214  1
  H+  H358  1  0.32732295  0.97023552  0.08882757  1
  H+  H359  1  0.17621098  0.84756449  0.89795213  1
  H+  H360  1  0.41701326  0.32959768  0.26450493  1
  H+  H361  1  0.40448224  0.58755303  0.55854301  1
  H+  H362  1  0.08802043  0.41841190  0.09477662  1
  H+  H363  1  0.67317893  0.80038383  0.91870596  1
  H+  H364  1  0.05927648  0.30725981  0.41199756  1
  H+  H365  1  0.91961187  0.59220918  0.53736280  1
  H+  H366  1  0.17440286  0.33197361  0.60902560  1
  H+  H367  1  0.90026913  0.84276795  0.89538278  1
  H+  H368  1  0.82824559  0.41416035  0.41966000  1
  H+  H369  1  0.66712242  0.09268719  0.93145501  1
  H+  H370  1  0.06875078  0.41815520  0.46511010  1
  H+  H371  1  -0.04058974  0.61497413  0.83821109  1
  H+  H372  1  0.61833029  0.85761764  0.99763050  1
  H+  H373  1  0.16263994  0.07002325  0.56432330  1
  H+  H374  1  0.63850996  0.12380397  0.50421679  1
  H+  H375  1  0.61434480  0.93456818  0.06125319  1
  H+  H376  1  0.66332624  0.09110752  0.27152420  1
  H+  H377  1  0.11298444  0.88479172  0.39556402  1
  H+  H378  1  0.59149278  0.19476991  0.66903094  1
  H+  H379  1  0.91045242  0.56742573  0.64041051  1
  H+  H380  1  0.34731661  0.07809487  0.16451248  1
  H+  H381  1  0.91186925  0.83247145  0.56142252  1
  H+  H382  1  0.65444656  0.58149084  0.23573087  1
  H+  H383  1  0.66848966  0.08911406  0.56112269  1
  O2-  O384  1  0.09102372  0.17535613  0.14428437  1
  O2-  O385  1  0.04814147  0.22289752  0.45614522  1
  O2-  O386  1  0.10479474  0.17993587  0.81247920  1
  O2-  O387  1  0.09183579  0.42066998  0.14074304  1
  O2-  O388  1  0.07541398  0.42706910  0.50925311  1
  O2-  O389  1  0.07803239  0.39078184  0.81957505  1
  O2-  O390  1  0.10656044  0.67472803  0.12994991  1
  O2-  O391  1  0.09324924  0.67089665  0.47006155  1
  O2-  O392  1  0.08965685  0.66912755  0.84227802  1
  O2-  O393  1  0.06696094  0.90447482  0.13963619  1
  O2-  O394  1  0.03081907  0.97191132  0.45107672  1
  O2-  O395  1  0.06897502  0.91060677  0.81469997  1
  O2-  O396  1  0.32425373  0.15267020  0.14378524  1
  O2-  O397  1  0.33197081  0.16832858  0.47866249  1
  O2-  O398  1  0.32618232  0.14541236  0.80873235  1
  O2-  O399  1  0.33913073  0.41669790  0.13683478  1
  O2-  O400  1  0.31986286  0.40997384  0.47599247  1
  O2-  O401  1  0.35061002  0.43523807  0.79875178  1
  O2-  O402  1  0.31016187  0.60323862  0.12178351  1
  O2-  O403  1  0.32345888  0.65989946  0.47137143  1
  O2-  O404  1  0.35301919  0.69157165  0.81618440  1
  O2-  O405  1  0.29451806  0.96601414  0.12708259  1
  O2-  O406  1  0.36747894  0.94858823  0.47745049  1
  O2-  O407  1  0.32916905  0.91569811  0.81104194  1
  O2-  O408  1  0.52699671  0.11432548  0.15293510  1
  O2-  O409  1  0.59358299  0.18530705  0.48127266  1
  O2-  O410  1  0.56364288  0.16298655  0.80813546  1
  O2-  O411  1  0.57569310  0.41819581  0.14411035  1
  O2-  O412  1  0.56740237  0.41058237  0.47472605  1
  O2-  O413  1  0.56181083  0.40273506  0.80353013  1
  O2-  O414  1  0.58486432  0.67077999  0.14135160  1
  O2-  O415  1  0.56823580  0.65802799  0.47564993  1
  O2-  O416  1  0.59082364  0.65934664  0.80997873  1
  O2-  O417  1  0.66098557  0.95350579  0.13120387  1
  O2-  O418  1  0.59608007  0.92755932  0.47085984  1
  O2-  O419  1  0.55828032  0.97691570  0.78233227  1
  O2-  O420  1  0.79787033  0.10697502  0.13091978  1
  O2-  O421  1  0.82854722  0.17223836  0.47200851  1
  O2-  O422  1  0.81923374  0.14855140  0.80268620  1
  O2-  O423  1  0.84764624  0.43384946  0.14638261  1
  O2-  O424  1  0.82845614  0.41958597  0.46513972  1
  O2-  O425  1  0.82587433  0.41062587  0.83622775  1
  O2-  O426  1  0.81052433  0.65436043  0.13887595  1
  O2-  O427  1  0.84371322  0.68821729  0.46573393  1
  O2-  O428  1  0.81678248  0.66977965  0.81469267  1
  O2-  O429  1  0.79021181  0.88127437  0.15580232  1
  O2-  O430  1  0.81857916  0.91517868  0.48407515  1
  O2-  O431  1  0.85771044  0.94401443  0.78890297  1
  O2-  O432  1  0.15850034  0.07410540  0.18158502  1
  O2-  O433  1  0.16281404  0.06403232  0.51963248  1
  O2-  O434  1  0.16065796  0.07475066  0.85203488  1
  O2-  O435  1  0.17528425  0.34013286  0.17667735  1
  O2-  O436  1  0.16392984  0.34237981  0.53210867  1
  O2-  O437  1  0.19875972  0.34561626  0.85413924  1
  O2-  O438  1  0.16988227  0.57841517  0.17955684  1
  O2-  O439  1  0.16736766  0.59598493  0.52829442  1
  O2-  O440  1  0.17149044  0.57286835  0.84031699  1
  O2-  O441  1  0.16012145  0.83027000  0.17578542  1
  O2-  O442  1  0.22652631  0.80853002  0.54292209  1
  O2-  O443  1  0.16588280  0.83703497  0.85306627  1
  O2-  O444  1  0.35751277  0.02767154  0.16998492  1
  O2-  O445  1  0.43510665  0.10634358  0.52236055  1
  O2-  O446  1  0.40537154  0.06733502  0.84369002  1
  O2-  O447  1  0.40891381  0.32078890  0.18392062  1
  O2-  O448  1  0.40229937  0.32796530  0.52156726  1
  O2-  O449  1  0.40577146  0.31170337  0.86483927  1
  O2-  O450  1  0.42051240  0.57755542  0.18439538  1
  O2-  O451  1  0.40024807  0.57549186  0.51282890  1
  O2-  O452  1  0.41367229  0.58783787  0.84564573  1
  O2-  O453  1  0.36721337  0.76100228  0.22072869  1
  O2-  O454  1  0.45095392  0.80622528  0.52788095  1
  O2-  O455  1  0.42337777  0.85857308  0.85164050  1
  O2-  O456  1  0.64836210  0.07636262  0.19482060  1
  O2-  O457  1  0.66688265  0.09023167  0.51579126  1
  O2-  O458  1  0.66886305  0.11171704  0.85301057  1
  O2-  O459  1  0.68247056  0.35700627  0.18641388  1
  O2-  O460  1  0.68867848  0.36834949  0.52961748  1
  O2-  O461  1  0.64581004  0.33485681  0.84710473  1
  O2-  O462  1  0.64980917  0.57867744  0.18973434  1
  O2-  O463  1  0.63418718  0.56989429  0.53393934  1
  O2-  O464  1  0.65598797  0.57841909  0.84784593  1
  O2-  O465  1  0.70188321  0.84294978  0.18004090  1
  O2-  O466  1  0.60547488  0.80880255  0.53585303  1
  O2-  O467  1  0.69162083  0.78134478  0.88201966  1
  O2-  O468  1  0.89733679  0.03579702  0.19838111  1
  O2-  O469  1  0.90938489  0.09508650  0.51992055  1
  O2-  O470  1  0.93978442  0.11473235  0.84413735  1
  O2-  O471  1  0.93633181  0.34964183  0.18827335  1
  O2-  O472  1  0.89603123  0.32668645  0.52107526  1
  O2-  O473  1  0.90882280  0.31163344  0.86196824  1
  O2-  O474  1  0.94152417  0.62215631  0.18613397  1
  O2-  O475  1  0.92408991  0.59021453  0.49340690  1
  O2-  O476  1  0.89853763  0.58945152  0.84886756  1
  O2-  O477  1  0.89705668  0.81450182  0.18638731  1
  O2-  O478  1  0.90548995  0.83918293  0.51749272  1
  O2-  O479  1  0.90495923  0.84295025  0.85052468  1
  O2-  O480  1  0.18709217  0.06906790  0.30677741  1
  O2-  O481  1  0.15973039  0.07357916  0.64837862  1
  O2-  O482  1  0.18941085  0.10555306  0.97520122  1
  O2-  O483  1  0.17826827  0.33083835  0.29669692  1
  O2-  O484  1  0.18008059  0.32785590  0.65382742  1
  O2-  O485  1  0.24217010  0.36630349  0.98058888  1
  O2-  O486  1  0.15325551  0.56830321  0.29669145  1
  O2-  O487  1  0.17215012  0.59289862  0.64909679  1
  O2-  O488  1  0.18442761  0.59209421  0.97179706  1
  O2-  O489  1  0.17523354  0.82958737  0.29841810  1
  O2-  O490  1  0.17318754  0.83117946  0.65797236  1
  O2-  O491  1  0.19293854  0.85328858  0.97426708  1
  O2-  O492  1  0.42577524  0.08800206  0.31139352  1
  O2-  O493  1  0.38994501  0.06574335  0.64155946  1
  O2-  O494  1  0.40043069  0.04085168  0.98533667  1
  O2-  O495  1  0.42317691  0.33287177  0.30968587  1
  O2-  O496  1  0.40568495  0.31747283  0.64419163  1
  O2-  O497  1  0.41227153  0.33982799  0.98514401  1
  O2-  O498  1  0.41615159  0.57497494  0.30807030  1
  O2-  O499  1  0.41064983  0.61098020  0.62899894  1
  O2-  O500  1  0.40088227  0.56473647  0.96655660  1
  O2-  O501  1  0.42276611  0.84588699  0.33148626  1
  O2-  O502  1  0.42355070  0.83622062  0.64694142  1
  O2-  O503  1  0.41864280  0.84671213  1.03825979  1
  O2-  O504  1  0.66745357  0.09295225  0.31688981  1
  O2-  O505  1  0.66884672  0.08191347  0.64035072  1
  O2-  O506  1  0.66716357  0.08290432  0.97617700  1
  O2-  O507  1  0.67274565  0.34123283  0.30564415  1
  O2-  O508  1  0.66375376  0.30259013  0.65206495  1
  O2-  O509  1  0.64314444  0.32488778  1.01143264  1
  O2-  O510  1  0.66708830  0.58716100  0.31033104  1
  O2-  O511  1  0.65021264  0.58542718  0.64824220  1
  O2-  O512  1  0.64581945  0.57139219  0.96829295  1
  O2-  O513  1  0.66678311  0.82794197  0.31005545  1
  O2-  O514  1  0.67521532  0.84227533  0.64798565  1
  O2-  O515  1  0.64475147  0.81858858  0.98945181  1
  O2-  O516  1  0.90826682  0.07932752  0.31127718  1
  O2-  O517  1  0.91629831  0.10578301  0.64831827  1
  O2-  O518  1  0.92362790  0.10144432  0.97256457  1
  O2-  O519  1  0.92750337  0.33492612  0.31571884  1
  O2-  O520  1  0.91053726  0.33208075  0.67014908  1
  O2-  O521  1  0.91718948  0.33573301  0.98541373  1
  O2-  O522  1  0.92254405  0.58666545  0.30284194  1
  O2-  O523  1  0.90357901  0.57309868  0.68376735  1
  O2-  O524  1  0.91668651  0.58751837  1.01685716  1
  O2-  O525  1  0.92649740  0.83526887  0.30806103  1
  O2-  O526  1  0.91198689  0.82662321  0.64529677  1
  O2-  O527  1  0.87030046  0.81922181  0.97918352  1
  O2-  O528  1  0.08896094  0.17922002  0.01376581  1
  O2-  O529  1  0.06731746  0.16659989  0.34445879  1
  O2-  O530  1  0.08409436  0.16410658  0.68860786  1
  O2-  O531  1  0.08984899  0.41938263  0.02002801  1
  O2-  O532  1  0.07805150  0.36252340  0.38903297  1
  O2-  O533  1  0.06926600  0.42438833  0.69463069  1
  O2-  O534  1  0.09979864  0.67684732  0.00626792  1
  O2-  O535  1  0.08930395  0.66620373  0.34417585  1
  O2-  O536  1  0.08222012  0.66850274  0.71032332  1
  O2-  O537  1  0.11812333  0.93749560  0.02446141  1
  O2-  O538  1  0.08604400  0.90830091  0.36928178  1
  O2-  O539  1  0.07223983  0.90243272  0.68888642  1
  O2-  O540  1  0.34756169  0.14326856  0.02007761  1
  O2-  O541  1  0.34046654  0.16639827  0.35586677  1
  O2-  O542  1  0.32615964  0.15012073  0.69091520  1
  O2-  O543  1  0.32845324  0.41752752  0.00788775  1
  O2-  O544  1  0.33676169  0.41141715  0.35196360  1
  O2-  O545  1  0.32939040  0.40350612  0.68902814  1
  O2-  O546  1  0.33863944  0.68272261  0.02801962  1
  O2-  O547  1  0.31822991  0.64811480  0.33893108  1
  O2-  O548  1  0.32933486  0.68237392  0.67675322  1
  O2-  O549  1  0.35471056  0.95906741  0.01849689  1
  O2-  O550  1  0.34489980  0.93194859  0.35115899  1
  O2-  O551  1  0.34210295  0.91558328  0.69274168  1
  O2-  O552  1  0.56701386  0.14361412  0.02632643  1
  O2-  O553  1  0.59409035  0.18423538  0.35549964  1
  O2-  O554  1  0.55795723  0.13495116  0.68498986  1
  O2-  O555  1  0.56539548  0.41202180  0.02208376  1
  O2-  O556  1  0.58618747  0.42123958  0.35199742  1
  O2-  O557  1  0.57874986  0.38650489  0.68350682  1
  O2-  O558  1  0.56216341  0.65546065  0.01982541  1
  O2-  O559  1  0.58276292  0.66687204  0.35245458  1
  O2-  O560  1  0.58575556  0.68195723  0.69605773  1
  O2-  O561  1  0.59253615  0.92163618  0.01834457  1
  O2-  O562  1  0.59647233  0.92549288  0.34854047  1
  O2-  O563  1  0.58608634  0.91623737  0.68075085  1
  O2-  O564  1  0.83641043  0.16735663  0.01987988  1
  O2-  O565  1  0.83408010  0.17102353  0.35061779  1
  O2-  O566  1  0.83350120  0.17911176  0.69156978  1
  O2-  O567  1  0.82999608  0.41625407  0.02113269  1
  O2-  O568  1  0.83955504  0.41775447  0.34303784  1
  O2-  O569  1  0.81840142  0.40062839  0.71279477  1
  O2-  O570  1  0.81001433  0.65720604  0.01415165  1
  O2-  O571  1  0.83773201  0.66606590  0.34071112  1
  O2-  O572  1  0.82049616  0.66328965  0.69228278  1
  O2-  O573  1  0.78559423  0.88630518  0.03584047  1
  O2-  O574  1  0.90063270  0.94668091  0.37499937  1
  O2-  O575  1  0.83629109  0.90910982  0.66984797  1
