# generated using pymatgen
data_H2O
_symmetry_space_group_name_H-M   'P 1'
_cell_length_a   17.99356231
_cell_length_b   17.98476388
_cell_length_c   21.97299747
_cell_angle_alpha   90.03283561
_cell_angle_beta   89.96600948
_cell_angle_gamma   120.06444324
_symmetry_Int_Tables_number   1
_chemical_formula_structural   H2O
_chemical_formula_sum   'H384 O192'
_cell_volume   6154.02627208
_cell_formula_units_Z   192
loop_
 _symmetry_equiv_pos_site_id
 _symmetry_equiv_pos_as_xyz
  1  'x, y, z'
loop_
 _atom_type_symbol
 _atom_type_oxidation_number
  H+  1.0
  O2-  -2.0
loop_
 _atom_site_type_symbol
 _atom_site_label
 _atom_site_symmetry_multiplicity
 _atom_site_fract_x
 _atom_site_fract_y
 _atom_site_fract_z
 _atom_site_occupancy
  H+  H0  1  0.16428021  0.63135896  0.30789057  1
  H+  H1  1  0.23421543  0.62498549  0.83838574  1
  H+  H2  1  0.27375353  0.91061792  0.47173147  1
  H+  H3  1  0.63234090  0.20955154  0.32291190  1
  H+  H4  1  0.72254839  0.87293192  0.00803892  1
  H+  H5  1  0.84932507  0.59059626  0.72455080  1
  H+  H6  1  0.87373576  0.71325507  0.35654491  1
  H+  H7  1  0.14966923  0.36048951  0.66293469  1
  H+  H8  1  0.51913630  0.89006634  0.00867430  1
  H+  H9  1  0.60085748  0.18075101  0.72464947  1
  H+  H10  1  0.13210640  0.11507761  0.84617975  1
  H+  H11  1  0.63229353  0.27948407  0.15899318  1
  H+  H12  1  0.51763595  0.89990473  0.48201925  1
  H+  H13  1  0.86015162  0.23949688  0.16149697  1
  H+  H14  1  0.67289108  0.54283223  -0.01438785  1
  H+  H15  1  0.13055900  0.85539797  0.83506821  1
  H+  H16  1  0.59027069  0.49736944  0.35213681  1
  H+  H17  1  0.39869986  0.22422119  0.50570125  1
  H+  H18  1  0.66410011  0.62896606  0.33067546  1
  H+  H19  1  0.11694361  0.98204849  0.83123150  1
  H+  H20  1  0.36714005  0.22397922  0.33012796  1
  H+  H21  1  0.38568432  0.26340459  0.66665978  1
  H+  H22  1  0.26201407  0.84036819  0.01100783  1
  H+  H23  1  0.10980859  -0.02192324  0.16201334  1
  H+  H24  1  0.35916519  -0.01294088  1.00139018  1
  H+  H25  1  0.98802054  0.37252413  0.83950710  1
  H+  H26  1  0.03592939  0.37631736  0.67226730  1
  H+  H27  1  0.88518706  0.03661097  0.66683455  1
  H+  H28  1  0.98002275  0.11381340  0.18093190  1
  H+  H29  1  0.72617651  0.87059303  0.66476109  1
  H+  H30  1  0.65406293  0.01549559  0.17575989  1
  H+  H31  1  0.22569465  0.60816403  0.50233446  1
  H+  H32  1  0.51896616  0.38661124  0.66936781  1
  H+  H33  1  0.37672869  0.52768154  0.49299157  1
  H+  H34  1  0.32674964  0.87291056  0.65623399  1
  H+  H35  1  0.54788705  0.64908895  0.33329302  1
  H+  H36  1  0.70716333  0.62337680  0.67847492  1
  H+  H37  1  0.11653352  0.39286946  0.82593631  1
  H+  H38  1  0.78770224  0.62353752  0.35822537  1
  H+  H39  1  0.87939134  0.76966082  0.17794969  1
  H+  H40  1  0.86281837  0.90310486  0.67767098  1
  H+  H41  1  0.89338442  0.52515179  0.84420130  1
  H+  H42  1  0.66833402  0.11738498  0.83673602  1
  H+  H43  1  0.64555656  0.75931627  0.15953321  1
  H+  H44  1  0.39983228  0.63519824  0.19900823  1
  H+  H45  1  0.89596716  0.66013562  0.82875246  1
  H+  H46  1  0.87985660  0.78261456  1.00112436  1
  H+  H47  1  0.55396293  0.91868495  0.68798755  1
  H+  H48  1  0.32590799  0.17804223  0.10385742  1
  H+  H49  1  0.21622371  0.84857741  0.83584615  1
  H+  H50  1  0.14679298  0.11227358  0.33363954  1
  H+  H51  1  0.86353318  0.25650965  0.01099805  1
  H+  H52  1  0.53852542  0.13263714  0.14797801  1
  H+  H53  1  0.66158884  0.08753908  0.55990165  1
  H+  H54  1  0.38824969  0.85171452  0.98577667  1
  H+  H55  1  0.64856446  0.51956746  0.83273830  1
  H+  H56  1  0.02308093  0.13564920  0.83126545  1
  H+  H57  1  0.34498396  0.12082287  0.01333050  1
  H+  H58  1  0.11088492  0.60506189  0.15852337  1
  H+  H59  1  0.02060072  0.63006200  0.47015127  1
  H+  H60  1  0.35519679  0.70753465  0.67229610  1
  H+  H61  1  0.81899843  0.61980934  0.17785044  1
  H+  H62  1  0.97979571  0.57328639  0.64705907  1
  H+  H63  1  0.25764336  0.13719086  0.83843240  1
  H+  H64  1  0.35377458  0.13186306  0.69572825  1
  H+  H65  1  0.89021810  0.38106697  0.51447010  1
  H+  H66  1  0.44258948  0.11398218  0.86216398  1
  H+  H67  1  0.00438328  0.63510377  0.16014252  1
  H+  H68  1  0.11253120  0.97869175  0.33922624  1
  H+  H69  1  0.03123476  0.11061188  0.51357043  1
  H+  H70  1  0.68294393  0.64852502  0.17804884  1
  H+  H71  1  0.37297500  0.38043059  0.66362469  1
  H+  H72  1  0.63349658  0.90617135  0.67937948  1
  H+  H73  1  0.27067056  0.41314026  0.15930520  1
  H+  H74  1  0.40769425  0.07390088  0.75377267  1
  H+  H75  1  0.88260818  0.88450861  0.51015215  1
  H+  H76  1  0.93837338  0.09327189  0.27575618  1
  H+  H77  1  0.38114080  0.90329066  0.48341507  1
  H+  H78  1  0.77781484  0.38195166  0.83190274  1
  H+  H79  1  0.11350252  0.62830555  0.66613173  1
  H+  H80  1  0.62576394  0.26257226  -0.01746337  1
  H+  H81  1  0.35793503  0.21661519  0.00878718  1
  H+  H82  1  0.14004215  0.86911868  0.34558093  1
  H+  H83  1  0.61901880  0.63525872  0.48921646  1
  H+  H84  1  0.65751287  1.02378717  0.84567087  1
  H+  H85  1  0.26760339  0.75179625  0.59526116  1
  H+  H86  1  0.32487762  0.38640088  0.75675758  1
  H+  H87  1  0.21568486  0.10957066  -0.00402014  1
  H+  H88  1  0.38101456  0.60010327  0.65503203  1
  H+  H89  1  0.62873711  0.11372568  -0.01370347  1
  H+  H90  1  0.77341634  0.89720710  0.11796701  1
  H+  H91  1  0.92319117  0.34504110  0.59827374  1
  H+  H92  1  0.49758797  0.11380758  -0.00657465  1
  H+  H93  1  0.14753219  0.57032813  0.21052086  1
  H+  H94  1  0.85203253  0.44862878  0.66587725  1
  H+  H95  1  0.78105291  0.89568212  0.83274824  1
  H+  H96  1  0.83848128  0.67963338  0.78486099  1
  H+  H97  1  0.52699731  0.37570126  0.82872643  1
  H+  H98  1  0.27863468  0.64648597  0.23840048  1
  H+  H99  1  0.66338222  0.53812988  0.50857231  1
  H+  H100  1  0.97344387  0.85326083  0.33388866  1
  H+  H101  1  0.11089438  0.72376631  0.81987341  1
  H+  H102  1  0.54919830  0.15921236  0.48884692  1
  H+  H103  1  0.87110181  0.51608385  0.01525929  1
  H+  H104  1  0.13855488  0.51439110  0.65773885  1
  H+  H105  1  0.88166559  1.01749413  0.49961654  1
  H+  H106  1  0.88933561  0.62143549  0.43415542  1
  H+  H107  1  0.07562027  0.92557243  0.06652437  1
  H+  H108  1  0.27928706  0.64730642  0.16891665  1
  H+  H109  1  0.08895472  0.47379253  0.14366215  1
  H+  H110  1  0.51083108  0.90339643  0.17903419  1
  H+  H111  1  0.34950038  0.24231330  0.16075305  1
  H+  H112  1  0.39008258  0.26826950  0.84916108  1
  H+  H113  1  0.44915439  0.59537933  0.93328348  1
  H+  H114  1  0.53114242  0.88616020  0.83661776  1
  H+  H115  1  0.10265648  0.96998147  0.67473650  1
  H+  H116  1  0.13171961  0.28409877  0.15864146  1
  H+  H117  1  0.35168980  0.86483302  0.18070893  1
  H+  H118  1  0.84532573  0.97258773  0.02116990  1
  H+  H119  1  0.96157483  0.09593541  1.00619053  1
  H+  H120  1  0.27520046  0.10613500  0.48579547  1
  H+  H121  1  0.83623928  0.93357778  0.73779280  1
  H+  H122  1  0.64023821  0.35278311  0.83564373  1
  H+  H123  1  0.51745508  0.33154773  0.09645049  1
  H+  H124  1  0.40467227  0.62661951  0.84208807  1
  H+  H125  1  0.88139819  0.03565820  0.19275340  1
  H+  H126  1  0.10206683  0.13029587  0.01006739  1
  H+  H127  1  0.64603533  0.10085588  0.32152928  1
  H+  H128  1  0.75812759  0.12258291  0.49288619  1
  H+  H129  1  0.60142135  0.35487557  0.32927371  1
  H+  H130  1  0.89609869  0.62230156  0.50628948  1
  H+  H131  1  0.37368689  0.98046196  0.32252718  1
  H+  H132  1  0.78850701  0.65384211  0.99676044  1
  H+  H133  1  0.08706710  0.33495188  0.98590888  1
  H+  H134  1  0.59325625  0.66438729  0.42859816  1
  H+  H135  1  0.79418424  0.14281380  0.83128364  1
  H+  H136  1  0.11253896  0.46924892  0.49611151  1
  H+  H137  1  0.36512709  0.95299219  0.15969483  1
  H+  H138  1  0.38218148  0.73759145  0.33449605  1
  H+  H139  1  0.12168365  0.48542697  0.82151049  1
  H+  H140  1  0.77035529  0.16573621  0.00851893  1
  H+  H141  1  0.37969186  0.82054247  0.45976882  1
  H+  H142  1  0.63121826  0.87346283  0.00469307  1
  H+  H143  1  0.88397003  0.24369993  0.68165049  1
  H+  H144  1  0.12097190  0.36832817  0.15419462  1
  H+  H145  1  0.35905528  0.34778589  0.32338919  1
  H+  H146  1  0.89625479  0.36705701  0.84375943  1
  H+  H147  1  0.09695733  0.87239252  0.48429291  1
  H+  H148  1  1.02482576  0.12414172  0.35420413  1
  H+  H149  1  0.77947328  0.12312151  0.34176374  1
  H+  H150  1  0.23468929  0.11124308  0.32293202  1
  H+  H151  1  0.66630654  0.75279704  0.81318465  1
  H+  H152  1  0.09356291  0.87712126  0.67497739  1
  H+  H153  1  0.25029123  0.39877015  0.48098529  1
  H+  H154  1  0.22675115  0.12426469  0.17158010  1
  H+  H155  1  0.58842070  0.36525299  0.14817400  1
  H+  H156  1  0.48780527  0.31348641  0.50943483  1
  H+  H157  1  0.47166565  0.80093626  0.67013606  1
  H+  H158  1  0.10464220  0.37646260  0.49833883  1
  H+  H159  1  0.64011855  0.23284847  0.82288290  1
  H+  H160  1  0.80002673  0.41641282  1.00662710  1
  H+  H161  1  0.70856866  0.36063018  0.65405910  1
  H+  H162  1  0.38928580  0.74858512  0.83611964  1
  H+  H163  1  0.21572208  0.35661052  0.84059557  1
  H+  H164  1  0.88394691  0.26342950  0.32796327  1
  H+  H165  1  0.89992443  0.11777303  0.84718221  1
  H+  H166  1  0.16666718  0.57376375  0.59753840  1
  H+  H167  1  0.06942610  0.45896796  -0.01276805  1
  H+  H168  1  0.40030405  0.61854727  -0.01941180  1
  H+  H169  1  0.81697050  0.73967333  0.69254069  1
  H+  H170  1  0.11572621  0.14659940  0.16245388  1
  H+  H171  1  0.90010257  0.60846154  0.33242536  1
  H+  H172  1  0.49228533  0.11173663  0.31866937  1
  H+  H173  1  0.21322686  0.84872899  0.17486411  1
  H+  H174  1  0.66756290  0.61552579  0.82583670  1
  H+  H175  1  0.12276673  0.02117637  0.99599860  1
  H+  H176  1  0.49366709  0.01642239  0.18225056  1
  H+  H177  1  0.13640833  0.10844545  0.66125800  1
  H+  H178  1  0.24451889  0.62101350  0.32268924  1
  H+  H179  1  0.43204472  0.83686877  0.92351211  1
  H+  H180  1  0.63606669  0.37693002  0.35278947  1
  H+  H181  1  0.88468925  0.14741630  0.68009535  1
  H+  H182  1  0.39754515  0.35572966  1.00671272  1
  H+  H183  1  0.26616572  0.13244092  0.67973325  1
  H+  H184  1  0.23145047  0.87014844  0.34193642  1
  H+  H185  1  0.52820470  0.65623027  1.01228727  1
  H+  H186  1  0.97144545  0.35557183  0.33091310  1
  H+  H187  1  0.12160495  0.22534416  0.67309277  1
  H+  H188  1  0.88166513  0.84403766  0.32186241  1
  H+  H189  1  0.37011393  0.63573069  0.49246997  1
  H+  H190  1  0.97012785  0.17293175  0.53112565  1
  H+  H191  1  0.89830480  0.51932458  0.32449173  1
  H+  H192  1  0.46207829  0.17920632  0.54655449  1
  H+  H193  1  0.13268505  0.64061848  -0.00554774  1
  H+  H194  1  0.36378081  0.72050045  -0.02832191  1
  H+  H195  1  0.87852017  0.69126396  0.59426019  1
  H+  H196  1  0.13554151  0.26132571  0.51243655  1
  H+  H197  1  0.07726123  0.16576376  0.10261297  1
  H+  H198  1  0.38393156  0.77189762  0.22150687  1
  H+  H199  1  0.59960415  0.23083156  0.66452055  1
  H+  H200  1  0.93827555  0.39596379  0.66245217  1
  H+  H201  1  0.98242961  0.88176774  0.85079965  1
  H+  H202  1  0.39271924  0.48445888  1.01013269  1
  H+  H203  1  0.97478445  0.37214895  0.51325016  1
  H+  H204  1  0.16324644  0.83116163  0.42782673  1
  H+  H205  1  0.47051389  0.11155418  0.69687422  1
  H+  H206  1  0.96139385  0.85940159  0.66736428  1
  H+  H207  1  0.33022613  0.65502452  -0.08157023  1
  H+  H208  1  0.63735439  0.88282264  0.50964866  1
  H+  H209  1  0.60962495  -0.03260067  0.33330433  1
  H+  H210  1  0.40513708  0.53934618  0.83872804  1
  H+  H211  1  0.12561957  0.27195591  0.83858755  1
  H+  H212  1  0.62908293  0.02689328  0.49857277  1
  H+  H213  1  0.09861003  0.39059907  0.33825835  1
  H+  H214  1  0.56407499  0.13509504  0.81756525  1
  H+  H215  1  0.87002048  0.38183217  0.33651306  1
  H+  H216  1  0.39985349  0.61703078  0.34109618  1
  H+  H217  1  0.09677744  0.71880153  0.16144288  1
  H+  H218  1  0.86262761  0.58037630  0.69472787  1
  H+  H219  1  0.34605766  -0.03442706  0.68263983  1
  H+  H220  1  0.36322287  0.50029711  0.16676946  1
  H+  H221  1  0.14142830  0.61949666  0.83065072  1
  H+  H222  1  0.72585831  0.46973850  0.03985297  1
  H+  H223  1  0.67735988  0.08802315  0.93684948  1
  H+  H224  1  0.32140438  0.45373741  0.31710399  1
  H+  H225  1  0.64472260  0.28678378  0.49443363  1
  H+  H226  1  0.96326044  0.36159178  0.17020352  1
  H+  H227  1  0.60921603  0.72935819  0.66029952  1
  H+  H228  1  0.09905040  0.70990135  0.66360602  1
  H+  H229  1  0.51594395  0.63861009  0.66079677  1
  H+  H230  1  0.63147773  0.74098002  0.32966607  1
  H+  H231  1  0.63524583  0.16411101  0.13138953  1
  H+  H232  1  0.03656674  0.63329976  0.32766015  1
  H+  H233  1  0.02319825  0.88619731  0.16344760  1
  H+  H234  1  0.61926482  0.51578315  0.66650030  1
  H+  H235  1  0.79515890  0.62448337  0.55741065  1
  H+  H236  1  0.36540608  0.71902049  0.50678029  1
  H+  H237  1  0.61931604  0.76139188  1.01343917  1
  H+  H238  1  0.15939817  0.08389300  0.90776908  1
  H+  H239  1  0.21040061  0.58591138  0.97697013  1
  H+  H240  1  0.89379850  0.02580776  0.84459828  1
  H+  H241  1  0.13499877  0.60520921  0.49998723  1
  H+  H242  1  0.14129845  1.00836911  0.51356624  1
  H+  H243  1  0.39600024  0.35724289  0.84522190  1
  H+  H244  1  0.13039028  0.85789468  0.17125327  1
  H+  H245  1  0.01274759  0.88170891  0.49743947  1
  H+  H246  1  0.44843017  0.45332063  0.55728011  1
  H+  H247  1  0.15266493  0.10112776  0.51396728  1
  H+  H248  1  0.08095342  0.26500671  0.29080126  1
  H+  H249  1  0.61249554  0.61183640  0.66012918  1
  H+  H250  1  0.84039025  0.88169995  0.02176680  1
  H+  H251  1  0.78484787  0.13102715  0.15875910  1
  H+  H252  1  0.90057757  1.02161563  0.32601484  1
  H+  H253  1  0.86719987  0.13063597  0.50847789  1
  H+  H254  1  0.73053218  0.89461645  0.51301745  1
  H+  H255  1  0.09055995  0.21339923  0.00846411  1
  H+  H256  1  0.27691582  0.29843547  0.79006229  1
  H+  H257  1  0.37269723  0.47056174  0.66616554  1
  H+  H258  1  0.49520151  0.41243972  0.35128631  1
  H+  H259  1  0.86223442  0.78840902  0.50693780  1
  H+  H260  1  0.90195900  0.79126651  0.84608025  1
  H+  H261  1  1.00039828  0.63516332  0.99203983  1
  H+  H262  1  0.63429973  0.12357678  0.64884395  1
  H+  H263  1  0.61100801  0.39433969  0.66392181  1
  H+  H264  1  0.73982269  0.70620406  0.74307714  1
  H+  H265  1  0.40858095  0.86180828  0.83818401  1
  H+  H266  1  0.35262721  0.09037663  0.47258028  1
  H+  H267  1  0.65199283  0.04604797  0.65566629  1
  H+  H268  1  0.20573643  0.85707634  0.65858098  1
  H+  H269  1  0.63111391  0.86578915  0.32058786  1
  H+  H270  1  0.69642360  0.59268074  0.27809993  1
  H+  H271  1  0.74584871  0.34010673  0.30864432  1
  H+  H272  1  0.61809489  0.69347837  0.75546404  1
  H+  H273  1  0.87236443  0.13012396  0.34542900  1
  H+  H274  1  0.85300865  0.38819434  0.16308799  1
  H+  H275  1  0.02863750  0.14082807  0.67360805  1
  H+  H276  1  0.88187781  0.66407580  0.00158738  1
  H+  H277  1  0.82922616  0.91717705  0.26475997  1
  H+  H278  1  0.40480032  0.11515545  0.30875325  1
  H+  H279  1  0.81881511  0.34966377  0.67530470  1
  H+  H280  1  0.55260373  0.67483238  0.17102990  1
  H+  H281  1  0.40958658  0.42158060  0.53949489  1
  H+  H282  1  0.38002367  0.38114760  0.17585597  1
  H+  H283  1  0.46900414  0.80738435  0.63636822  1
  H+  H284  1  0.12100024  0.72585925  0.33883551  1
  H+  H285  1  0.53429750  0.44131053  0.50863702  1
  H+  H286  1  0.26805834  0.62073270  0.67448421  1
  H+  H287  1  0.60670404  0.98101667  0.01456188  1
  H+  H288  1  0.42867210  0.55202602  0.36659132  1
  H+  H289  1  0.66996647  0.32372986  0.89683936  1
  H+  H290  1  0.16716032  0.08827966  0.23080702  1
  H+  H291  1  0.63355034  0.15490629  0.48365328  1
  H+  H292  1  0.90274976  0.58387872  0.23627682  1
  H+  H293  1  0.92234454  0.81536071  0.23922371  1
  H+  H294  1  0.63138132  0.44098417  0.06483016  1
  H+  H295  1  0.63509732  0.37142168  0.49863597  1
  H+  H296  1  0.64399093  0.86557440  0.84719853  1
  H+  H297  1  0.90474175  0.55314575  0.60116494  1
  H+  H298  1  0.32163952  0.88118622  0.07022774  1
  H+  H299  1  0.90178922  0.83828075  0.60813826  1
  H+  H300  1  0.07058482  0.40826193  0.40316995  1
  H+  H301  1  0.46046454  0.36569278  0.16977332  1
  H+  H302  1  0.35409567  0.82160156  0.56513281  1
  H+  H303  1  0.14857232  0.82972601  0.59878965  1
  H+  H304  1  0.23267822  0.36561541  0.31719664  1
  H+  H305  1  0.13212801  0.76312773  0.47938891  1
  H+  H306  1  0.08142354  0.14164695  0.45056248  1
  H+  H307  1  0.17166480  0.07536651  0.60528108  1
  H+  H308  1  0.65541297  0.36305906  0.98895911  1
  H+  H309  1  0.67211520  0.83049193  0.90385031  1
  H+  H310  1  0.73418979  0.00508223  0.19612862  1
  H+  H311  1  0.88137594  0.23696100  0.83432731  1
  H+  H312  1  0.58115464  0.40532172  0.76659936  1
  H+  H313  1  0.57769497  0.91685131  0.42470923  1
  H+  H314  1  0.93715860  0.59699114  0.93489973  1
  H+  H315  1  0.82999237  0.18887116  0.08949277  1
  H+  H316  1  0.69292722  0.59200495  0.92275841  1
  H+  H317  1  0.83040855  0.43292867  0.10682082  1
  H+  H318  1  0.44136500  0.59682118  0.24202092  1
  H+  H319  1  0.33797546  0.94399174  0.41598007  1
  H+  H320  1  0.08154739  0.16424720  0.76978233  1
  H+  H321  1  0.54945786  0.93524754  0.11144095  1
  H+  H322  1  0.83223225  0.41116974  0.77162694  1
  H+  H323  1  0.04628419  0.40626177  0.08820448  1
  H+  H324  1  0.59735441  0.16537928  0.38860437  1
  H+  H325  1  0.36889717  0.03653181  0.94000997  1
  H+  H326  1  0.13871920  0.31933018  0.93473269  1
  H+  H327  1  0.65508401  0.33679317  0.59122764  1
  H+  H328  1  0.87039932  0.89587229  0.83106342  1
  H+  H329  1  0.07948071  0.92012642  0.77280602  1
  H+  H330  1  0.84660457  0.95747398  0.44074590  1
  H+  H331  1  0.35125589  0.95810842  0.82406592  1
  H+  H332  1  0.32138221  0.89713462  0.76685376  1
  H+  H333  1  0.85831282  0.18437663  0.74754059  1
  H+  H334  1  0.66904509  0.85053758  0.60406753  1
  H+  H335  1  0.86408417  0.52275935  0.17892054  1
  H+  H336  1  0.34417248  0.67452089  0.78048918  1
  H+  H337  1  0.15197512  0.57088519  0.92095569  1
  H+  H338  1  0.90612904  0.06686450  0.94665230  1
  H+  H339  1  0.51554953  0.88054400  0.32642769  1
  H+  H340  1  0.83564612  0.41257835  0.39311309  1
  H+  H341  1  0.41333370  0.57750274  0.59249062  1
  H+  H342  1  0.35386961  0.68526782  0.39888141  1
  H+  H343  1  0.40695423  0.33675872  0.26732368  1
  H+  H344  1  0.32294417  0.62829415  0.08183405  1
  H+  H345  1  0.60250843  0.92659235  0.78082008  1
  H+  H346  1  0.82626730  0.15055724  0.43409861  1
  H+  H347  1  0.07992130  0.65890807  0.76156971  1
  H+  H348  1  0.35704309  0.10659824  0.83624439  1
  H+  H349  1  0.91336687  0.10152112  0.60727619  1
  H+  H350  1  0.68676447  0.06712808  0.26852355  1
  H+  H351  1  0.45519252  0.06245238  0.22579961  1
  H+  H352  1  0.68850310  0.86754258  0.26390480  1
  H+  H353  1  0.07641216  0.92313041  0.40073754  1
  H+  H354  1  0.09018101  0.65223319  0.41904278  1
  H+  H355  1  0.68033537  0.31254588  0.25202362  1
  H+  H356  1  0.86147574  0.48914635  0.47448930  1
  H+  H357  1  0.09245936  0.41447114  0.73295826  1
  H+  H358  1  0.77747124  0.88541474  0.32300025  1
  H+  H359  1  0.34246689  0.15584594  0.38436231  1
  H+  H360  1  0.29414074  0.42229337  0.41552082  1
  H+  H361  1  0.77578995  0.40006295  0.48882248  1
  H+  H362  1  0.28671218  0.58329806  0.07638707  1
  H+  H363  1  0.90965022  0.32880157  0.23395842  1
  H+  H364  1  0.71763184  0.37033149  0.16578132  1
  H+  H365  1  0.55893261  0.43809225  0.43893164  1
  H+  H366  1  0.00930296  0.89999977  0.01175678  1
  H+  H367  1  0.36787010  0.88758190  0.32426352  1
  H+  H368  1  0.23848148  0.35903472  0.65811806  1
  H+  H369  1  0.94785445  0.35834796  0.93675008  1
  H+  H370  1  0.11235796  0.21208979  0.36904297  1
  H+  H371  1  0.42363311  0.30334416  0.60200992  1
  H+  H372  1  0.31651844  0.16828890  0.77659242  1
  H+  H373  1  0.47566070  0.60662116  0.49703309  1
  H+  H374  1  0.59090229  0.69271543  0.07698107  1
  H+  H375  1  0.98448197  0.61085978  0.83877456  1
  H+  H376  1  0.13962366  0.33494099  0.24263659  1
  H+  H377  1  0.66713834  0.58588130  0.56966232  1
  H+  H378  1  0.46884611  0.10274332  0.57671227  1
  H+  H379  1  0.16769972  0.32623977  0.56832006  1
  H+  H380  1  0.42361831  0.32500670  0.94738466  1
  H+  H381  1  0.90523811  0.84799339  0.94505336  1
  H+  H382  1  0.56503193  0.15876058  0.04757640  1
  H+  H383  1  0.35273320  0.43180511  0.07013761  1
  O2-  O384  1  0.08284557  0.17502073  0.14813413  1
  O2-  O385  1  0.08890992  0.14472164  0.49619284  1
  O2-  O386  1  0.08392477  0.16936466  0.81493444  1
  O2-  O387  1  0.05652068  0.40989090  0.13264383  1
  O2-  O388  1  0.07632978  0.40826623  0.48309088  1
  O2-  O389  1  0.08818751  0.42381784  0.80777512  1
  O2-  O390  1  0.06414966  0.65768312  0.14681080  1
  O2-  O391  1  0.08331775  0.65228482  0.46476754  1
  O2-  O392  1  0.08389828  0.66057229  0.80657464  1
  O2-  O393  1  0.08251138  0.91842761  0.14597105  1
  O2-  O394  1  0.07230882  0.91165476  0.48175021  1
  O2-  O395  1  0.08498542  0.92086582  0.81774812  1
  O2-  O396  1  0.32420600  0.18110338  0.14892425  1
  O2-  O397  1  0.33241994  0.13127325  0.46501194  1
  O2-  O398  1  0.31957024  0.16667288  0.82205113  1
  O2-  O399  1  0.33346453  0.44037190  0.15155961  1
  O2-  O400  1  0.29808274  0.44452405  0.45719835  1
  O2-  O401  1  0.30832237  0.36003986  0.79841724  1
  O2-  O402  1  0.31992489  0.66605323  0.20317128  1
  O2-  O403  1  0.33898671  0.66819132  0.48081790  1
  O2-  O404  1  0.34768974  0.67949202  0.82515900  1
  O2-  O405  1  0.32760950  0.89056419  0.15276498  1
  O2-  O406  1  0.33434986  0.95175110  0.46105385  1
  O2-  O407  1  0.32760582  0.89794410  0.81163004  1
  O2-  O408  1  0.59023313  0.17822824  0.12444691  1
  O2-  O409  1  0.60574667  0.18728013  0.46727263  1
  O2-  O410  1  0.62132832  0.17462788  0.80209374  1
  O2-  O411  1  0.54895938  0.37944191  0.12449093  1
  O2-  O412  1  0.57150410  0.42801986  0.48397913  1
  O2-  O413  1  0.58642262  0.40292925  0.81119937  1
  O2-  O414  1  0.60879550  0.69739992  0.15006023  1
  O2-  O415  1  0.57591939  0.64685078  0.47136043  1
  O2-  O416  1  0.66351872  0.70712195  0.78567313  1
  O2-  O417  1  0.54771217  0.95450850  0.15385493  1
  O2-  O418  1  0.57845737  0.92414125  0.47013594  1
  O2-  O419  1  0.59789634  0.92183475  0.82568978  1
  O2-  O420  1  0.83574772  0.18189021  0.13828231  1
  O2-  O421  1  0.82077921  0.14959984  0.47978873  1
  O2-  O422  1  0.85488758  0.17805845  0.81528261  1
  O2-  O423  1  0.82276704  0.41965403  0.15144649  1
  O2-  O424  1  0.83565978  0.42547485  0.47349157  1
  O2-  O425  1  0.83849525  0.41267309  0.81639711  1
  O2-  O426  1  0.79150762  0.65426716  0.16378402  1
  O2-  O427  1  0.85265404  0.63683518  0.57237119  1
  O2-  O428  1  0.89199544  0.70701374  0.80799100  1
  O2-  O429  1  0.73597423  0.87204815  0.15454283  1
  O2-  O430  1  0.85240710  0.95659569  0.48483452  1
  O2-  O431  1  0.84005209  0.92650043  0.81457669  1
  O2-  O432  1  0.16446231  0.09066966  0.18589804  1
  O2-  O433  1  0.18140179  0.06874668  0.52742257  1
  O2-  O434  1  0.16361095  0.08601408  0.86096815  1
  O2-  O435  1  0.15688425  0.34569952  0.17225079  1
  O2-  O436  1  0.15799713  0.32228615  0.52324305  1
  O2-  O437  1  0.15555438  0.33302518  0.85368981  1
  O2-  O438  1  0.14224359  0.57122030  0.16611378  1
  O2-  O439  1  0.16643941  0.57814870  0.51907711  1
  O2-  O440  1  0.17144177  0.58856681  0.84690406  1
  O2-  O441  1  0.15280458  0.82146327  0.18798479  1
  O2-  O442  1  0.15850378  0.82675435  0.47408503  1
  O2-  O443  1  0.15382337  0.81692965  0.84408277  1
  O2-  O444  1  0.46454778  0.05073722  0.18257368  1
  O2-  O445  1  0.46473772  0.12634608  0.53788077  1
  O2-  O446  1  0.38947512  0.07347810  0.84171090  1
  O2-  O447  1  0.40501465  0.34613201  0.19130315  1
  O2-  O448  1  0.44392179  0.26600595  0.53426235  1
  O2-  O449  1  0.42754226  0.32968547  0.86131285  1
  O2-  O450  1  0.43856059  0.61036625  0.19907813  1
  O2-  O451  1  0.41601360  0.58396073  0.51385720  1
  O2-  O452  1  0.43771786  0.59769743  0.85431878  1
  O2-  O453  1  0.41820483  0.83474027  0.23124023  1
  O2-  O454  1  0.40220698  0.86073958  0.49386437  1
  O2-  O455  1  0.43985977  0.83425820  0.85429658  1
  O2-  O456  1  0.71254689  0.04811223  0.19434723  1
  O2-  O457  1  0.66320184  0.08748515  0.51354878  1
  O2-  O458  1  0.69430369  0.08672522  0.85726279  1
  O2-  O459  1  0.65532532  0.33698359  0.17810589  1
  O2-  O460  1  0.66740254  0.34479128  0.51473858  1
  O2-  O461  1  0.67236867  0.32394150  0.85036690  1
  O2-  O462  1  0.70894016  0.61611661  0.19583240  1
  O2-  O463  1  0.69270346  0.59522945  0.52860989  1
  O2-  O464  1  0.68991011  0.58001996  0.84284666  1
  O2-  O465  1  0.77160489  0.93888371  0.20288291  1
  O2-  O466  1  0.67274030  0.86241837  0.53059311  1
  O2-  O467  1  0.67695262  0.83586027  0.85905444  1
  O2-  O468  1  0.92768898  0.09237019  0.20677722  1
  O2-  O469  1  0.91813846  0.11686600  0.53470174  1
  O2-  O470  1  0.92780181  0.08552229  0.86183618  1
  O2-  O471  1  0.90379070  0.32984343  0.18840267  1
  O2-  O472  1  0.91844229  0.35160730  0.53395764  1
  O2-  O473  1  0.92982476  0.34003885  0.85914525  1
  O2-  O474  1  0.88762621  0.58341992  0.19240097  1
  O2-  O475  1  0.91118819  0.60182438  0.46876449  1
  O2-  O476  1  0.92634663  0.58548447  0.85833339  1
  O2-  O477  1  0.92252964  0.82545016  0.19498686  1
  O2-  O478  1  0.90126423  0.84390652  0.52545986  1
  O2-  O479  1  0.92044377  0.85052528  0.86248232  1
  O2-  O480  1  0.17176177  0.08099226  0.31294091  1
  O2-  O481  1  0.16683505  0.07629822  0.65067603  1
  O2-  O482  1  0.15637319  0.08302783  0.97871783  1
  O2-  O483  1  0.13010816  0.32297195  0.28855828  1
  O2-  O484  1  0.17642836  0.32759847  0.64596894  1
  O2-  O485  1  0.12472680  0.31086805  0.97859742  1
  O2-  O486  1  0.20024443  0.60798585  0.29150456  1
  O2-  O487  1  0.16767836  0.57532178  0.64317797  1
  O2-  O488  1  0.14897774  0.56248177  0.96661657  1
  O2-  O489  1  0.16965871  0.83584140  0.35424852  1
  O2-  O490  1  0.14487877  0.82311747  0.64293767  1
  O2-  O491  1  0.17301388  0.75873650  0.97607764  1
  O2-  O492  1  0.43443673  0.08271469  0.29808001  1
  O2-  O493  1  0.40822213  0.07603623  0.70881173  1
  O2-  O494  1  0.38547785  0.04649295  0.98291940  1
  O2-  O495  1  0.40246126  0.33114703  0.31298880  1
  O2-  O496  1  0.41935126  0.31985022  0.64470628  1
  O2-  O497  1  0.41861805  0.31683496  0.99186427  1
  O2-  O498  1  0.42395030  0.57881520  0.32918126  1
  O2-  O499  1  0.41565863  0.57533015  0.63813371  1
  O2-  O500  1  0.44284635  0.59803412  0.97843550  1
  O2-  O501  1  0.41669793  0.83498992  0.29984712  1
  O2-  O502  1  0.32622134  0.79594106  0.60497643  1
  O2-  O503  1  0.42649376  0.83055315  0.97096669  1
  O2-  O504  1  0.67797244  0.06923130  0.31321345  1
  O2-  O505  1  0.66861647  0.09910598  0.63226382  1
  O2-  O506  1  0.66951627  0.09158714  0.98152733  1
  O2-  O507  1  0.69932782  0.29054510  0.28638615  1
  O2-  O508  1  0.64914644  0.33481475  0.63687954  1
  O2-  O509  1  0.66894614  0.32128169  0.96893214  1
  O2-  O510  1  0.68589030  0.58850550  0.32258058  1
  O2-  O511  1  0.64918038  0.58097476  0.65276219  1
  O2-  O512  1  0.69082158  0.59960559  0.96745239  1
  O2-  O513  1  0.66832298  0.84255690  0.30500281  1
  O2-  O514  1  0.66574423  0.84008406  0.64974759  1
  O2-  O515  1  0.66054663  0.84189285  0.98973574  1
  O2-  O516  1  0.93534357  0.08567764  0.32268432  1
  O2-  O517  1  0.91758671  0.09890797  0.65350401  1
  O2-  O518  1  0.90097360  0.06449804  0.99135017  1
  O2-  O519  1  0.91232481  0.32267926  0.31101105  1
  O2-  O520  1  0.92784695  0.34055716  0.64697663  1
  O2-  O521  1  0.94567987  0.36615264  0.98208225  1
  O2-  O522  1  0.92933133  0.58103662  0.31101478  1
  O2-  O523  1  0.92866213  0.52531811  0.62626713  1
  O2-  O524  1  0.93932043  0.60365734  0.98029353  1
  O2-  O525  1  0.91287069  0.81139057  0.32248510  1
  O2-  O526  1  0.90003019  0.83252749  0.65309129  1
  O2-  O527  1  0.90065903  0.84564998  0.99006009  1
  O2-  O528  1  0.06810513  0.15534389  0.02775673  1
  O2-  O529  1  0.08370172  0.15020732  0.37552645  1
  O2-  O530  1  0.08856822  0.16441311  0.68816661  1
  O2-  O531  1  0.03443714  0.39841246  0.00346522  1
  O2-  O532  1  0.06464052  0.41244506  0.35849100  1
  O2-  O533  1  0.09594020  0.41055939  0.68716166  1
  O2-  O534  1  0.11928364  0.68658651  0.00816281  1
  O2-  O535  1  0.09741336  0.66274815  0.34290785  1
  O2-  O536  1  0.07477375  0.65035054  0.67900241  1
  O2-  O537  1  0.07179771  0.92984094  0.02152654  1
  O2-  O538  1  0.07923184  0.91867222  0.35578561  1
  O2-  O539  1  0.06639404  0.90995326  0.69025109  1
  O2-  O540  1  0.31897066  0.15587302  0.02438501  1
  O2-  O541  1  0.34259409  0.16135472  0.33938125  1
  O2-  O542  1  0.32478592  0.16672934  0.69891398  1
  O2-  O543  1  0.36365796  0.42575106  0.02688402  1
  O2-  O544  1  0.29190620  0.39561727  0.33448934  1
  O2-  O545  1  0.34313883  0.40986588  0.68112984  1
  O2-  O546  1  0.33149983  0.65673969  -0.03697295  1
  O2-  O547  1  0.35798544  0.67918496  0.35441353  1
  O2-  O548  1  0.32894071  0.64962511  0.68948693  1
  O2-  O549  1  0.32057886  0.88564516  0.02521648  1
  O2-  O550  1  0.34111258  0.92159810  0.34091330  1
  O2-  O551  1  0.30626936  0.90254841  0.68411034  1
  O2-  O552  1  0.55992227  0.15213896  0.00248548  1
  O2-  O553  1  0.59306925  0.15246461  0.34417584  1
  O2-  O554  1  0.57672712  0.17221793  0.68266571  1
  O2-  O555  1  0.66618154  0.45245922  0.02750300  1
  O2-  O556  1  0.53924161  0.45915279  0.37724974  1
  O2-  O557  1  0.58081315  0.42390567  0.68222737  1
  O2-  O558  1  0.58802920  0.69552069  0.03091686  1
  O2-  O559  1  0.60808559  0.68181100  0.34696571  1
  O2-  O560  1  0.57799001  0.66769915  0.67414691  1
  O2-  O561  1  0.57467741  0.92238959  0.03233497  1
  O2-  O562  1  0.57399820  0.90616954  0.34725237  1
  O2-  O563  1  0.61483335  0.94562099  0.69796381  1
  O2-  O564  1  0.82795564  0.19853889  0.02841871  1
  O2-  O565  1  0.83867988  0.15730500  0.35950609  1
  O2-  O566  1  0.85859657  0.18450390  0.69978344  1
  O2-  O567  1  0.82337576  0.46341126  0.03610757  1
  O2-  O568  1  0.84066720  0.41491841  0.34789648  1
  O2-  O569  1  0.80678532  0.39492753  0.68771911  1
  O2-  O570  1  0.84635217  0.68740855  0.01701434  1
  O2-  O571  1  0.84874732  0.65290862  0.37197712  1
  O2-  O572  1  0.77106881  0.68799776  0.71368065  1
  O2-  O573  1  0.80907573  0.91139086  0.03759822  1
  O2-  O574  1  0.83834246  0.91208126  0.30918364  1
  O2-  O575  1  0.83469173  0.93567551  0.69191178  1
