# generated using pymatgen
data_H2O
_symmetry_space_group_name_H-M   'P 1'
_cell_length_a   17.99399760
_cell_length_b   17.99453125
_cell_length_c   21.98600756
_cell_angle_alpha   89.99283551
_cell_angle_beta   90.02881794
_cell_angle_gamma   120.03113368
_symmetry_Int_Tables_number   1
_chemical_formula_structural   H2O
_chemical_formula_sum   'H384 O192'
_cell_volume   6163.23613329
_cell_formula_units_Z   192
loop_
 _symmetry_equiv_pos_site_id
 _symmetry_equiv_pos_as_xyz
  1  'x, y, z'
loop_
 _atom_type_symbol
 _atom_type_oxidation_number
  H+  1.0
  O2-  -2.0
loop_
 _atom_site_type_symbol
 _atom_site_label
 _atom_site_symmetry_multiplicity
 _atom_site_fract_x
 _atom_site_fract_y
 _atom_site_fract_z
 _atom_site_occupancy
  H+  H0  1  0.72511717  0.37022935  0.98993978  1
  H+  H1  1  0.39064325  0.10675003  0.32741238  1
  H+  H2  1  0.97595722  0.61522786  0.17372328  1
  H+  H3  1  0.33743854  0.67290093  0.43917343  1
  H+  H4  1  0.10626442  0.48405169  0.82271186  1
  H+  H5  1  0.39274611  0.70679329  0.14489603  1
  H+  H6  1  0.85920939  0.88201017  0.15740945  1
  H+  H7  1  0.82754963  0.42194616  0.06420041  1
  H+  H8  1  0.13640757  0.85082908  0.50152307  1
  H+  H9  1  0.32600746  0.41135309  0.08545273  1
  H+  H10  1  0.85357415  0.87526233  0.66885799  1
  H+  H11  1  0.52261454  0.39278026  0.49801298  1
  H+  H12  1  0.85634402  0.38508358  0.34242463  1
  H+  H13  1  0.86025097  0.39693654  0.16176636  1
  H+  H14  1  0.13643429  0.85782839  0.17517870  1
  H+  H15  1  0.08135999  0.90810576  0.42596282  1
  H+  H16  1  0.75687765  0.13714776  -0.00159369  1
  H+  H17  1  0.86216371  0.17110309  0.86831829  1
  H+  H18  1  0.38106720  0.77365418  0.65907939  1
  H+  H19  1  0.92357791  0.06954176  0.73302053  1
  H+  H20  1  0.87306502  0.64711905  0.67704992  1
  H+  H21  1  0.38462858  0.92157318  0.16662734  1
  H+  H22  1  0.86214354  0.14007961  0.49763581  1
  H+  H23  1  0.72095061  0.87217573  0.48345800  1
  H+  H24  1  0.33288572  0.17379081  0.44483385  1
  H+  H25  1  0.27275814  0.38767205  0.67307619  1
  H+  H26  1  0.27753185  0.33514513  0.13207363  1
  H+  H27  1  0.22628371  0.12156685  0.34101192  1
  H+  H28  1  0.41815567  0.08043332  0.92498495  1
  H+  H29  1  0.23271217  0.87511557  -0.00018308  1
  H+  H30  1  0.63559735  0.28160446  0.98627538  1
  H+  H31  1  0.88489946  0.52522870  0.98852840  1
  H+  H32  1  0.15332434  0.28588595  0.99659058  1
  H+  H33  1  0.47461199  0.86423087  0.83556676  1
  H+  H34  1  0.77178722  0.86368009  0.82829192  1
  H+  H35  1  0.35841402  0.48583064  0.99835783  1
  H+  H36  1  0.86148338  0.48907378  0.68870753  1
  H+  H37  1  0.13279258  0.62092095  0.83607199  1
  H+  H38  1  0.12743895  0.86670466  0.83707798  1
  H+  H39  1  0.62533267  0.76667800  0.31940195  1
  H+  H40  1  0.97309515  0.86392962  0.65547064  1
  H+  H41  1  0.38536605  0.02159041  0.83882836  1
  H+  H42  1  0.51512710  0.86343039  0.36337540  1
  H+  H43  1  0.97999111  0.61453781  0.67816248  1
  H+  H44  1  0.77632710  0.39444418  0.49828923  1
  H+  H45  1  0.12123736  0.28188190  0.84009715  1
  H+  H46  1  0.27303403  0.63951597  0.49646191  1
  H+  H47  1  0.63340535  0.11818677  0.83059571  1
  H+  H48  1  0.61522342  0.23116324  0.67140382  1
  H+  H49  1  0.87013949  0.64218081  0.16145056  1
  H+  H50  1  0.34239227  0.17035626  0.76915005  1
  H+  H51  1  0.93994821  0.22420146  0.11100546  1
  H+  H52  1  0.03990621  0.87082233  0.83690409  1
  H+  H53  1  0.23462737  0.62337012  0.33367286  1
  H+  H54  1  1.02151120  0.64208011  1.00603035  1
  H+  H55  1  0.72311134  0.85527678  0.16595206  1
  H+  H56  1  0.60559694  0.13363238  0.34066840  1
  H+  H57  1  0.15200497  0.00599443  0.84567529  1
  H+  H58  1  0.21439312  0.37705798  0.18438361  1
  H+  H59  1  0.10235921  0.71650933  0.16117263  1
  H+  H60  1  0.89179137  0.10512412  0.68120627  1
  H+  H61  1  0.11642696  0.97917405  0.34053565  1
  H+  H62  1  0.12793662  0.96437537  0.48334328  1
  H+  H63  1  0.35267072  0.47718788  0.82035461  1
  H+  H64  1  0.47578013  0.19120774  0.19816296  1
  H+  H65  1  0.62677440  0.51926825  0.65627899  1
  H+  H66  1  0.61839395  0.71942842  0.82912896  1
  H+  H67  1  0.96968392  0.86065401  0.50156437  1
  H+  H68  1  0.63664064  0.52109604  -0.01432580  1
  H+  H69  1  0.38815994  0.36374362  0.66872843  1
  H+  H70  1  0.86152467  0.07495457  0.81644200  1
  H+  H71  1  0.22664440  0.86332068  0.32754108  1
  H+  H72  1  0.65338640  0.38878814  0.81934351  1
  H+  H73  1  0.99531221  0.15488794  0.97675689  1
  H+  H74  1  0.45321951  0.37793307  0.84448999  1
  H+  H75  1  0.51671700  0.61711777  -0.00079773  1
  H+  H76  1  0.65142022  0.27578233  0.83487320  1
  H+  H77  1  0.13593103  0.77611035  0.33101837  1
  H+  H78  1  0.56210114  0.37867751  0.82187380  1
  H+  H79  1  0.37375687  0.14006600  0.67318705  1
  H+  H80  1  0.72580516  0.36322636  0.17387609  1
  H+  H81  1  0.62622747  0.84670597  0.66130271  1
  H+  H82  1  0.08071549  0.91056074  0.24628077  1
  H+  H83  1  0.10224399  0.39313798  0.82575118  1
  H+  H84  1  0.65460481  0.52397863  0.83418109  1
  H+  H85  1  0.87776891  0.77429242  0.50435220  1
  H+  H86  1  0.63464272  0.36465466  0.65902841  1
  H+  H87  1  0.60850604  0.61813465  -0.00057674  1
  H+  H88  1  0.14661295  0.03171066  0.66131262  1
  H+  H89  1  0.37955985  0.77394983  0.51062945  1
  H+  H90  1  0.22175787  0.61886044  0.83395269  1
  H+  H91  1  0.38305852  0.28145948  0.51627764  1
  H+  H92  1  0.11407047  0.89515706  0.01183310  1
  H+  H93  1  0.26001539  0.13064643  0.17031239  1
  H+  H94  1  0.09446722  0.59350964  0.64814416  1
  H+  H95  1  0.38426745  0.49336448  0.17354517  1
  H+  H96  1  0.11671472  0.64492665  0.34069221  1
  H+  H97  1  0.86985004  0.27197364  -0.02002186  1
  H+  H98  1  0.26179907  0.13975436  0.49764732  1
  H+  H99  1  0.10819701  0.39395068  0.49314946  1
  H+  H100  1  0.96834228  0.12443114  0.51068048  1
  H+  H101  1  0.63808767  0.97696586  0.38255294  1
  H+  H102  1  0.01768434  0.14045034  0.34318102  1
  H+  H103  1  0.28393424  0.88985754  0.66814201  1
  H+  H104  1  0.21856673  0.21933228  0.04513588  1
  H+  H105  1  0.16465249  0.82420365  0.23000602  1
  H+  H106  1  0.41159493  0.58842143  0.76698220  1
  H+  H107  1  0.35053666  0.13232804  0.16486846  1
  H+  H108  1  0.14101970  0.76461709  0.50267042  1
  H+  H109  1  0.88354128  0.03323205  0.50516393  1
  H+  H110  1  0.38195603  0.86659811  0.50973135  1
  H+  H111  1  0.77551538  0.63581734  0.34149463  1
  H+  H112  1  0.74008200  0.12409388  0.17139912  1
  H+  H113  1  0.61009918  0.39112780  -0.00956991  1
  H+  H114  1  0.66616265  0.95191213  0.00059804  1
  H+  H115  1  0.63055205  -0.01742933  0.14718814  1
  H+  H116  1  0.12269713  0.13531919  0.50926404  1
  H+  H117  1  0.62723002  0.52939819  0.50514319  1
  H+  H118  1  -0.02808479  0.37755729  0.82899319  1
  H+  H119  1  0.62607960  0.35773083  0.32573344  1
  H+  H120  1  0.89009670  0.28748219  0.16817057  1
  H+  H121  1  0.62167077  0.02804645  0.98337146  1
  H+  H122  1  0.61495124  0.74078805  0.47971881  1
  H+  H123  1  0.38287548  0.57883918  0.17308648  1
  H+  H124  1  0.53412572  0.81977984  0.31117626  1
  H+  H125  1  0.02029565  0.39659817  0.33841547  1
  H+  H126  1  0.72673221  0.12374147  0.83792339  1
  H+  H127  1  0.88085064  0.85793534  -0.00792739  1
  H+  H128  1  0.12731179  0.02990811  0.19914191  1
  H+  H129  1  0.36028706  0.79656471  0.19160352  1
  H+  H130  1  0.84970737  -0.02392496  0.33571639  1
  H+  H131  1  0.64339754  0.61035808  0.17063743  1
  H+  H132  1  0.14226193  0.14985157  0.01171997  1
  H+  H133  1  0.12879118  0.73535466  0.82744600  1
  H+  H134  1  0.61028471  0.97095193  0.68668346  1
  H+  H135  1  0.88437678  0.77181731  0.17340906  1
  H+  H136  1  0.06917665  0.65896472  0.10218097  1
  H+  H137  1  0.47979726  0.11843257  0.98939825  1
  H+  H138  1  0.14004391  0.28565323  0.65692882  1
  H+  H139  1  0.23497214  0.62216035  -0.01969957  1
  H+  H140  1  0.73751995  0.61740075  0.83565553  1
  H+  H141  1  0.71447931  0.84724340  0.66062683  1
  H+  H142  1  0.64998618  0.58167170  0.59074110  1
  H+  H143  1  0.38737074  0.87084304  0.65681598  1
  H+  H144  1  0.52664852  0.39255108  0.67601770  1
  H+  H145  1  0.63738401  0.28326695  0.50780914  1
  H+  H146  1  0.38792871  0.87241345  0.83547992  1
  H+  H147  1  0.21027275  0.37039479  0.84206994  1
  H+  H148  1  0.12903345  0.37065474  0.33311549  1
  H+  H149  1  0.39482805  0.27755453  0.66655016  1
  H+  H150  1  0.88696174  0.27614315  0.32985481  1
  H+  H151  1  0.14320697  0.53505034  0.33104196  1
  H+  H152  1  0.88300451  0.37014884  0.81112811  1
  H+  H153  1  0.62696517  0.23492171  0.15343208  1
  H+  H154  1  0.09057072  0.03839568  0.52058744  1
  H+  H155  1  0.63936843  0.61418130  0.32643700  1
  H+  H156  1  1.02222237  0.14594896  0.81717600  1
  H+  H157  1  0.10950546  0.14696540  0.35046122  1
  H+  H158  1  0.40878531  0.83391299  0.58446333  1
  H+  H159  1  0.62986345  0.11515385  0.49922560  1
  H+  H160  1  0.39217676  0.73017938  0.34731539  1
  H+  H161  1  0.40157742  1.01462035  0.14993914  1
  H+  H162  1  0.43907276  0.21324822  0.38587961  1
  H+  H163  1  0.51974299  0.62702159  0.34044918  1
  H+  H164  1  0.23829262  0.53883584  0.21610312  1
  H+  H165  1  0.29200080  0.65477351  0.15786940  1
  H+  H166  1  0.60403790  0.14266774  -0.00285388  1
  H+  H167  1  0.38575895  0.24342991  0.34787719  1
  H+  H168  1  0.66370730  0.07988252  0.74700538  1
  H+  H169  1  0.91391540  0.50180906  0.52669935  1
  H+  H170  1  0.54238176  0.14332782  0.15411493  1
  H+  H171  1  0.36079140  0.64884707  0.81692147  1
  H+  H172  1  0.36835511  0.73849180  0.99252391  1
  H+  H173  1  0.73056682  0.11089003  0.69420337  1
  H+  H174  1  0.38547625  0.62355537  0.51185566  1
  H+  H175  1  0.84878340  0.17412215  0.74176897  1
  H+  H176  1  0.52910924  0.38361501  0.17058017  1
  H+  H177  1  0.61830885  0.47218554  0.16742569  1
  H+  H178  1  0.77327198  0.63598126  1.00521376  1
  H+  H179  1  0.61683743  0.14273066  0.68304720  1
  H+  H180  1  0.88420465  0.27185522  0.51082659  1
  H+  H181  1  0.12812477  0.01722366  0.99776838  1
  H+  H182  1  0.75505962  0.86139657  1.00724669  1
  H+  H183  1  0.59626282  -0.02869706  0.44599300  1
  H+  H184  1  0.63354323  0.76648089  0.16328697  1
  H+  H185  1  0.12621832  0.27909287  0.33333094  1
  H+  H186  1  0.10946829  0.24885776  0.49771540  1
  H+  H187  1  0.61842635  0.62953362  0.82647743  1
  H+  H188  1  0.26717004  0.39713960  -0.00226560  1
  H+  H189  1  0.63465491  0.35930165  0.17393044  1
  H+  H190  1  0.10245435  0.39332208  0.16098868  1
  H+  H191  1  0.61142557  0.96747325  0.82544328  1
  H+  H192  1  0.62314784  0.61318046  0.65900192  1
  H+  H193  1  0.10910792  0.23340714  0.16588056  1
  H+  H194  1  0.26232234  0.38281691  0.34656594  1
  H+  H195  1  0.01613581  0.88994115  0.19250033  1
  H+  H196  1  0.38029577  0.90048950  0.00186086  1
  H+  H197  1  0.91707251  0.08575378  0.27047183  1
  H+  H198  1  0.48943568  0.87025758  -0.01733587  1
  H+  H199  1  0.39282154  0.35687018  0.16962181  1
  H+  H200  1  0.36231198  0.65364551  0.67910824  1
  H+  H201  1  0.35934857  0.73704463  0.82666753  1
  H+  H202  1  0.63858975  0.52528757  0.32616828  1
  H+  H203  1  0.85281421  0.96162546  0.68141539  1
  H+  H204  1  0.12144652  0.40258979  0.00581857  1
  H+  H205  1  0.12173791  0.72403473  0.67429807  1
  H+  H206  1  0.90189519  0.62273943  0.83447455  1
  H+  H207  1  0.58087842  0.17333188  0.05907288  1
  H+  H208  1  0.87307878  0.86306407  0.32910343  1
  H+  H209  1  0.59957274  0.42523450  0.72920281  1
  H+  H210  1  0.65283803  0.12450196  0.16048225  1
  H+  H211  1  0.23269044  0.10008198  0.84484710  1
  H+  H212  1  0.08026551  0.87939396  0.74426086  1
  H+  H213  1  0.51733734  0.39166319  0.34085505  1
  H+  H214  1  0.02345881  0.79901523  0.70461625  1
  H+  H215  1  0.10724756  0.73167995  0.01269396  1
  H+  H216  1  0.52089195  0.88562067  0.67184918  1
  H+  H217  1  0.61176742  0.72274056  0.67276107  1
  H+  H218  1  0.01613549  0.38839782  0.49601557  1
  H+  H219  1  0.77980892  0.63888080  0.16026672  1
  H+  H220  1  0.37841087  0.11194245  0.51014017  1
  H+  H221  1  0.21406446  0.78889701  0.88575299  1
  H+  H222  1  0.88666675  0.61434221  -0.01132563  1
  H+  H223  1  0.52706206  0.65122984  0.49212173  1
  H+  H224  1  0.88801021  0.52712735  0.33116738  1
  H+  H225  1  0.86560768  0.24830084  0.83279566  1
  H+  H226  1  0.89216895  0.11032626  0.16902757  1
  H+  H227  1  0.12191575  0.63807432  0.48790436  1
  H+  H228  1  0.78445370  0.12977182  0.34501535  1
  H+  H229  1  0.63759639  0.85339125  0.84346451  1
  H+  H230  1  0.76724380  0.38396193  0.34387496  1
  H+  H231  1  0.38016899  0.37187139  0.98897354  1
  H+  H232  1  0.27395829  0.88529056  0.49001830  1
  H+  H233  1  0.13334903  0.12185228  0.18623485  1
  H+  H234  1  0.86635752  0.21954994  0.67701587  1
  H+  H235  1  0.25798974  0.14000089  1.00905414  1
  H+  H236  1  0.36682769  0.48703190  0.49527654  1
  H+  H237  1  0.90246423  0.85853869  0.83986660  1
  H+  H238  1  0.36323845  0.22758268  0.82927047  1
  H+  H239  1  0.36411142  0.88201705  0.33521898  1
  H+  H240  1  0.89036211  0.61699116  0.33278402  1
  H+  H241  1  0.97461151  0.34847962  0.66228888  1
  H+  H242  1  0.83151045  0.11716066  0.98760641  1
  H+  H243  1  0.83147001  0.98926525  -0.02352612  1
  H+  H244  1  0.39101028  1.01662075  -0.00907572  1
  H+  H245  1  -0.02580494  0.37778302  0.17345397  1
  H+  H246  1  0.37780072  0.51140442  0.33527164  1
  H+  H247  1  0.89755482  0.33965025  0.92625536  1
  H+  H248  1  0.61701201  0.82937680  0.99523975  1
  H+  H249  1  0.99922267  0.59397055  0.52263848  1
  H+  H250  1  0.02359910  0.88964336  0.01073495  1
  H+  H251  1  0.27515525  0.88149489  0.83283442  1
  H+  H252  1  0.86848812  0.73390245  0.67094870  1
  H+  H253  1  0.88495904  0.77118097  -0.00584483  1
  H+  H254  1  0.03231210  0.14219094  0.67849688  1
  H+  H255  1  0.77371754  0.14163009  0.48893570  1
  H+  H256  1  0.52190644  0.13768834  0.82633224  1
  H+  H257  1  0.38322076  0.02510111  0.50427063  1
  H+  H258  1  0.84996516  0.17625978  0.08074691  1
  H+  H259  1  0.61318942  0.39554550  0.49656366  1
  H+  H260  1  0.89102440  0.11938603  0.33049113  1
  H+  H261  1  0.37385947  0.35857971  0.32988101  1
  H+  H262  1  0.08393704  0.46710690  0.66190661  1
  H+  H263  1  0.37732006  0.26233959  0.17586803  1
  H+  H264  1  0.62331257  0.88981016  0.14746192  1
  H+  H265  1  0.33191368  0.69072259  0.73214919  1
  H+  H266  1  0.85243741  0.38714835  0.00408762  1
  H+  H267  1  0.36937015  0.97238309  0.33389721  1
  H+  H268  1  0.34196821  0.38383172  0.83278093  1
  H+  H269  1  0.52544947  0.62092059  0.15783862  1
  H+  H270  1  0.22900082  0.37994392  0.50693235  1
  H+  H271  1  0.33564094  0.92074898  0.76907329  1
  H+  H272  1  0.63863829  0.87162075  0.45665774  1
  H+  H273  1  0.52096514  0.14322551  0.49633080  1
  H+  H274  1  0.87207084  0.72767912  0.83104862  1
  H+  H275  1  0.37227595  0.98113284  0.66996512  1
  H+  H276  1  0.62854852  0.62104419  0.50555672  1
  H+  H277  1  0.38596753  0.62308584  -0.01894311  1
  H+  H278  1  0.01492762  0.14606260  -0.05059242  1
  H+  H279  1  0.88266372  0.36013085  0.51283692  1
  H+  H280  1  0.38829557  0.11382295  0.84085462  1
  H+  H281  1  0.13501212  0.52396633  0.49637230  1
  H+  H282  1  0.62044921  0.74133833  0.99469006  1
  H+  H283  1  0.76857367  0.64533440  0.49680958  1
  H+  H284  1  0.85870110  0.48482658  0.16293781  1
  H+  H285  1  0.86139080  0.89459205  0.48933586  1
  H+  H286  1  0.86038505  0.97122508  0.15737619  1
  H+  H287  1  0.11629120  0.48604656  0.16181727  1
  H+  H288  1  0.64719622  0.05638386  0.54409693  1
  H+  H289  1  0.75823400  0.88805210  0.33486675  1
  H+  H290  1  0.59189919  0.66272060  0.73373764  1
  H+  H291  1  0.41686679  0.59276975  0.56941500  1
  H+  H292  1  0.84204856  0.67558578  0.76779220  1
  H+  H293  1  0.83303572  0.92450351  0.42928555  1
  H+  H294  1  0.57967325  0.17153813  0.43690112  1
  H+  H295  1  0.41893049  0.08460202  0.59868905  1
  H+  H296  1  0.84682754  0.17583033  0.40199332  1
  H+  H297  1  0.37376723  0.28041213  -0.00560775  1
  H+  H298  1  -0.03607515  0.86572695  0.32886156  1
  H+  H299  1  0.91671364  0.83951669  0.59344646  1
  H+  H300  1  0.91717006  0.58904160  0.23487496  1
  H+  H301  1  0.07573178  0.18609661  0.43901385  1
  H+  H302  1  0.36500616  0.94012972  0.06351564  1
  H+  H303  1  0.14255086  0.52257374  0.98879009  1
  H+  H304  1  0.82132196  0.90847574  0.06225857  1
  H+  H305  1  0.09324296  0.67084213  0.73812606  1
  H+  H306  1  0.07756434  0.42333344  0.72803924  1
  H+  H307  1  0.68362763  0.33778814  0.89223148  1
  H+  H308  1  0.03429189  0.53517753  0.59561296  1
  H+  H309  1  0.15021987  0.57712819  0.55648691  1
  H+  H310  1  0.92957638  0.57433661  0.61750528  1
  H+  H311  1  0.58292241  0.66544277  0.39715075  1
  H+  H312  1  0.57813214  0.16989719  0.76470762  1
  H+  H313  1  0.16737402  0.58437091  0.91952178  1
  H+  H314  1  0.09145150  0.18992017  0.76534539  1
  H+  H315  1  0.57815663  0.64908425  0.09560421  1
  H+  H316  1  0.14464754  0.85134164  0.65763831  1
  H+  H317  1  0.16311354  0.07230371  0.93443439  1
  H+  H318  1  0.87311518  0.36275084  0.69612899  1
  H+  H319  1  0.36600458  0.39766151  0.49966741  1
  H+  H320  1  0.19523788  0.58801128  0.24165236  1
  H+  H321  1  0.83593620  0.42133125  0.43928050  1
  H+  H322  1  0.36511881  0.63266034  0.34590520  1
  H+  H323  1  0.15458798  0.34020734  0.24307209  1
  H+  H324  1  0.12489012  0.15048654  0.67404623  1
  H+  H325  1  0.28582878  0.14178175  0.67436730  1
  H+  H326  1  0.48128254  0.11618651  0.65741061  1
  H+  H327  1  0.82909860  0.67028063  0.43893176  1
  H+  H328  1  0.89903623  0.82673170  0.23492492  1
  H+  H329  1  0.93099375  0.59396680  0.89384621  1
  H+  H330  1  -0.02132219  0.10954925  0.17275988  1
  H+  H331  1  0.66214986  0.81750060  0.90254776  1
  H+  H332  1  0.09283841  0.44038160  0.06205440  1
  H+  H333  1  0.17012640  0.09811702  0.28050593  1
  H+  H334  1  0.48010160  0.61576004  0.81848448  1
  H+  H335  1  0.86093667  0.72644776  0.34319703  1
  H+  H336  1  0.16782605  0.09042502  0.60267025  1
  H+  H337  1  0.72264406  0.36564054  0.66476152  1
  H+  H338  1  0.33205496  0.68120353  0.05187553  1
  H+  H339  1  0.41135934  0.58803460  0.92285027  1
  H+  H340  1  0.65780147  0.32668662  0.26743044  1
  H+  H341  1  0.38240113  0.52213813  0.68294905  1
  H+  H342  1  0.91156258  0.33554426  0.27019875  1
  H+  H343  1  0.32645883  0.41248741  0.40475048  1
  H+  H344  1  0.57871385  0.90267840  0.76927361  1
  H+  H345  1  0.13886424  0.37412209  0.65959962  1
  H+  H346  1  0.03133720  0.64777075  0.82699442  1
  H+  H347  1  0.07634468  0.42413580  0.39933131  1
  H+  H348  1  0.66827025  0.34086974  0.56748835  1
  H+  H349  1  0.67279890  0.58604668  0.92890528  1
  H+  H350  1  0.60574497  0.92805194  0.06072321  1
  H+  H351  1  0.39936979  0.33362453  0.90432843  1
  H+  H352  1  0.08166751  0.66653883  0.43349109  1
  H+  H353  1  0.31540732  0.17194167  0.07076655  1
  H+  H354  1  0.67371479  0.58572726  0.23226749  1
  H+  H355  1  0.92721199  0.83251764  0.90297446  1
  H+  H356  1  0.17560116  0.82752707  0.59558800  1
  H+  H357  1  0.15798862  0.33666025  0.93368326  1
  H+  H358  1  0.43323756  0.10662117  0.23801284  1
  H+  H359  1  0.65744823  0.08145018  0.25861372  1
  H+  H360  1  0.17838804  0.84591241  0.93919658  1
  H+  H361  1  0.87498001  -0.00719061  0.81655166  1
  H+  H362  1  0.32155551  0.40657438  0.73688303  1
  H+  H363  1  0.42512542  0.85029138  0.24299440  1
  H+  H364  1  0.47971350  0.10863464  0.32716927  1
  H+  H365  1  0.41037082  0.56549109  0.27425285  1
  H+  H366  1  0.11699976  0.88837722  0.33691938  1
  H+  H367  1  0.65181022  0.08488856  0.92287328  1
  H+  H368  1  0.40609770  0.32893662  0.27000094  1
  H+  H369  1  0.10607235  0.18103154  0.10619452  1
  H+  H370  1  0.65223258  0.82427078  0.25926677  1
  H+  H371  1  0.02482132  0.64049654  0.34064807  1
  H+  H372  1  0.33823676  0.91752954  0.43282009  1
  H+  H373  1  0.42490132  0.84401778  0.92583148  1
  H+  H374  1  0.60550642  0.22323252  0.34039782  1
  H+  H375  1  0.57809587  0.41979854  0.39962999  1
  H+  H376  1  0.47461975  0.61139474  0.68213428  1
  H+  H377  1  0.52206786  0.39319606  0.99229669  1
  H+  H378  1  0.87963554  0.05010434  0.92091719  1
  H+  H379  1  0.41880974  0.34255600  0.57402132  1
  H+  H380  1  0.82257792  0.88577184  0.76437187  1
  H+  H381  1  0.90979817  0.32128444  0.60508316  1
  H+  H382  1  0.17039716  0.35240753  0.56690822  1
  H+  H383  1  0.83447665  0.66629352  0.06450555  1
  O2-  O384  1  0.08645862  0.17442144  0.14971721  1
  O2-  O385  1  0.07869557  0.18709282  0.48447358  1
  O2-  O386  1  0.08215027  0.19021328  0.80981218  1
  O2-  O387  1  0.07840795  0.42838141  0.14436411  1
  O2-  O388  1  0.07465711  0.42040149  0.47693355  1
  O2-  O389  1  0.07416719  0.42386125  0.80689497  1
  O2-  O390  1  0.06768263  0.65554920  0.14784680  1
  O2-  O391  1  0.08719869  0.66661195  0.47895976  1
  O2-  O392  1  0.09360542  0.67456405  0.81070111  1
  O2-  O393  1  0.07894440  0.92438132  0.20343809  1
  O2-  O394  1  0.08397429  0.90650789  0.47175962  1
  O2-  O395  1  0.09849286  0.89547626  0.81826777  1
  O2-  O396  1  0.31820724  0.16020547  0.15062639  1
  O2-  O397  1  0.32404690  0.16872594  0.48967563  1
  O2-  O398  1  0.34205827  0.16823811  0.81457234  1
  O2-  O399  1  0.32101083  0.39594411  0.13081721  1
  O2-  O400  1  0.33571817  0.42606050  0.48131942  1
  O2-  O401  1  0.31413347  0.41434174  0.81389250  1
  O2-  O402  1  0.33829963  0.70180953  0.13293742  1
  O2-  O403  1  0.33550674  0.67424612  0.48472355  1
  O2-  O404  1  0.32657784  0.67736777  0.80908195  1
  O2-  O405  1  0.39563059  0.96217763  0.13245662  1
  O2-  O406  1  0.33629431  0.91912846  0.47815822  1
  O2-  O407  1  0.33894871  0.92310111  0.81401807  1
  O2-  O408  1  0.59974764  0.17453149  0.13514933  1
  O2-  O409  1  0.58188604  0.17454983  0.48226669  1
  O2-  O410  1  0.58184627  0.16678021  0.81017134  1
  O2-  O411  1  0.58865908  0.41034196  0.15605600  1
  O2-  O412  1  0.58158396  0.42415202  0.48035666  1
  O2-  O413  1  0.61805472  0.41745885  0.80432810  1
  O2-  O414  1  0.58356317  0.65605662  0.14091689  1
  O2-  O415  1  0.58529456  0.67506732  0.47475070  1
  O2-  O416  1  0.58790459  0.66012856  0.81142510  1
  O2-  O417  1  0.60159497  0.92530783  0.12759862  1
  O2-  O418  1  0.59847273  0.93403552  0.41431410  1
  O2-  O419  1  0.58077482  0.90560068  0.81499086  1
  O2-  O420  1  0.87919243  0.19242512  0.12192760  1
  O2-  O421  1  0.83612068  0.17465672  0.47993165  1
  O2-  O422  1  0.83834895  0.18238096  0.83182798  1
  O2-  O423  1  0.82768767  0.42437682  0.14648436  1
  O2-  O424  1  0.83698898  0.41838112  0.48458902  1
  O2-  O425  1  0.81424339  0.42987015  0.70277217  1
  O2-  O426  1  0.84001545  0.67247601  0.14464158  1
  O2-  O427  1  0.82919534  0.67731598  0.48380946  1
  O2-  O428  1  0.83776720  0.66869046  0.81358955  1
  O2-  O429  1  0.82893361  0.91180829  0.14078940  1
  O2-  O430  1  0.83496523  0.92835663  0.47453939  1
  O2-  O431  1  0.83036188  0.89160225  0.80989719  1
  O2-  O432  1  0.16372811  0.09403879  0.20539895  1
  O2-  O433  1  0.14282791  0.09410375  0.52441915  1
  O2-  O434  1  0.17406296  0.06499473  0.86111943  1
  O2-  O435  1  0.15426271  0.34198053  0.19675754  1
  O2-  O436  1  0.16816636  0.35209273  0.52120872  1
  O2-  O437  1  0.15059547  0.34216037  0.85840068  1
  O2-  O438  1  0.21356163  0.57317279  0.20191681  1
  O2-  O439  1  0.16900115  0.58424207  0.51281250  1
  O2-  O440  1  0.16219397  0.58753432  0.85097478  1
  O2-  O441  1  0.16352215  0.82367056  0.18516009  1
  O2-  O442  1  0.17181102  0.82675613  0.51695329  1
  O2-  O443  1  0.19693318  0.82422095  0.86264529  1
  O2-  O444  1  0.44218288  0.12874573  0.19456583  1
  O2-  O445  1  0.41315069  0.08486611  0.52093828  1
  O2-  O446  1  0.41788250  0.08233580  0.85611622  1
  O2-  O447  1  0.41216568  0.32252050  0.19228956  1
  O2-  O448  1  0.41649015  0.34264068  0.52836492  1
  O2-  O449  1  0.39620838  0.33399000  0.85741496  1
  O2-  O450  1  0.41351656  0.55217436  0.19073869  1
  O2-  O451  1  0.41657121  0.59253018  0.52494181  1
  O2-  O452  1  0.41626893  0.58968710  0.81248269  1
  O2-  O453  1  0.37563981  0.84421459  0.22007829  1
  O2-  O454  1  0.40786577  0.83371065  0.52880612  1
  O2-  O455  1  0.41463699  0.83784550  0.85162537  1
  O2-  O456  1  0.67840415  0.09100135  0.17861345  1
  O2-  O457  1  0.65774666  0.07905417  0.50283339  1
  O2-  O458  1  0.66328936  0.08440449  0.84063540  1
  O2-  O459  1  0.66458826  0.32620959  0.18750280  1
  O2-  O460  1  0.66775822  0.34411717  0.52201167  1
  O2-  O461  1  0.68906568  0.33644257  0.84701983  1
  O2-  O462  1  0.67499995  0.58239806  0.18690051  1
  O2-  O463  1  0.65519295  0.58811498  0.52380114  1
  O2-  O464  1  0.67527788  0.58321157  0.84917552  1
  O2-  O465  1  0.66141406  0.82665362  0.17840440  1
  O2-  O466  1  0.65717200  0.84039704  0.48413127  1
  O2-  O467  1  0.66750782  0.82243355  0.85722256  1
  O2-  O468  1  0.91811084  0.07863693  0.18752565  1
  O2-  O469  1  0.90766276  0.09130339  0.52365171  1
  O2-  O470  1  0.90555845  0.05844192  0.81600644  1
  O2-  O471  1  0.91407561  0.34342609  0.18894198  1
  O2-  O472  1  0.91461720  0.33185544  0.52850592  1
  O2-  O473  1  0.90899995  0.34767527  0.83999688  1
  O2-  O474  1  0.91354611  0.58697181  0.18977083  1
  O2-  O475  1  0.96050411  0.54823230  0.55157834  1
  O2-  O476  1  0.93833482  0.59912746  0.84880418  1
  O2-  O477  1  0.90847223  0.83199371  0.19001229  1
  O2-  O478  1  0.91147866  0.83721455  0.51840037  1
  O2-  O479  1  0.93419505  0.83166762  0.85751217  1
  O2-  O480  1  0.16714477  0.09181784  0.32643672  1
  O2-  O481  1  0.17744706  0.09122773  0.64740781  1
  O2-  O482  1  0.15996305  0.07776771  0.97998248  1
  O2-  O483  1  0.15884135  0.33958820  0.31749907  1
  O2-  O484  1  0.17191059  0.34698996  0.64349968  1
  O2-  O485  1  0.16703141  0.34261423  0.97923789  1
  O2-  O486  1  0.17610621  0.59531849  0.31509109  1
  O2-  O487  1  0.08675805  0.54702953  0.61914946  1
  O2-  O488  1  0.17362828  0.58468447  0.96658106  1
  O2-  O489  1  0.16550974  0.83667432  0.31514464  1
  O2-  O490  1  0.18122428  0.82921858  0.64102172  1
  O2-  O491  1  0.17330589  0.84732018  0.98444714  1
  O2-  O492  1  0.41948328  0.07776823  0.30886341  1
  O2-  O493  1  0.41962248  0.08413627  0.64429417  1
  O2-  O494  1  0.41878033  0.08005756  0.97239887  1
  O2-  O495  1  0.40776640  0.33136043  0.31550333  1
  O2-  O496  1  0.42308015  0.33876087  0.65250683  1
  O2-  O497  1  0.40678871  0.33819480  0.97404184  1
  O2-  O498  1  0.40954421  0.57162313  0.31878864  1
  O2-  O499  1  0.41087146  0.58635731  0.68546534  1
  O2-  O500  1  0.41197241  0.58789495  0.96727591  1
  O2-  O501  1  0.48598616  0.82573311  0.32763181  1
  O2-  O502  1  0.41397732  0.83635505  0.63924006  1
  O2-  O503  1  0.42820494  0.84356139  0.97188500  1
  O2-  O504  1  0.63889616  0.07576589  0.30182287  1
  O2-  O505  1  0.66690424  0.08133665  0.70232877  1
  O2-  O506  1  0.65007989  0.08808885  0.96807293  1
  O2-  O507  1  0.65465519  0.32498859  0.31301674  1
  O2-  O508  1  0.66426636  0.33305888  0.64564874  1
  O2-  O509  1  0.66731785  0.34038579  0.96927913  1
  O2-  O510  1  0.67164040  0.58568692  0.31141884  1
  O2-  O511  1  0.65031767  0.57971704  0.63855564  1
  O2-  O512  1  0.66885537  0.58503172  0.97423080  1
  O2-  O513  1  0.64696394  0.82609192  0.30423919  1
  O2-  O514  1  0.65316885  0.81317549  0.64807008  1
  O2-  O515  1  0.65024292  0.80326754  0.98002342  1
  O2-  O516  1  0.91810982  0.08495705  0.31559109  1
  O2-  O517  1  0.92327443  0.07321872  0.68794945  1
  O2-  O518  1  0.83286200  0.03528048  0.94963139  1
  O2-  O519  1  0.91427217  0.33746740  0.31541392  1
  O2-  O520  1  0.91192300  0.31525877  0.65050974  1
  O2-  O521  1  0.89520586  0.33356707  0.97081403  1
  O2-  O522  1  0.92153165  0.58773641  0.31708898  1
  O2-  O523  1  0.92017967  0.58337454  0.66112587  1
  O2-  O524  1  0.91752038  0.58529427  0.97290749  1
  O2-  O525  1  0.90358694  0.83226922  0.31496692  1
  O2-  O526  1  0.91426847  0.83856488  0.63938078  1
  O2-  O527  1  0.91523161  0.83169116  0.97846317  1
  O2-  O528  1  0.15788697  0.20284921  0.03750614  1
  O2-  O529  1  0.07732043  0.17676641  0.36065501  1
  O2-  O530  1  0.09520889  0.18250149  0.68455372  1
  O2-  O531  1  0.10122142  0.44309931  0.01734409  1
  O2-  O532  1  0.08110835  0.42740865  0.35376426  1
  O2-  O533  1  0.07510085  0.41380887  0.68304352  1
  O2-  O534  1  0.07874886  0.67127085  0.02600736  1
  O2-  O535  1  0.08541530  0.67353256  0.35655063  1
  O2-  O536  1  0.08658960  0.66588506  0.69212999  1
  O2-  O537  1  0.08280899  0.92411224  0.02665211  1
  O2-  O538  1  0.08208098  0.91639205  0.34872109  1
  O2-  O539  1  0.06368988  0.86056279  0.70029010  1
  O2-  O540  1  0.30881493  0.18981536  0.02947314  1
  O2-  O541  1  0.38055481  0.19160855  0.37097498  1
  O2-  O542  1  0.34567783  0.17203348  0.68985735  1
  O2-  O543  1  0.32831179  0.42576982  0.01403963  1
  O2-  O544  1  0.32386413  0.40896713  0.35909643  1
  O2-  O545  1  0.33139345  0.41246785  0.69181915  1
  O2-  O546  1  0.33490041  0.67709313  0.00684373  1
  O2-  O547  1  0.34422152  0.67193974  0.35958173  1
  O2-  O548  1  0.33703530  0.69065863  0.68672596  1
  O2-  O549  1  0.35351254  0.93353341  0.01790449  1
  O2-  O550  1  0.33767509  0.91352547  0.35214858  1
  O2-  O551  1  0.34400262  0.91998461  0.68452140  1
  O2-  O552  1  0.57328332  0.17175886  0.01369021  1
  O2-  O553  1  0.57464622  0.16309672  0.35713626  1
  O2-  O554  1  0.58155229  0.17078412  0.68747787  1
  O2-  O555  1  0.58316988  0.42499422  0.00393587  1
  O2-  O556  1  0.57818499  0.41801800  0.35418262  1
  O2-  O557  1  0.59017138  0.42648390  0.68424230  1
  O2-  O558  1  0.57443562  0.64428827  0.01795770  1
  O2-  O559  1  0.58157568  0.66080029  0.35158829  1
  O2-  O560  1  0.58368500  0.65962698  0.68843834  1
  O2-  O561  1  0.60611186  0.92764571  0.01254833  1
  O2-  O562  1  0.69605254  1.05176324  0.33280736  1
  O2-  O563  1  0.57750494  0.90732569  0.69182996  1
  O2-  O564  1  0.81822334  0.15882456  0.00846395  1
  O2-  O565  1  0.84727488  0.17475533  0.35636435  1
  O2-  O566  1  0.83817358  0.16133044  0.69805139  1
  O2-  O567  1  0.82488644  0.42060830  0.01897106  1
  O2-  O568  1  0.82754302  0.41640553  0.35843414  1
  O2-  O569  1  0.85852259  0.38952642  0.73100490  1
  O2-  O570  1  0.83433191  0.66728373  0.01902394  1
  O2-  O571  1  0.83528327  0.66628327  0.35814309  1
  O2-  O572  1  0.84704373  0.67985927  0.69412489  1
  O2-  O573  1  0.81629237  0.90323274  0.01688554  1
  O2-  O574  1  0.81881123  0.91511597  0.34967630  1
  O2-  O575  1  0.81926018  0.89853867  0.68877380  1
