# generated using pymatgen
data_H2O
_symmetry_space_group_name_H-M   'P 1'
_cell_length_a   18.00801184
_cell_length_b   18.01054552
_cell_length_c   22.01553794
_cell_angle_alpha   89.99903512
_cell_angle_beta   89.96867979
_cell_angle_gamma   120.02865427
_symmetry_Int_Tables_number   1
_chemical_formula_structural   H2O
_chemical_formula_sum   'H384 O192'
_cell_volume   6181.97164450
_cell_formula_units_Z   192
loop_
 _symmetry_equiv_pos_site_id
 _symmetry_equiv_pos_as_xyz
  1  'x, y, z'
loop_
 _atom_type_symbol
 _atom_type_oxidation_number
  H+  1.0
  O2-  -2.0
loop_
 _atom_site_type_symbol
 _atom_site_label
 _atom_site_symmetry_multiplicity
 _atom_site_fract_x
 _atom_site_fract_y
 _atom_site_fract_z
 _atom_site_occupancy
  H+  H0  1  0.87520929  0.10339164  0.85716565  1
  H+  H1  1  0.64149299  0.80909230  1.02955358  1
  H+  H2  1  0.32203040  0.28255586  0.20634321  1
  H+  H3  1  0.04291567  0.88914772  0.81569765  1
  H+  H4  1  0.90731628  0.83212274  0.89616586  1
  H+  H5  1  0.74950470  0.36960520  0.15915612  1
  H+  H6  1  0.71992066  0.37466965  0.33689654  1
  H+  H7  1  0.23029408  0.37642910  0.20728309  1
  H+  H8  1  0.49719409  0.92089635  0.51987813  1
  H+  H9  1  0.38251059  0.86745668  0.17900672  1
  H+  H10  1  0.63393536  0.13779831  0.31734067  1
  H+  H11  1  0.28381988  0.38648290  0.48299927  1
  H+  H12  1  0.88243389  1.02077878  0.84940426  1
  H+  H13  1  0.63848024  0.74903286  0.33340487  1
  H+  H14  1  0.39284290  0.54054169  0.20411172  1
  H+  H15  1  0.41826742  0.86683525  0.56707988  1
  H+  H16  1  0.62357909  0.29530318  0.33409061  1
  H+  H17  1  0.33607869  0.68638657  0.88850756  1
  H+  H18  1  0.02048482  0.12848862  0.16857733  1
  H+  H19  1  0.90556891  0.13364779  0.18049990  1
  H+  H20  1  0.21047588  0.60450968  0.21278456  1
  H+  H21  1  0.61413019  0.63364750  0.19946812  1
  H+  H22  1  0.91261453  0.86393114  0.64955262  1
  H+  H23  1  0.73361728  0.11780960  0.84696783  1
  H+  H24  1  0.90126572  0.62225806  0.32289327  1
  H+  H25  1  0.27237914  0.88268857  0.82829007  1
  H+  H26  1  0.89055442  0.28047718  0.32372613  1
  H+  H27  1  0.88465508  0.77380200  0.31420276  1
  H+  H28  1  0.87268374  0.46508909  0.49976379  1
  H+  H29  1  0.37677618  0.64328156  0.47938816  1
  H+  H30  1  0.39110681  0.78236443  0.82457218  1
  H+  H31  1  0.47066853  0.58088052  0.97374352  1
  H+  H32  1  0.36639489  0.64986796  0.83476108  1
  H+  H33  1  0.37543494  0.65374039  0.20338755  1
  H+  H34  1  0.61824437  0.50581506  0.82094154  1
  H+  H35  1  0.36143950  0.47979276  0.81809313  1
  H+  H36  1  0.13572724  0.26632643  0.47970548  1
  H+  H37  1  0.86207220  0.47329438  0.67009217  1
  H+  H38  1  0.87262418  0.72306236  0.65843433  1
  H+  H39  1  0.38391816  0.87457993  0.81498264  1
  H+  H40  1  0.74149135  0.37566467  0.50812727  1
  H+  H41  1  0.47214089  0.87738492  -0.00816855  1
  H+  H42  1  0.12713541  0.52693349  0.66512190  1
  H+  H43  1  0.14169552  0.76819346  0.65593673  1
  H+  H44  1  0.55741267  0.56473253  0.78141195  1
  H+  H45  1  0.32755953  0.65672171  0.05446720  1
  H+  H46  1  0.60973616  0.66359272  0.79763135  1
  H+  H47  1  0.37279188  0.39502215  0.18916605  1
  H+  H48  1  0.01163573  0.14483961  0.82721582  1
  H+  H49  1  1.00708417  0.36975067  0.83284208  1
  H+  H50  1  0.97080543  0.36277593  0.99417556  1
  H+  H51  1  0.85762106  0.77627678  0.83996981  1
  H+  H52  1  0.60859118  0.99708938  0.01133548  1
  H+  H53  1  0.40114255  0.37165006  0.49833837  1
  H+  H54  1  0.88653379  0.58489737  0.83547150  1
  H+  H55  1  0.48520172  0.88098383  0.82075795  1
  H+  H56  1  0.62039226  0.02249982  0.66166357  1
  H+  H57  1  0.77009990  0.87793454  0.34404442  1
  H+  H58  1  0.00616044  0.59493056  0.50273383  1
  H+  H59  1  0.74626932  0.31553029  0.85519814  1
  H+  H60  1  0.87240340  0.63483728  0.00613205  1
  H+  H61  1  0.83666105  0.91071244  0.60320035  1
  H+  H62  1  0.02655820  0.41520515  0.33618477  1
  H+  H63  1  0.09806072  0.65340414  0.39890995  1
  H+  H64  1  0.61456698  0.72473039  0.19612967  1
  H+  H65  1  0.61141812  0.56007227  0.34007342  1
  H+  H66  1  0.61026967  0.91025051  0.01728084  1
  H+  H67  1  0.10585218  0.16312563  0.81814103  1
  H+  H68  1  0.11197408  0.72313378  -0.00747213  1
  H+  H69  1  0.40211213  0.53144842  0.65304804  1
  H+  H70  1  0.10518867  0.19699024  0.66157239  1
  H+  H71  1  0.62477915  0.74574001  0.49461233  1
  H+  H72  1  0.33168370  0.73358565  0.35547638  1
  H+  H73  1  0.11602563  0.82397369  0.50399194  1
  H+  H74  1  0.85056637  0.88564653  0.83435360  1
  H+  H75  1  0.22333233  0.86743324  0.99751636  1
  H+  H76  1  0.84745206  0.12631189  0.33087699  1
  H+  H77  1  -0.00951494  0.62257315  0.32285788  1
  H+  H78  1  0.13758923  0.61866287  0.65909368  1
  H+  H79  1  0.66552670  0.55282464  0.24222239  1
  H+  H80  1  0.60694420  0.14256429  0.65495967  1
  H+  H81  1  0.01635731  0.87390178  0.06240737  1
  H+  H82  1  0.16961581  0.76176937  0.33725282  1
  H+  H83  1  0.51886416  0.14785707  0.34148128  1
  H+  H84  1  0.48094983  0.83250901  0.33209346  1
  H+  H85  1  0.86565918  0.00372933  0.32714690  1
  H+  H86  1  0.47770898  0.87234096  0.17853105  1
  H+  H87  1  0.47101466  0.11093323  0.65005591  1
  H+  H88  1  0.48215111  0.62398079  0.64135406  1
  H+  H89  1  0.85643730  0.36900735  0.50249008  1
  H+  H90  1  0.76396585  0.61299297  0.33432153  1
  H+  H91  1  0.11707276  0.12434540  0.16386321  1
  H+  H92  1  0.61878216  0.85203458  0.17383576  1
  H+  H93  1  0.84851198  0.37601432  0.34092518  1
  H+  H94  1  0.64760171  0.38234325  0.50138548  1
  H+  H95  1  0.17197054  0.34582751  0.63029242  1
  H+  H96  1  0.13337531  0.61243319  0.18203823  1
  H+  H97  1  -0.02056642  0.61352954  -0.01368373  1
  H+  H98  1  0.86217090  0.88068372  0.00959249  1
  H+  H99  1  0.03454189  0.64442044  0.16596768  1
  H+  H100  1  0.62681821  0.35518694  0.78637883  1
  H+  H101  1  0.96381947  0.85070550  0.98415604  1
  H+  H102  1  0.89909926  0.17967588  0.79199796  1
  H+  H103  1  0.89997269  0.28389452  0.17493052  1
  H+  H104  1  0.64023565  0.53320803  0.64761664  1
  H+  H105  1  0.10820565  0.63259079  -0.01400377  1
  H+  H106  1  0.37199371  0.35698211  -0.00712215  1
  H+  H107  1  0.14657386  0.86117192  0.83734412  1
  H+  H108  1  0.87814036  0.36122472  0.65778502  1
  H+  H109  1  0.13698427  0.29206174  0.83468385  1
  H+  H110  1  0.87713457  0.10535598  0.49220495  1
  H+  H111  1  0.64194126  0.37787240  0.65365606  1
  H+  H112  1  0.61686314  0.21759236  0.49707251  1
  H+  H113  1  0.53743429  0.39677936  0.48786906  1
  H+  H114  1  0.15952185  0.00234465  0.83774677  1
  H+  H115  1  0.49005465  0.38424273  0.15980284  1
  H+  H116  1  0.10549980  0.25345225  0.99797187  1
  H+  H117  1  0.24037272  0.12529803  0.65427010  1
  H+  H118  1  0.35921595  0.88977910  0.00602247  1
  H+  H119  1  0.78679391  0.13961136  0.16704215  1
  H+  H120  1  0.35413704  0.38630030  0.82716472  1
  H+  H121  1  0.71279648  0.02237474  0.21641882  1
  H+  H122  1  0.52226857  0.13723829  0.49335693  1
  H+  H123  1  0.39891172  0.52085321  0.49545912  1
  H+  H124  1  0.36314414  0.64152961  0.66545163  1
  H+  H125  1  0.85552036  -0.02841257  0.51718559  1
  H+  H126  1  0.17615734  0.09658772  0.56023405  1
  H+  H127  1  0.77070941  0.65958881  0.48453239  1
  H+  H128  1  0.14147226  0.09768824  0.66048615  1
  H+  H129  1  0.58648231  0.43892855  0.71904360  1
  H+  H130  1  0.14353100  0.51503479  0.50779909  1
  H+  H131  1  0.12898939  0.61793842  0.82810217  1
  H+  H132  1  0.11225952  0.38476943  0.82553561  1
  H+  H133  1  0.52267872  0.42804357  0.81456118  1
  H+  H134  1  0.90088418  0.53469627  0.17278859  1
  H+  H135  1  0.58760186  0.88693885  0.67266115  1
  H+  H136  1  0.61844993  0.46325085  1.00411300  1
  H+  H137  1  0.69549117  0.63699880  0.86157248  1
  H+  H138  1  0.17047790  0.94222999  0.47544732  1
  H+  H139  1  0.30163988  0.26853191  0.87097225  1
  H+  H140  1  0.10793639  0.72607042  0.82802038  1
  H+  H141  1  0.86364039  0.13624794  0.01267880  1
  H+  H142  1  0.09958335  0.46766433  1.00084891  1
  H+  H143  1  0.71592668  0.86745021  0.86207190  1
  H+  H144  1  0.60729956  0.89693116  0.84388212  1
  H+  H145  1  0.48242091  0.11065883  -0.00549075  1
  H+  H146  1  0.48664824  0.37341089  0.32231553  1
  H+  H147  1  0.64666932  0.53363138  0.49809825  1
  H+  H148  1  0.89338986  0.69763238  0.80486954  1
  H+  H149  1  0.73923799  0.11535778  0.48942446  1
  H+  H150  1  0.79520817  0.62508508  0.81842079  1
  H+  H151  1  0.61858657  0.78101210  0.64120350  1
  H+  H152  1  0.72971127  0.37233158  0.65506579  1
  H+  H153  1  0.74946518  0.60139037  0.99694287  1
  H+  H154  1  0.36394692  0.59620237  0.35109164  1
  H+  H155  1  0.14187541  0.89791449  0.18158641  1
  H+  H156  1  0.29040596  0.13991389  0.16091038  1
  H+  H157  1  1.02317869  0.37971500  0.49186883  1
  H+  H158  1  0.37827023  0.91436463  0.49046591  1
  H+  H159  1  0.40038128  0.27647085  0.65307630  1
  H+  H160  1  0.04742272  0.11962233  0.29264074  1
  H+  H161  1  0.83727885  0.66088023  0.06674109  1
  H+  H162  1  0.88909953  0.60644937  0.64671040  1
  H+  H163  1  0.86997765  0.89043979  0.51701300  1
  H+  H164  1  0.38714238  0.31668917  0.90728244  1
  H+  H165  1  0.46592723  0.60690946  0.81628329  1
  H+  H166  1  -0.00250041  0.87902906  0.49766959  1
  H+  H167  1  0.26726916  0.81165992  0.32017211  1
  H+  H168  1  0.60993684  0.12405687  0.16928551  1
  H+  H169  1  0.61621570  0.98983936  0.83817729  1
  H+  H170  1  0.29101577  0.64294209  0.48344519  1
  H+  H171  1  0.77717500  0.38901469  0.02215504  1
  H+  H172  1  0.97494192  0.85670705  0.32258986  1
  H+  H173  1  0.65382282  0.58744939  0.98694601  1
  H+  H174  1  0.73285713  0.61979500  0.64701965  1
  H+  H175  1  0.11364183  0.14059751  0.48819356  1
  H+  H176  1  0.77657099  0.14091172  0.01274280  1
  H+  H177  1  0.23126421  0.85780941  0.65551216  1
  H+  H178  1  0.78117635  0.89400397  1.02005172  1
  H+  H179  1  0.52949085  0.39403486  0.66034634  1
  H+  H180  1  0.98951627  0.86349293  0.15141363  1
  H+  H181  1  0.36887918  0.82869091  0.38059416  1
  H+  H182  1  0.21355689  0.33036000  0.34554918  1
  H+  H183  1  0.37406854  0.23129208  0.33850513  1
  H+  H184  1  0.36983688  0.13744736  0.66341975  1
  H+  H185  1  0.11945701  0.70608832  0.49223077  1
  H+  H186  1  0.29091112  0.12314826  0.82465042  1
  H+  H187  1  0.12888157  0.85674046  -0.00348536  1
  H+  H188  1  0.11767325  0.47980744  0.16614876  1
  H+  H189  1  0.30218605  0.40981790  0.67031930  1
  H+  H190  1  0.85908529  0.99393250  0.16852804  1
  H+  H191  1  0.39358019  0.28053302  1.00224401  1
  H+  H192  1  0.84355117  0.13590105  0.66443686  1
  H+  H193  1  0.40039728  0.36605701  0.65372332  1
  H+  H194  1  0.71956315  0.13067226  0.32198430  1
  H+  H195  1  0.37406724  0.77088156  0.66203758  1
  H+  H196  1  0.88876504  0.52405817  0.99291534  1
  H+  H197  1  0.35832041  0.97557962  0.67262711  1
  H+  H198  1  0.15556450  0.03309219  0.17423761  1
  H+  H199  1  0.56219423  0.05991417  0.76318938  1
  H+  H200  1  0.87879359  0.26211627  0.50961936  1
  H+  H201  1  0.10492256  0.40274102  0.67864405  1
  H+  H202  1  0.02367169  0.13867921  0.48649423  1
  H+  H203  1  0.88140215  0.26927064  0.84181298  1
  H+  H204  1  0.28106986  0.14991130  0.49167083  1
  H+  H205  1  0.22720387  0.37835184  0.82563041  1
  H+  H206  1  0.62550177  0.51827304  0.17787107  1
  H+  H207  1  0.26330866  0.68957962  0.06470148  1
  H+  H208  1  0.37173745  0.21635151  0.82730879  1
  H+  H209  1  0.91819054  0.07858472  0.94450542  1
  H+  H210  1  0.04192997  0.88070878  0.67282536  1
  H+  H211  1  0.37337517  0.23738964  0.48977725  1
  H+  H212  1  0.71404209  0.87007913  0.17829094  1
  H+  H213  1  0.15962385  0.08784888  0.84775538  1
  H+  H214  1  0.40022276  0.11965123  0.99697934  1
  H+  H215  1  0.10540074  0.12181954  1.01032841  1
  H+  H216  1  0.38625316  0.79200393  1.00477833  1
  H+  H217  1  0.52365931  0.63365045  0.49515574  1
  H+  H218  1  0.62956158  0.40720649  0.33850002  1
  H+  H219  1  0.27363746  0.63687686  0.67199391  1
  H+  H220  1  0.12616442  0.88168328  0.33289414  1
  H+  H221  1  0.62005134  0.63948363  0.49570579  1
  H+  H222  1  0.33949431  0.17333468  0.39853662  1
  H+  H223  1  0.12955489  0.87962498  0.66996239  1
  H+  H224  1  0.58405961  0.64564157  0.03435749  1
  H+  H225  1  0.51063834  0.60837557  0.34959773  1
  H+  H226  1  0.86958967  0.63668492  0.15937392  1
  H+  H227  1  0.87754271  0.03017816  0.64676944  1
  H+  H228  1  0.61183794  0.08368318  0.50383363  1
  H+  H229  1  0.45896874  0.86266626  0.66829359  1
  H+  H230  1  0.86159208  0.46091018  0.82510512  1
  H+  H231  1  0.67334930  0.35231878  0.57047481  1
  H+  H232  1  0.14627493  0.03915819  0.49965180  1
  H+  H233  1  0.39304219  0.10930698  0.18502942  1
  H+  H234  1  0.66087110  0.28126710  0.16907543  1
  H+  H235  1  1.02362294  0.63563162  0.66979258  1
  H+  H236  1  0.87690654  0.76270845  0.98691022  1
  H+  H237  1  1.00669917  0.38366461  0.67556948  1
  H+  H238  1  0.52005212  0.38757365  0.99976044  1
  H+  H239  1  0.14268157  0.09865739  0.32088801  1
  H+  H240  1  0.14149110  0.36955879  0.19333569  1
  H+  H241  1  0.38346964  0.10975125  0.33563345  1
  H+  H242  1  0.33619987  0.45839775  0.98423516  1
  H+  H243  1  0.68923311  0.87992705  0.63291341  1
  H+  H244  1  0.39575786  0.60186827  0.97686670  1
  H+  H245  1  0.21658527  0.09305029  0.00754040  1
  H+  H246  1  0.88756904  1.01713599  0.00329060  1
  H+  H247  1  0.92002366  0.59679874  0.49725851  1
  H+  H248  1  0.39400717  0.12675038  0.50183009  1
  H+  H249  1  0.09068891  0.37472127  0.00686991  1
  H+  H250  1  0.62259551  0.78560318  0.86646258  1
  H+  H251  1  0.88381747  0.27198543  0.99422943  1
  H+  H252  1  0.60928017  0.23322962  0.65627674  1
  H+  H253  1  0.38002898  1.00915376  0.84384105  1
  H+  H254  1  -0.03761565  0.11853146  0.65278414  1
  H+  H255  1  0.13006673  0.97200052  0.32882484  1
  H+  H256  1  0.62428234  0.32964561  0.81412441  1
  H+  H257  1  0.60090307  0.43517216  0.42946698  1
  H+  H258  1  0.70263967  0.57399634  0.90709519  1
  H+  H259  1  0.38712813  0.77641336  0.20024942  1
  H+  H260  1  0.86312443  0.88799799  0.33306680  1
  H+  H261  1  0.94803439  0.09683797  0.33942752  1
  H+  H262  1  0.35987276  0.97800967  0.01077063  1
  H+  H263  1  0.86292651  0.38720844  0.00389903  1
  H+  H264  1  0.08566837  0.95497103  0.01965869  1
  H+  H265  1  0.60657568  0.67432020  -0.03259128  1
  H+  H266  1  0.90897479  0.77828503  0.12858824  1
  H+  H267  1  0.72372449  0.85113916  0.50852067  1
  H+  H268  1  0.37455378  0.23135051  0.17253064  1
  H+  H269  1  0.67365241  0.33377737  1.08512692  1
  H+  H270  1  0.86783199  0.37795000  0.81926048  1
  H+  H271  1  0.62388654  0.65254683  0.64737241  1
  H+  H272  1  0.29057351  0.89487152  0.39039365  1
  H+  H273  1  0.88742046  0.40016321  0.16179282  1
  H+  H274  1  0.48570785  0.62643476  0.20885603  1
  H+  H275  1  0.12948478  0.62070180  0.49288834  1
  H+  H276  1  0.16773216  0.53547362  0.33002929  1
  H+  H277  1  0.45987520  0.23336665  0.04730359  1
  H+  H278  1  0.21181016  0.59233410  0.97040259  1
  H+  H279  1  0.76987302  0.19888983  0.45295880  1
  H+  H280  1  0.11177950  0.38067434  0.47974946  1
  H+  H281  1  0.13146616  0.63188898  0.33876000  1
  H+  H282  1  0.64174575  0.12699939  0.00132523  1
  H+  H283  1  0.36689201  -0.02525875  0.16542076  1
  H+  H284  1  0.39252736  0.10906474  0.84146497  1
  H+  H285  1  0.17925442  0.33653335  0.96776897  1
  H+  H286  1  0.61082972  0.22602804  0.02818045  1
  H+  H287  1  0.85729322  0.66134932  0.47482982  1
  H+  H288  1  0.57207856  0.14888065  0.07420176  1
  H+  H289  1  0.87341710  0.26988853  0.65917496  1
  H+  H290  1  0.83468828  0.93110127  0.11224813  1
  H+  H291  1  0.40800860  0.58795312  0.29079471  1
  H+  H292  1  0.10377612  0.91237708  0.75486834  1
  H+  H293  1  0.82369402  0.67398265  0.38549139  1
  H+  H294  1  0.08000511  0.66913796  0.73061957  1
  H+  H295  1  0.80080475  0.87755936  0.67118006  1
  H+  H296  1  0.06385453  0.40890418  0.76652749  1
  H+  H297  1  0.92905597  0.57248949  0.59564401  1
  H+  H298  1  0.42141280  0.57973728  0.55586149  1
  H+  H299  1  0.12371425  0.72905938  0.17551071  1
  H+  H300  1  0.67265275  0.07682259  0.24196961  1
  H+  H301  1  0.39156662  0.03670648  0.49578434  1
  H+  H302  1  0.91589254  0.56906125  0.90122623  1
  H+  H303  1  0.58162253  0.15099784  0.75002960  1
  H+  H304  1  0.34562238  0.41438848  0.42642663  1
  H+  H305  1  0.33557568  0.91603841  0.10416524  1
  H+  H306  1  0.08191464  0.43775299  0.39670996  1
  H+  H307  1  0.36942590  0.38374092  0.33839915  1
  H+  H308  1  0.62832220  0.71870993  0.08731742  1
  H+  H309  1  0.23794205  0.86393323  0.18510853  1
  H+  H310  1  0.94390953  0.83336543  0.59363829  1
  H+  H311  1  0.63440506  0.35592682  1.02700213  1
  H+  H312  1  0.41432011  0.07421834  0.90883461  1
  H+  H313  1  0.63889994  0.83081328  0.54540180  1
  H+  H314  1  0.58138250  0.64416072  0.40010902  1
  H+  H315  1  0.52113626  0.12249963  0.17316438  1
  H+  H316  1  0.82846383  0.41037085  0.72915373  1
  H+  H317  1  0.58610716  0.71902414  0.08382879  1
  H+  H318  1  0.82101571  0.39766855  0.40438070  1
  H+  H319  1  0.35809867  0.46790119  0.34370198  1
  H+  H320  1  0.06513986  0.16370204  0.72668329  1
  H+  H321  1  0.83647656  0.65461832  0.71313729  1
  H+  H322  1  0.57845937  0.92024420  0.73877491  1
  H+  H323  1  0.21687203  0.44265540  0.61238225  1
  H+  H324  1  0.19240818  0.83430164  0.24976258  1
  H+  H325  1  0.41704823  0.58006148  0.88093953  1
  H+  H326  1  0.37423535  0.18520512  0.08446725  1
  H+  H327  1  0.43231629  0.34210962  0.55752740  1
  H+  H328  1  0.75267962  0.13347803  0.66522629  1
  H+  H329  1  0.62126603  0.82673959  0.33154683  1
  H+  H330  1  0.90780137  0.09451632  0.55766191  1
  H+  H331  1  0.16353834  0.81365456  0.56105445  1
  H+  H332  1  0.32852153  0.67722281  0.15103083  1
  H+  H333  1  0.82049681  0.16655209  0.75589177  1
  H+  H334  1  1.01434055  0.11984829  1.01326969  1
  H+  H335  1  0.10635499  0.92381489  0.42100579  1
  H+  H336  1  0.68032850  0.28170806  0.90781750  1
  H+  H337  1  0.80819539  0.91752740  0.78422770  1
  H+  H338  1  0.18163147  0.09318448  0.23185267  1
  H+  H339  1  0.32855880  0.92238856  0.76486845  1
  H+  H340  1  0.67367213  0.09933149  0.94163978  1
  H+  H341  1  0.34560230  0.43752401  0.13786973  1
  H+  H342  1  0.99215699  0.37077022  0.17594361  1
  H+  H343  1  0.34974174  0.17016827  0.72514459  1
  H+  H344  1  0.85941153  0.43077450  0.10152775  1
  H+  H345  1  0.07513099  0.14540421  0.09962537  1
  H+  H346  1  0.01964425  0.63308291  0.82821639  1
  H+  H347  1  0.28127719  0.39776696  0.03790647  1
  H+  H348  1  0.08861145  0.42005581  0.10602768  1
  H+  H349  1  0.41354450  0.07051330  0.24441101  1
  H+  H350  1  0.17329751  0.06241080  0.94321782  1
  H+  H351  1  0.58306769  0.17794644  0.39713633  1
  H+  H352  1  0.66243730  0.84628419  0.96100772  1
  H+  H353  1  0.41549751  0.32843146  0.26744758  1
  H+  H354  1  0.64788951  0.06751001  0.59656518  1
  H+  H355  1  0.56436762  0.92446558  0.10232687  1
  H+  H356  1  0.21914507  0.62172294  0.83046535  1
  H+  H357  1  0.67490479  0.59229981  0.55869124  1
  H+  H358  1  0.39125015  0.02683751  0.35110487  1
  H+  H359  1  0.15220445  0.57188557  0.91214749  1
  H+  H360  1  0.58012255  0.66698186  0.70448512  1
  H+  H361  1  0.60474546  0.97096657  0.16654567  1
  H+  H362  1  0.35687502  0.88513500  0.67795940  1
  H+  H363  1  0.17194066  0.83438213  0.90066758  1
  H+  H364  1  0.35589524  0.42456266  0.72932540  1
  H+  H365  1  0.55852606  0.89680551  0.37064610  1
  H+  H366  1  0.92283564  0.09298021  0.24134812  1
  H+  H367  1  0.84130612  0.17236951  0.10547507  1
  H+  H368  1  0.92806145  0.59568179  0.23162933  1
  H+  H369  1  0.40880254  0.07749634  0.59328240  1
  H+  H370  1  0.64623367  0.11618080  0.83994484  1
  H+  H371  1  0.78010384  0.63597057  0.16120248  1
  H+  H372  1  0.82013853  0.15859569  0.38881527  1
  H+  H373  1  0.10804133  0.19804539  0.33534486  1
  H+  H374  1  0.17219760  0.57653283  0.56708156  1
  H+  H375  1  0.12507631  0.92353579  0.11648303  1
  H+  H376  1  0.90427660  0.79463330  0.49471695  1
  H+  H377  1  0.55160714  0.41540087  0.10191412  1
  H+  H378  1  0.15335588  0.31539046  0.29018171  1
  H+  H379  1  0.91296173  0.32337508  0.56824248  1
  H+  H380  1  0.92087698  0.34324581  0.26705054  1
  H+  H381  1  0.91305749  0.32737850  0.90364713  1
  H+  H382  1  0.16748691  0.32252099  0.53752850  1
  H+  H383  1  0.23870367  0.11135834  0.32359050  1
  O2-  O384  1  0.07879914  0.14748385  0.14635221  1
  O2-  O385  1  0.08318919  0.16957766  0.47166194  1
  O2-  O386  1  0.06655282  0.18211258  0.80467459  1
  O2-  O387  1  0.09099379  0.41836929  0.15091958  1
  O2-  O388  1  0.08244356  0.41503125  0.47648247  1
  O2-  O389  1  0.06719382  0.40273290  0.81242067  1
  O2-  O390  1  0.09715214  0.67154474  0.15705928  1
  O2-  O391  1  0.09326570  0.64534203  0.47640379  1
  O2-  O392  1  0.07667926  0.66885231  0.80799309  1
  O2-  O393  1  0.11912792  0.93196076  0.15968643  1
  O2-  O394  1  0.11218312  0.93020783  0.46691322  1
  O2-  O395  1  0.10328244  0.91500757  0.80382655  1
  O2-  O396  1  0.35311114  0.16995556  0.15271506  1
  O2-  O397  1  0.34144938  0.17615934  0.47623535  1
  O2-  O398  1  0.35176761  0.15811257  0.81049828  1
  O2-  O399  1  0.34872535  0.43498793  0.18177391  1
  O2-  O400  1  0.34607299  0.41725891  0.47310187  1
  O2-  O401  1  0.33284875  0.41898200  0.80348937  1
  O2-  O402  1  0.34247227  0.68523729  0.19444130  1
  O2-  O403  1  0.34961680  0.67652676  0.46747935  1
  O2-  O404  1  0.34053042  0.68675359  0.84430688  1
  O2-  O405  1  0.33749818  0.91414812  0.14966183  1
  O2-  O406  1  0.33972729  0.93713947  0.47000382  1
  O2-  O407  1  0.33307183  0.91925307  0.81149105  1
  O2-  O408  1  0.57867784  0.15060478  0.15269257  1
  O2-  O409  1  0.58378104  0.16038929  0.47919145  1
  O2-  O410  1  0.57441409  0.11228523  0.78437722  1
  O2-  O411  1  0.54276889  0.43185074  0.14280534  1
  O2-  O412  1  0.60001418  0.42840108  0.47541033  1
  O2-  O413  1  0.56778145  0.47749296  0.79296767  1
  O2-  O414  1  0.57854276  0.66083596  0.19389752  1
  O2-  O415  1  0.58812834  0.66966817  0.48173883  1
  O2-  O416  1  0.55666761  0.62029834  0.77862354  1
  O2-  O417  1  0.56264424  0.91501641  0.14737073  1
  O2-  O418  1  0.59997833  0.96826340  0.50590807  1
  O2-  O419  1  0.58264421  0.92830476  0.82288935  1
  O2-  O420  1  0.84592250  0.17485113  0.15091467  1
  O2-  O421  1  0.79262600  0.16429297  0.47023153  1
  O2-  O422  1  0.84143369  0.17011345  0.79938520  1
  O2-  O423  1  0.85719400  0.43072925  0.14675433  1
  O2-  O424  1  0.82886540  0.40376492  0.49031590  1
  O2-  O425  1  0.83328092  0.40358900  0.80480981  1
  O2-  O426  1  0.83675071  0.66339286  0.14070165  1
  O2-  O427  1  0.83006477  0.69521698  0.46662544  1
  O2-  O428  1  0.84632611  0.64224564  0.79161047  1
  O2-  O429  1  0.81459242  0.93860150  0.15201369  1
  O2-  O430  1  0.82902178  0.90979483  0.52982177  1
  O2-  O431  1  0.81658049  0.91631429  0.82801115  1
  O2-  O432  1  0.17874167  0.09511198  0.18585712  1
  O2-  O433  1  0.17553982  0.09894050  0.51433091  1
  O2-  O434  1  0.19219990  0.06042392  0.85980830  1
  O2-  O435  1  0.16828201  0.34020355  0.21444396  1
  O2-  O436  1  0.17056910  0.32994161  0.49380593  1
  O2-  O437  1  0.16915656  0.35370397  0.84450390  1
  O2-  O438  1  0.15301906  0.57127741  0.19559162  1
  O2-  O439  1  0.17674859  0.57571442  0.52204600  1
  O2-  O440  1  0.15882092  0.58680449  0.84245749  1
  O2-  O441  1  0.18134660  0.83964751  0.20589315  1
  O2-  O442  1  0.15455278  0.80331195  0.51627347  1
  O2-  O443  1  0.17562493  0.83109614  0.85522785  1
  O2-  O444  1  0.41723775  0.07275116  0.19900462  1
  O2-  O445  1  0.42319526  0.09473055  0.51606632  1
  O2-  O446  1  0.41218960  0.07019957  0.86166840  1
  O2-  O447  1  0.38411750  0.31090729  0.20065490  1
  O2-  O448  1  0.43503105  0.34385498  0.51224676  1
  O2-  O449  1  0.36341468  0.30364993  0.86404591  1
  O2-  O450  1  0.42101429  0.60118957  0.21798293  1
  O2-  O451  1  0.43133438  0.58151483  0.51101309  1
  O2-  O452  1  0.40926667  0.58514769  0.83661613  1
  O2-  O453  1  0.41819904  0.84492584  0.19980222  1
  O2-  O454  1  0.43260894  0.89158759  0.52590169  1
  O2-  O455  1  0.42065086  0.84481529  0.81029438  1
  O2-  O456  1  0.68757474  0.05612859  0.20182256  1
  O2-  O457  1  0.64549961  0.05874712  0.52230902  1
  O2-  O458  1  0.67433562  0.08801292  0.86196868  1
  O2-  O459  1  0.68565976  0.34025499  0.15441088  1
  O2-  O460  1  0.67658465  0.35143479  0.52194893  1
  O2-  O461  1  0.71608282  0.26693786  0.88345777  1
  O2-  O462  1  0.66945138  0.57098975  0.19952822  1
  O2-  O463  1  0.67435567  0.59458431  0.51279885  1
  O2-  O464  1  0.70411035  0.58763384  0.86100368  1
  O2-  O465  1  0.65439953  0.83141821  0.19262200  1
  O2-  O466  1  0.65943092  0.82127709  0.50565720  1
  O2-  O467  1  0.65780493  0.84430569  0.88107913  1
  O2-  O468  1  0.93537435  0.10297423  0.19633610  1
  O2-  O469  1  0.90804545  0.08143407  0.51347818  1
  O2-  O470  1  0.91528264  0.08197519  0.86316097  1
  O2-  O471  1  0.93044990  0.34381099  0.19017224  1
  O2-  O472  1  0.91275673  0.32266525  0.52257880  1
  O2-  O473  1  0.91786396  0.32841905  0.85719707  1
  O2-  O474  1  0.92625598  0.59589768  0.18548098  1
  O2-  O475  1  0.94254941  0.56526784  0.51888840  1
  O2-  O476  1  0.92016898  0.56249503  0.85563282  1
  O2-  O477  1  0.94813047  0.83946959  0.11793009  1
  O2-  O478  1  0.93990688  0.85017150  0.51640515  1
  O2-  O479  1  0.90268427  0.83433527  0.85004790  1
  O2-  O480  1  0.18019281  0.07526833  0.30544287  1
  O2-  O481  1  0.18374173  0.09631682  0.63355686  1
  O2-  O482  1  0.16125396  0.06640588  0.98678252  1
  O2-  O483  1  0.15287881  0.29707575  0.33316991  1
  O2-  O484  1  0.19993695  0.40360485  0.64717234  1
  O2-  O485  1  0.11749964  0.30615540  0.97587748  1
  O2-  O486  1  0.21420388  0.59580886  0.31688717  1
  O2-  O487  1  0.16390888  0.58355982  0.64613586  1
  O2-  O488  1  0.15182816  0.56616791  0.95889919  1
  O2-  O489  1  0.21716944  0.82077255  0.32420032  1
  O2-  O490  1  0.17244069  0.82705640  0.63759439  1
  O2-  O491  1  0.16584476  0.83701398  0.97743868  1
  O2-  O492  1  0.41323004  0.07706747  0.32375031  1
  O2-  O493  1  0.40878988  0.07701886  0.63885953  1
  O2-  O494  1  0.42144547  0.08317703  0.97812892  1
  O2-  O495  1  0.42494349  0.33497982  0.31392215  1
  O2-  O496  1  0.43088880  0.33694045  0.63711918  1
  O2-  O497  1  0.40905632  0.33390951  0.97841912  1
  O2-  O498  1  0.40232954  0.57542079  0.33579309  1
  O2-  O499  1  0.41978135  0.58739303  0.63292975  1
  O2-  O500  1  0.41124842  0.56203073  0.95858788  1
  O2-  O501  1  0.35906471  0.79593017  0.34303084  1
  O2-  O502  1  0.40045574  0.83365584  0.65088119  1
  O2-  O503  1  0.41168965  0.84189712  0.97739499  1
  O2-  O504  1  0.66149045  0.10474577  0.30345997  1
  O2-  O505  1  0.65228827  0.07979316  0.64151141  1
  O2-  O506  1  0.67279095  0.09691249  0.98687947  1
  O2-  O507  1  0.65926288  0.35710133  0.32310651  1
  O2-  O508  1  0.67088157  0.34752723  0.63551249  1
  O2-  O509  1  0.66829450  0.32814570  1.03822917  1
  O2-  O510  1  0.64609007  0.53203022  0.32806016  1
  O2-  O511  1  0.67186384  0.59396640  0.63251248  1
  O2-  O512  1  0.69062857  0.56333115  0.97582478  1
  O2-  O513  1  0.66478445  0.81054707  0.34170095  1
  O2-  O514  1  0.62919259  0.83812004  0.62531300  1
  O2-  O515  1  0.67281895  0.86114499  1.00486829  1
  O2-  O516  1  0.89559516  0.07007853  0.31460121  1
  O2-  O517  1  0.90263954  0.09186984  0.63662421  1
  O2-  O518  1  0.91690995  0.07913129  0.98945518  1
  O2-  O519  1  0.91659967  0.34171729  0.31248921  1
  O2-  O520  1  0.90950304  0.33058629  0.64476394  1
  O2-  O521  1  0.91129537  0.33064546  0.97590018  1
  O2-  O522  1  0.93269609  0.59592062  0.30478618  1
  O2-  O523  1  0.92039712  0.57435746  0.64035053  1
  O2-  O524  1  0.91583681  0.58295831  0.97449737  1
  O2-  O525  1  0.91699831  0.83607294  0.30648811  1
  O2-  O526  1  0.93767774  0.82775358  0.63887929  1
  O2-  O527  1  0.90304875  0.82220019  0.96946051  1
  O2-  O528  1  0.07547419  0.14954292  0.02929054  1
  O2-  O529  1  0.07495158  0.13177722  0.33231336  1
  O2-  O530  1  0.06117634  0.14698910  0.68312022  1
  O2-  O531  1  0.06892467  0.41245043  0.02316322  1
  O2-  O532  1  0.08442273  0.45252834  0.35333350  1
  O2-  O533  1  0.06445918  0.41901725  0.69584566  1
  O2-  O534  1  0.07783104  0.66125747  0.00204750  1
  O2-  O535  1  0.10166427  0.66182793  0.35381494  1
  O2-  O536  1  0.08370125  0.66837133  0.68526890  1
  O2-  O537  1  0.05732020  0.89244304  0.02605910  1
  O2-  O538  1  0.09780208  0.91267667  0.34708626  1
  O2-  O539  1  0.10049040  0.90844114  0.69027268  1
  O2-  O540  1  0.39793174  0.20010467  0.04040047  1
  O2-  O541  1  0.34031848  0.17018655  0.35310299  1
  O2-  O542  1  0.34692226  0.17425484  0.68061497  1
  O2-  O543  1  0.30261937  0.39740590  -0.00280094  1
  O2-  O544  1  0.33374414  0.40651422  0.35646452  1
  O2-  O545  1  0.36107027  0.42819472  0.68385853  1
  O2-  O546  1  0.32408538  0.70694541  0.06661777  1
  O2-  O547  1  0.27677261  0.62512386  0.36245252  1
  O2-  O548  1  0.33440290  0.66962853  0.68533306  1
  O2-  O549  1  0.32863035  0.91779669  0.02562289  1
  O2-  O550  1  0.35067178  0.93192648  0.40397777  1
  O2-  O551  1  0.32835250  0.91840240  0.69333038  1
  O2-  O552  1  0.57601555  0.16063066  0.02945450  1
  O2-  O553  1  0.58036428  0.18652215  0.35283549  1
  O2-  O554  1  0.57655270  0.17283188  0.66983472  1
  O2-  O555  1  0.57514029  0.40667657  0.02107228  1
  O2-  O556  1  0.59645295  0.44432610  0.35409536  1
  O2-  O557  1  0.59094863  0.43067450  0.67509920  1
  O2-  O558  1  0.57591262  0.62275926  -0.00756325  1
  O2-  O559  1  0.57159149  0.62496606  0.35745538  1
  O2-  O560  1  0.59111525  0.68132263  0.66079918  1
  O2-  O561  1  0.57356999  0.93571642  0.02560748  1
  O2-  O562  1  0.54426065  0.86402201  0.33298668  1
  O2-  O563  1  0.56761304  0.92189856  0.69490229  1
  O2-  O564  1  0.83752488  0.17036584  0.02716740  1
  O2-  O565  1  0.82483915  0.16475157  0.34433557  1
  O2-  O566  1  0.81336424  0.16512365  0.68149911  1
  O2-  O567  1  0.84130540  0.42352243  0.02221862  1
  O2-  O568  1  0.80995161  0.39379448  0.36059959  1
  O2-  O569  1  0.82671617  0.41187063  0.68321956  1
  O2-  O570  1  0.83833831  0.66250280  0.02043959  1
  O2-  O571  1  0.82373530  0.65804813  0.34263349  1
  O2-  O572  1  0.83535451  0.66045550  0.66834859  1
  O2-  O573  1  0.84342075  0.91919132  0.02789763  1
  O2-  O574  1  0.83331177  0.91771058  0.34969502  1
  O2-  O575  1  0.85036674  0.92036006  0.64859305  1
