# generated using pymatgen
data_H2O
_symmetry_space_group_name_H-M   'P 1'
_cell_length_a   17.99430389
_cell_length_b   17.99823074
_cell_length_c   22.00811024
_cell_angle_alpha   90.00797919
_cell_angle_beta   89.98889953
_cell_angle_gamma   120.00062136
_symmetry_Int_Tables_number   1
_chemical_formula_structural   H2O
_chemical_formula_sum   'H384 O192'
_cell_volume   6172.70500739
_cell_formula_units_Z   192
loop_
 _symmetry_equiv_pos_site_id
 _symmetry_equiv_pos_as_xyz
  1  'x, y, z'
loop_
 _atom_type_symbol
 _atom_type_oxidation_number
  H+  1.0
  O2-  -2.0
loop_
 _atom_site_type_symbol
 _atom_site_label
 _atom_site_symmetry_multiplicity
 _atom_site_fract_x
 _atom_site_fract_y
 _atom_site_fract_z
 _atom_site_occupancy
  H+  H0  1  0.02612224  0.38100371  0.67586033  1
  H+  H1  1  0.96874851  0.61111087  0.33084019  1
  H+  H2  1  0.90157269  0.42335640  0.63197166  1
  H+  H3  1  0.02851991  0.89248625  0.16219388  1
  H+  H4  1  0.22431795  0.37073652  0.99851381  1
  H+  H5  1  0.89810978  0.77750689  0.17265175  1
  H+  H6  1  0.42200425  0.07073951  0.28824157  1
  H+  H7  1  0.61506428  0.86904782  0.31888802  1
  H+  H8  1  0.64924430  0.86737011  0.64660679  1
  H+  H9  1  0.79128135  0.89160746  0.35452805  1
  H+  H10  1  0.86765016  -0.02057077  0.82087531  1
  H+  H11  1  0.60501157  0.98081222  0.66489395  1
  H+  H12  1  0.23159760  0.11820256  0.84112800  1
  H+  H13  1  0.59116492  0.46609162  1.04723883  1
  H+  H14  1  0.08292376  0.14625772  0.66995312  1
  H+  H15  1  0.86919817  0.64153462  0.34367226  1
  H+  H16  1  0.88125676  0.01809123  0.15715531  1
  H+  H17  1  0.76059566  0.09695277  0.83960038  1
  H+  H18  1  0.87142582  0.47932449  0.84300162  1
  H+  H19  1  0.65953944  0.57554315  0.36952101  1
  H+  H20  1  0.13016061  0.65072179  1.00327865  1
  H+  H21  1  0.36032931  0.62997565  0.66897782  1
  H+  H22  1  0.43526586  0.05508754  0.83389687  1
  H+  H23  1  0.13878164  0.10969989  0.33458556  1
  H+  H24  1  0.40184737  0.14449471  0.68134136  1
  H+  H25  1  0.86305214  0.15206606  0.35947198  1
  H+  H26  1  0.11088422  0.73025319  0.16400130  1
  H+  H27  1  0.76403799  0.14222286  0.16185034  1
  H+  H28  1  0.24980527  0.79283887  0.11941279  1
  H+  H29  1  0.87305607  0.54104803  0.67061224  1
  H+  H30  1  0.15814701  0.06924762  0.45054589  1
  H+  H31  1  0.38080731  0.51903897  0.65938787  1
  H+  H32  1  0.74439718  0.11861417  1.00756037  1
  H+  H33  1  0.45303189  0.11261892  -0.01770899  1
  H+  H34  1  0.98083591  0.84966307  0.51764029  1
  H+  H35  1  0.40014218  0.77331249  0.50241607  1
  H+  H36  1  0.36008750  0.94791996  0.74620901  1
  H+  H37  1  0.40809331  0.56956450  0.26934513  1
  H+  H38  1  0.60366757  0.92320195  0.15062261  1
  H+  H39  1  0.37032415  0.73557992  0.99741316  1
  H+  H40  1  0.14192097  0.35722704  0.33156349  1
  H+  H41  1  0.15604484  0.82073117  0.28092708  1
  H+  H42  1  0.34836697  0.12985200  0.00408219  1
  H+  H43  1  0.63073535  0.27554273  0.18150917  1
  H+  H44  1  0.21175024  0.85248335  0.18417731  1
  H+  H45  1  0.54712095  0.37671911  0.50363935  1
  H+  H46  1  0.17113989  0.08508086  0.68941047  1
  H+  H47  1  0.62961397  0.02824831  0.33488409  1
  H+  H48  1  0.13573696  0.28191881  0.99657457  1
  H+  H49  1  0.76840644  0.12986470  0.49207964  1
  H+  H50  1  0.92402365  0.83641577  0.60071827  1
  H+  H51  1  0.14149560  0.61957954  0.18018953  1
  H+  H52  1  0.65324817  0.84762528  0.37251932  1
  H+  H53  1  0.62868098  0.00988465  0.98955606  1
  H+  H54  1  1.03611024  0.63718511  1.00776588  1
  H+  H55  1  0.86739179  0.13526385  0.49365534  1
  H+  H56  1  0.38376826  0.86083199  0.98237561  1
  H+  H57  1  0.88337405  0.36270193  0.17622901  1
  H+  H58  1  0.84299842  0.21151610  0.00480757  1
  H+  H59  1  0.50366876  0.35889336  0.34443724  1
  H+  H60  1  0.82882206  0.11775457  0.67640031  1
  H+  H61  1  0.62366863  0.70753958  0.18587390  1
  H+  H62  1  0.31634922  0.89372000  0.41764429  1
  H+  H63  1  0.27574033  0.88720240  -0.00159996  1
  H+  H64  1  0.47353348  0.34091278  -0.00374449  1
  H+  H65  1  0.61912254  0.88256705  -0.01817623  1
  H+  H66  1  1.03588681  0.14096261  0.35920706  1
  H+  H67  1  0.12065349  0.76030903  0.34182163  1
  H+  H68  1  0.40525672  0.78336130  0.82017048  1
  H+  H69  1  0.09591265  0.48558648  0.49354436  1
  H+  H70  1  0.50003772  0.14279560  0.32608301  1
  H+  H71  1  0.76299058  0.66424094  0.00132417  1
  H+  H72  1  0.35929558  0.47028636  0.33952996  1
  H+  H73  1  0.13810638  0.36192874  0.18103132  1
  H+  H74  1  0.11205590  0.97141546  0.34640768  1
  H+  H75  1  0.38962126  0.85919546  0.65941587  1
  H+  H76  1  0.13889867  1.02636206  0.17577646  1
  H+  H77  1  0.41224832  0.29325306  0.51705139  1
  H+  H78  1  0.53675552  0.13144634  0.50294424  1
  H+  H79  1  0.84856808  0.13136094  0.15088463  1
  H+  H80  1  0.10118046  0.24107563  0.67476018  1
  H+  H81  1  0.02717334  0.38395363  0.83318568  1
  H+  H82  1  0.98238928  0.86547485  0.32854526  1
  H+  H83  1  0.23139353  0.36249160  0.84293995  1
  H+  H84  1  0.13337515  0.52171284  0.66134745  1
  H+  H85  1  0.62546870  0.65603930  -0.01350169  1
  H+  H86  1  0.73261747  0.88238580  0.82774704  1
  H+  H87  1  0.92347316  0.31121577  0.59163577  1
  H+  H88  1  0.38141001  1.01814703  0.14657959  1
  H+  H89  1  0.81019053  0.15931107  0.07513917  1
  H+  H90  1  0.78399842  0.38890606  0.83884314  1
  H+  H91  1  0.96773282  0.26406568  0.61881461  1
  H+  H92  1  0.14435807  0.52249428  0.83855695  1
  H+  H93  1  0.52778871  0.37861504  0.68561532  1
  H+  H94  1  0.79074532  0.66308662  0.68966972  1
  H+  H95  1  0.86253468  0.39989662  0.61227547  1
  H+  H96  1  0.96843707  0.61787244  0.65983719  1
  H+  H97  1  0.88521081  0.11168979  -0.00370142  1
  H+  H98  1  0.63977444  0.60797253  0.66178186  1
  H+  H99  1  0.65118020  0.10844395  0.50359088  1
  H+  H100  1  0.14470115  0.61008810  0.82869193  1
  H+  H101  1  0.44205838  -0.05800738  0.73560330  1
  H+  H102  1  0.86491661  0.47306378  0.15977959  1
  H+  H103  1  0.27212778  0.62262176  0.81925937  1
  H+  H104  1  0.72618833  0.36124564  0.17123944  1
  H+  H105  1  0.72923073  0.34532938  0.99376799  1
  H+  H106  1  0.52348083  0.19035551  0.78899390  1
  H+  H107  1  0.02624307  0.13998326  0.00456277  1
  H+  H108  1  0.95135969  0.11568413  0.66317987  1
  H+  H109  1  0.47091250  0.85768884  -0.02666574  1
  H+  H110  1  0.14225311  0.12119419  0.83911860  1
  H+  H111  1  0.75390589  0.64164472  0.34602531  1
  H+  H112  1  0.37957454  0.51020041  0.17494127  1
  H+  H113  1  0.47312415  0.62336965  0.98459237  1
  H+  H114  1  0.11522700  0.13519561  0.15835246  1
  H+  H115  1  0.89099658  0.87574359  0.66233262  1
  H+  H116  1  0.47084897  0.59676874  0.18092785  1
  H+  H117  1  0.61138498  0.21096456  -0.01158457  1
  H+  H118  1  0.47385966  0.35878931  0.18281942  1
  H+  H119  1  0.04134599  0.64579710  0.41118491  1
  H+  H120  1  0.63577835  0.13564999  0.19453219  1
  H+  H121  1  0.09039681  0.62717180  0.35582795  1
  H+  H122  1  0.38809911  0.51464436  0.82692267  1
  H+  H123  1  0.79126728  0.64046392  0.15578149  1
  H+  H124  1  0.62517108  0.09889202  0.98222546  1
  H+  H125  1  0.69892631  0.12811811  0.67640293  1
  H+  H126  1  0.13207652  0.82887870  0.53053327  1
  H+  H127  1  0.39663629  0.10147622  0.51118254  1
  H+  H128  1  0.42520460  0.83063244  0.56215151  1
  H+  H129  1  0.64112793  0.79894557  0.83137000  1
  H+  H130  1  0.13428548  0.29889872  0.50935909  1
  H+  H131  1  0.91558286  0.58272162  0.26790183  1
  H+  H132  1  0.98296272  0.11745501  0.84137426  1
  H+  H133  1  1.04537108  0.42548780  1.01482498  1
  H+  H134  1  0.13057012  0.86538967  0.18439858  1
  H+  H135  1  0.87627494  0.36823952  0.32977328  1
  H+  H136  1  0.11004692  0.88090158  0.34654109  1
  H+  H137  1  0.88616321  0.86481077  0.83994999  1
  H+  H138  1  0.58642680  0.72858754  0.34236241  1
  H+  H139  1  0.33525365  0.66324885  0.10535004  1
  H+  H140  1  0.88185215  0.35588762  0.50283227  1
  H+  H141  1  0.50495318  0.89456492  0.34259949  1
  H+  H142  1  0.37563982  0.76854995  0.33105044  1
  H+  H143  1  0.61731747  0.36913887  0.68243646  1
  H+  H144  1  0.26944268  0.62981366  0.66907160  1
  H+  H145  1  0.33371964  0.84258789  0.15831242  1
  H+  H146  1  0.67286199  0.66954405  0.50671490  1
  H+  H147  1  0.46748482  0.60652603  0.32946580  1
  H+  H148  1  0.10734566  0.46050235  0.34049225  1
  H+  H149  1  0.85071510  0.67733432  0.40730694  1
  H+  H150  1  0.38486338  0.76310408  0.18182795  1
  H+  H151  1  0.12221575  0.40604488  0.00224047  1
  H+  H152  1  0.12533131  0.22886835  0.34672110  1
  H+  H153  1  0.35012104  0.22191121  1.00312323  1
  H+  H154  1  0.77264493  0.87848053  0.66513639  1
  H+  H155  1  0.11636144  0.17452361  0.50645613  1
  H+  H156  1  0.75917881  0.40080920  0.68976726  1
  H+  H157  1  0.11398225  0.63756236  0.66760073  1
  H+  H158  1  0.54560585  0.12591147  0.66965916  1
  H+  H159  1  0.08983290  0.16746180  0.06248980  1
  H+  H160  1  0.30157211  0.15825698  0.49584244  1
  H+  H161  1  0.41429306  0.62685301  0.50696475  1
  H+  H162  1  0.62427488  0.46230616  0.02789668  1
  H+  H163  1  0.28090333  0.87372413  0.50890743  1
  H+  H164  1  0.27360449  0.38150216  0.67409798  1
  H+  H165  1  0.87795528  0.88845025  0.34800979  1
  H+  H166  1  0.87054434  0.63647076  0.49233410  1
  H+  H167  1  0.65928276  0.02282211  0.49839410  1
  H+  H168  1  0.58116230  0.30996005  1.01034344  1
  H+  H169  1  0.57730648  0.92049927  0.39396335  1
  H+  H170  1  0.64089824  0.35747380  0.49989199  1
  H+  H171  1  0.11781008  0.23165457  0.83189120  1
  H+  H172  1  0.11948974  0.94633140  0.68195600  1
  H+  H173  1  0.89832137  0.61193975  0.16726689  1
  H+  H174  1  0.39636812  0.26995744  0.84006584  1
  H+  H175  1  0.40691783  0.27425992  0.67585614  1
  H+  H176  1  0.36655632  0.61594039  0.81488111  1
  H+  H177  1  0.56787256  0.69653764  0.52457308  1
  H+  H178  1  0.14181875  0.37382920  0.66724477  1
  H+  H179  1  0.86799973  0.47500590  0.49031615  1
  H+  H180  1  0.84811617  0.21197276  0.67704172  1
  H+  H181  1  0.38296262  0.53346497  1.00063428  1
  H+  H182  1  0.13555032  0.12555247  -0.01178501  1
  H+  H183  1  0.64723646  0.36656709  0.84219210  1
  H+  H184  1  0.46046207  0.86226199  0.18342045  1
  H+  H185  1  0.66438527  0.80837711  0.59941704  1
  H+  H186  1  0.16947524  0.63727877  0.50959809  1
  H+  H187  1  0.22330101  0.38762731  0.50791408  1
  H+  H188  1  0.38579611  0.26849585  0.17597070  1
  H+  H189  1  0.64251878  0.65047973  0.83112243  1
  H+  H190  1  0.86755072  0.36473904  1.01058853  1
  H+  H191  1  0.68430290  0.61460933  0.55577362  1
  H+  H192  1  0.82204660  0.15387108  0.76725827  1
  H+  H193  1  0.39370951  1.01107321  0.51041689  1
  H+  H194  1  0.02511965  0.56635703  0.78214734  1
  H+  H195  1  0.87199442  0.65081849  0.68901772  1
  H+  H196  1  0.65035602  0.26427973  0.50859226  1
  H+  H197  1  0.44497152  0.39489469  0.52916057  1
  H+  H198  1  0.38004082  0.35738007  0.33283538  1
  H+  H199  1  0.37039534  0.87400411  0.49634942  1
  H+  H200  1  0.62535471  0.23311872  0.34917980  1
  H+  H201  1  0.89030621  0.02629649  0.51125200  1
  H+  H202  1  0.40770707  0.32459886  0.27293690  1
  H+  H203  1  0.96506741  0.29851496  0.98083049  1
  H+  H204  1  0.97328750  0.12301398  0.51003932  1
  H+  H205  1  0.38209383  0.76732524  0.65680825  1
  H+  H206  1  0.36162031  0.39634182  0.00994496  1
  H+  H207  1  0.11734264  0.38588270  0.83173614  1
  H+  H208  1  0.48222814  0.42515301  0.96964576  1
  H+  H209  1  0.11603021  0.72525084  0.65696104  1
  H+  H210  1  0.41109033  0.53893482  0.50590519  1
  H+  H211  1  0.64180250  0.25810529  0.66208548  1
  H+  H212  1  0.88924317  0.76579261  0.51814525  1
  H+  H213  1  0.38076589  0.10503789  0.13930401  1
  H+  H214  1  0.10919267  0.97396613  0.82590440  1
  H+  H215  1  0.61742741  0.14058907  0.35073025  1
  H+  H216  1  0.62260523  0.48183190  0.83227490  1
  H+  H217  1  0.64182990  0.60477914  0.20467133  1
  H+  H218  1  0.14239940  0.87019305  -0.00494479  1
  H+  H219  1  0.63152005  0.78612407  0.49341128  1
  H+  H220  1  0.89013063  0.58018965  1.00738033  1
  H+  H221  1  0.87119003  0.13358219  0.82394267  1
  H+  H222  1  0.13790545  0.27243512  0.17319189  1
  H+  H223  1  0.12017261  0.94066941  0.49565574  1
  H+  H224  1  0.24676880  0.86239134  0.35378269  1
  H+  H225  1  0.53363847  0.39005651  0.82872026  1
  H+  H226  1  0.28810752  0.62686898  0.49462274  1
  H+  H227  1  0.27233725  0.13671357  0.16292860  1
  H+  H228  1  0.63293428  0.35307058  0.32788213  1
  H+  H229  1  0.36480996  0.38376169  0.67716206  1
  H+  H230  1  0.34371236  0.86729359  0.34980103  1
  H+  H231  1  0.37019497  0.02361023  0.99622178  1
  H+  H232  1  0.07390707  0.88537279  0.43930409  1
  H+  H233  1  0.89403827  0.77756988  0.32931721  1
  H+  H234  1  0.77344275  0.38975622  0.33974562  1
  H+  H235  1  0.85480569  0.67047272  -0.01221029  1
  H+  H236  1  0.52981482  0.88584989  0.65916413  1
  H+  H237  1  0.87541423  0.27001671  0.32691529  1
  H+  H238  1  0.23233538  0.12618337  -0.00989671  1
  H+  H239  1  0.64239647  0.51223392  0.20512304  1
  H+  H240  1  0.63600864  0.93428091  0.82789247  1
  H+  H241  1  0.11582535  0.47453429  0.17848516  1
  H+  H242  1  0.53152496  0.16275820  0.23055000  1
  H+  H243  1  0.19942559  0.60048610  0.34021300  1
  H+  H244  1  0.36709527  0.38086472  0.82582465  1
  H+  H245  1  0.65101411  0.56867794  0.99854237  1
  H+  H246  1  0.33394206  0.38370584  0.48878475  1
  H+  H247  1  0.30986658  0.13400239  0.68401178  1
  H+  H248  1  0.35974997  0.18934604  0.43882915  1
  H+  H249  1  0.59170030  0.44526448  0.34733122  1
  H+  H250  1  0.35525698  0.12283925  0.83516742  1
  H+  H251  1  0.11097406  0.40498443  0.50081996  1
  H+  H252  1  0.02003160  0.88581532  0.83123689  1
  H+  H253  1  0.57509363  0.62988810  0.73939768  1
  H+  H254  1  0.88874057  0.61829812  0.85244866  1
  H+  H255  1  0.63356282  0.04776962  0.18709392  1
  H+  H256  1  0.15631034  0.54480487  -0.01444624  1
  H+  H257  1  0.88875639  0.36048151  0.84549695  1
  H+  H258  1  0.87533465  0.88778260  0.15968784  1
  H+  H259  1  0.88400418  0.27419163  0.17746620  1
  H+  H260  1  0.42169924  0.02976923  0.67073566  1
  H+  H261  1  0.30468830  0.65200280  0.28619945  1
  H+  H262  1  0.89816986  0.88566501  0.99471544  1
  H+  H263  1  0.60888121  0.65481174  0.34629220  1
  H+  H264  1  0.14409217  0.87125398  0.84141671  1
  H+  H265  1  0.68164145  0.55219014  0.64649377  1
  H+  H266  1  0.89247720  0.79527904  0.99722771  1
  H+  H267  1  0.89880874  0.02521210  0.36210852  1
  H+  H268  1  0.68302027  0.72396054  0.78326828  1
  H+  H269  1  0.83817249  0.66632527  0.78038524  1
  H+  H270  1  0.77620563  0.89517537  0.00132947  1
  H+  H271  1  0.14773985  0.85725320  0.62536345  1
  H+  H272  1  0.36829833  0.14322154  0.33931418  1
  H+  H273  1  -0.01634407  0.86546698  0.66760026  1
  H+  H274  1  0.62363340  0.39288621  0.17461879  1
  H+  H275  1  0.27207730  0.93481764  0.82687291  1
  H+  H276  1  0.02956650  0.89704950  0.00865776  1
  H+  H277  1  0.14134889  0.78058438  0.99247526  1
  H+  H278  1  0.77229912  0.14151246  0.33768103  1
  H+  H279  1  0.64732569  0.83293332  0.18618034  1
  H+  H280  1  0.51095283  0.59937865  0.68315334  1
  H+  H281  1  1.02667696  0.13527251  0.14893196  1
  H+  H282  1  0.02826010  0.38662656  0.17614759  1
  H+  H283  1  0.26831027  0.37991350  0.16454541  1
  H+  H284  1  0.85733967  0.97159914  0.66843260  1
  H+  H285  1  0.64536518  0.78638785  0.97027965  1
  H+  H286  1  0.98437067  0.60873180  0.17204251  1
  H+  H287  1  0.78416289  0.87936202  0.16654262  1
  H+  H288  1  0.90920186  0.30672444  0.92809494  1
  H+  H289  1  0.09492548  0.67612916  0.10113608  1
  H+  H290  1  0.11936584  0.98260049  0.00756330  1
  H+  H291  1  0.91868051  0.08532155  0.89831294  1
  H+  H292  1  0.83481161  0.40822082  0.10247064  1
  H+  H293  1  0.58628056  0.16016491  0.76885135  1
  H+  H294  1  0.92293822  0.83471882  0.23403063  1
  H+  H295  1  0.66643991  0.32418483  0.60644272  1
  H+  H296  1  0.43950748  0.33737240  0.61825311  1
  H+  H297  1  0.67206989  0.59412548  0.90584419  1
  H+  H298  1  0.51129589  0.13447609  0.16331018  1
  H+  H299  1  0.32242170  0.16945362  0.10008977  1
  H+  H300  1  0.91509910  0.08747934  0.20866259  1
  H+  H301  1  0.22726114  0.61452918  0.18321033  1
  H+  H302  1  0.22485494  0.10502842  0.33152701  1
  H+  H303  1  0.55646802  0.96065175  0.11378368  1
  H+  H304  1  0.67712719  0.58180404  0.26967514  1
  H+  H305  1  0.58546523  0.38501483  0.43534900  1
  H+  H306  1  0.82939265  0.91687534  0.06506472  1
  H+  H307  1  0.52639509  0.29238369  0.07056378  1
  H+  H308  1  0.16887682  0.32505074  0.27073280  1
  H+  H309  1  0.73387082  0.61164667  0.84857875  1
  H+  H310  1  0.07980614  0.65766295  0.75734464  1
  H+  H311  1  0.39906399  0.83137786  0.27537349  1
  H+  H312  1  0.68423346  0.05913571  0.90266615  1
  H+  H313  1  0.33105878  0.90350559  0.05728785  1
  H+  H314  1  0.78408103  0.64722582  0.49284191  1
  H+  H315  1  0.33198064  0.40755584  0.76741552  1
  H+  H316  1  0.16579135  0.08446734  0.23554175  1
  H+  H317  1  0.35856137  0.62563366  0.32687365  1
  H+  H318  1  0.36322061  0.62765188  0.16254713  1
  H+  H319  1  0.37472316  0.63516817  0.99940844  1
  H+  H320  1  0.59974963  0.44377096  0.12517121  1
  H+  H321  1  0.58348771  0.69667677  0.03545571  1
  H+  H322  1  0.27036994  0.37905727  0.33999421  1
  H+  H323  1  0.06976553  0.59162561  0.51514754  1
  H+  H324  1  0.14812155  0.58108603  0.27914058  1
  H+  H325  1  0.41300928  0.83998249  0.87472344  1
  H+  H326  1  0.83649241  0.91810239  0.76166305  1
  H+  H327  1  0.74295739  0.36185319  0.50495829  1
  H+  H328  1  0.32950701  0.65143400  0.75253253  1
  H+  H329  1  0.86509424  0.72514757  0.84042480  1
  H+  H330  1  0.67409648  0.32587275  0.93165582  1
  H+  H331  1  0.89958320  0.08281410  0.60086029  1
  H+  H332  1  0.16767438  0.34573533  0.60533271  1
  H+  H333  1  0.97686263  0.61555760  0.84778535  1
  H+  H334  1  0.91975552  0.84526843  0.90235604  1
  H+  H335  1  0.15184458  0.57983832  0.60148539  1
  H+  H336  1  0.14538476  0.06870595  0.52039436  1
  H+  H337  1  0.60071581  0.64269032  0.13016808  1
  H+  H338  1  0.84167037  0.67599013  0.09364776  1
  H+  H339  1  0.91763537  0.09232309  0.31130991  1
  H+  H340  1  0.56746262  0.87898397  0.04031363  1
  H+  H341  1  0.08107601  0.41694594  0.73804570  1
  H+  H342  1  0.34623369  0.16513711  0.77527668  1
  H+  H343  1  0.08181268  0.17512424  0.77145939  1
  H+  H344  1  0.66789718  0.09485250  0.27950970  1
  H+  H345  1  0.27849981  0.64471344  -0.00277490  1
  H+  H346  1  0.43537266  0.07728031  0.60573250  1
  H+  H347  1  0.35493187  0.22211252  0.34293366  1
  H+  H348  1  0.33144642  0.65616456  0.43098814  1
  H+  H349  1  0.18658667  0.85407836  0.89858619  1
  H+  H350  1  0.67209484  0.33428063  0.26849476  1
  H+  H351  1  0.59186057  0.16664554  0.44187894  1
  H+  H352  1  0.08859856  0.41081856  0.40202413  1
  H+  H353  1  0.32600383  0.42490827  0.42831822  1
  H+  H354  1  0.19377428  0.06556414  0.62528680  1
  H+  H355  1  0.86309955  0.47970549  0.33988456  1
  H+  H356  1  0.17165356  0.33779092  0.90287189  1
  H+  H357  1  0.86698927  0.22855029  0.48956568  1
  H+  H358  1  0.42744835  0.33660625  0.89547942  1
  H+  H359  1  0.88867427  0.02601750  0.99592925  1
  H+  H360  1  0.87851167  0.89548587  0.51232793  1
  H+  H361  1  0.35791649  0.37973099  0.16399525  1
  H+  H362  1  0.92174222  0.57447195  0.94007390  1
  H+  H363  1  0.09137861  0.18717893  0.43934571  1
  H+  H364  1  0.55020862  0.87508492  0.48703818  1
  H+  H365  1  0.47374568  0.60696235  0.82132307  1
  H+  H366  1  0.88344422  0.26827354  0.83743333  1
  H+  H367  1  0.81980317  0.43608085  0.74749206  1
  H+  H368  1  0.42210958  0.58452838  0.60286035  1
  H+  H369  1  0.33043886  0.41927487  0.07117185  1
  H+  H370  1  0.07462549  0.88848588  0.73785399  1
  H+  H371  1  0.64065912  0.27504948  0.83783106  1
  H+  H372  1  0.84870610  0.91988056  0.45183001  1
  H+  H373  1  0.56460227  0.14561237  0.04195273  1
  H+  H374  1  0.82988031  0.41135541  0.43362108  1
  H+  H375  1  0.68295097  0.85653177  0.91659206  1
  H+  H376  1  0.59735525  0.41424373  0.74601250  1
  H+  H377  1  0.18624873  0.60367814  0.92562350  1
  H+  H378  1  0.87284838  0.45545512  0.00604807  1
  H+  H379  1  0.09085900  0.92234941  0.10408763  1
  H+  H380  1  0.90785828  0.33637335  0.26649726  1
  H+  H381  1  0.16982219  0.09568749  0.92243147  1
  H+  H382  1  0.67450523  0.82232761  0.25158578  1
  H+  H383  1  -0.02606683  0.36258709  0.49906240  1
  O2-  O384  1  0.08826172  0.16619033  0.13820624  1
  O2-  O385  1  0.08209824  0.19381977  0.48446029  1
  O2-  O386  1  0.08735660  0.17093040  0.81608703  1
  O2-  O387  1  0.08924757  0.41450115  0.16443211  1
  O2-  O388  1  0.07523238  0.42552423  0.47993927  1
  O2-  O389  1  0.08683368  0.41652841  0.81723386  1
  O2-  O390  1  0.09255831  0.67231035  0.14659258  1
  O2-  O391  1  0.00771462  0.61451163  0.48141710  1
  O2-  O392  1  0.06440036  0.62438691  0.79672216  1
  O2-  O393  1  0.09023082  0.92282959  0.14953669  1
  O2-  O394  1  0.07794565  0.88147929  0.48442365  1
  O2-  O395  1  0.07939781  0.91315267  0.81349030  1
  O2-  O396  1  0.33131977  0.16745971  0.14447324  1
  O2-  O397  1  0.36239859  0.19338730  0.48421307  1
  O2-  O398  1  0.33598147  0.16335000  0.81996600  1
  O2-  O399  1  0.32943513  0.41126408  0.14844155  1
  O2-  O400  1  0.32532179  0.43010736  0.47463466  1
  O2-  O401  1  0.33465136  0.40989195  0.81300864  1
  O2-  O402  1  0.33625313  0.66260439  0.15022456  1
  O2-  O403  1  0.34306322  0.66346569  0.47466112  1
  O2-  O404  1  0.33229600  0.64776925  0.80045037  1
  O2-  O405  1  0.29080087  0.85036792  0.13404824  1
  O2-  O406  1  0.33471656  0.90140261  0.48402302  1
  O2-  O407  1  0.31999816  0.98456611  0.80128529  1
  O2-  O408  1  0.56168244  0.16859558  0.19140239  1
  O2-  O409  1  0.59687141  0.16541128  0.48745314  1
  O2-  O410  1  0.56388903  0.17448179  0.80561480  1
  O2-  O411  1  0.59517418  0.42977949  0.16878570  1
  O2-  O412  1  0.60015390  0.39196108  0.47961541  1
  O2-  O413  1  0.59507306  0.42179154  0.81474059  1
  O2-  O414  1  0.59295302  0.64478522  0.17402567  1
  O2-  O415  1  0.62844496  0.74147414  0.52333754  1
  O2-  O416  1  0.63090170  0.69220334  0.80752961  1
  O2-  O417  1  0.56408345  0.94512760  0.15496672  1
  O2-  O418  1  0.60336373  0.91317032  0.46384302  1
  O2-  O419  1  0.63332214  0.98889417  0.82804688  1
  O2-  O420  1  0.82018065  0.16523242  0.13907343  1
  O2-  O421  1  0.83641843  0.16553822  0.47605359  1
  O2-  O422  1  0.82957555  0.15475068  0.81357095  1
  O2-  O423  1  0.83114627  0.41097834  0.14764723  1
  O2-  O424  1  0.83081952  0.41067461  0.47906952  1
  O2-  O425  1  0.84591973  0.41957173  0.82707081  1
  O2-  O426  1  0.84905317  0.67217978  0.13875320  1
  O2-  O427  1  0.84674746  0.67398170  0.47997417  1
  O2-  O428  1  0.83680352  0.66378566  0.82779097  1
  O2-  O429  1  0.83940512  0.91320311  0.14518594  1
  O2-  O430  1  0.85523180  0.93088735  0.49600680  1
  O2-  O431  1  0.83477013  0.91864012  0.80728283  1
  O2-  O432  1  0.16803873  0.08747021  0.19027193  1
  O2-  O433  1  0.18298672  0.06634903  0.48943726  1
  O2-  O434  1  0.17104814  0.09086825  0.85747018  1
  O2-  O435  1  0.16990583  0.33021697  0.19201120  1
  O2-  O436  1  0.16571075  0.35744594  0.52783337  1
  O2-  O437  1  0.17044424  0.33437050  0.85741166  1
  O2-  O438  1  0.16936083  0.59070228  0.20131553  1
  O2-  O439  1  0.12223630  0.58497794  0.52674602  1
  O2-  O440  1  0.17915682  0.58583912  0.84710952  1
  O2-  O441  1  0.15409083  0.83003638  0.20253216  1
  O2-  O442  1  0.18462034  0.83143581  0.54708961  1
  O2-  O443  1  0.19028939  0.85955693  0.85371707  1
  O2-  O444  1  0.41539251  0.07657964  0.13128651  1
  O2-  O445  1  0.42610024  0.07123730  0.52596755  1
  O2-  O446  1  0.37845959  0.04387642  0.84767112  1
  O2-  O447  1  0.41270320  0.32750074  0.19443268  1
  O2-  O448  1  0.45358949  0.34710012  0.53995933  1
  O2-  O449  1  0.42734594  0.33271534  0.85043184  1
  O2-  O450  1  0.40951593  0.57136232  0.19083953  1
  O2-  O451  1  0.44091031  0.59591506  0.52553289  1
  O2-  O452  1  0.41437079  0.57807821  0.83550382  1
  O2-  O453  1  0.40180003  0.82177543  0.19798558  1
  O2-  O454  1  0.42980886  0.83350684  0.51652692  1
  O2-  O455  1  0.42398306  0.84273187  0.83088936  1
  O2-  O456  1  0.67192062  0.10788401  0.19998153  1
  O2-  O457  1  0.68831539  0.08318939  0.51258579  1
  O2-  O458  1  0.70764741  0.04154735  0.86721939  1
  O2-  O459  1  0.66746941  0.33871396  0.18940151  1
  O2-  O460  1  0.67934434  0.32748900  0.52136164  1
  O2-  O461  1  0.67499042  0.33347762  0.85611775  1
  O2-  O462  1  0.67316650  0.57465517  0.22228902  1
  O2-  O463  1  0.68705509  0.62308503  0.51109011  1
  O2-  O464  1  0.67126390  0.58325897  0.86050870  1
  O2-  O465  1  0.67902911  0.81011862  0.20767524  1
  O2-  O466  1  0.63891004  0.85724596  0.44438953  1
  O2-  O467  1  0.67267993  0.85973492  0.84398737  1
  O2-  O468  1  0.90778231  0.08195411  0.16469824  1
  O2-  O469  1  0.91259524  0.08958861  0.52342752  1
  O2-  O470  1  0.92073938  0.08697461  0.85307302  1
  O2-  O471  1  0.91173680  0.33230092  0.19530447  1
  O2-  O472  1  0.91308730  0.32475341  0.51413002  1
  O2-  O473  1  0.91570057  0.32481314  0.85797699  1
  O2-  O474  1  0.92292330  0.57828738  0.18517084  1
  O2-  O475  1  0.92355129  0.57553726  0.49728442  1
  O2-  O476  1  0.91999274  0.58765823  0.86789123  1
  O2-  O477  1  0.92422004  0.83724788  0.18830576  1
  O2-  O478  1  0.92189442  0.82615045  0.53505532  1
  O2-  O479  1  0.91727893  0.83689673  0.85737390  1
  O2-  O480  1  0.16371636  0.07520205  0.31783483  1
  O2-  O481  1  0.20053447  0.05914407  0.66863486  1
  O2-  O482  1  0.16875709  0.09651084  0.97139152  1
  O2-  O483  1  0.17175691  0.32518644  0.31622660  1
  O2-  O484  1  0.16664335  0.33878714  0.65059969  1
  O2-  O485  1  0.16488451  0.34210882  0.98149130  1
  O2-  O486  1  0.14062301  0.57460557  0.32422935  1
  O2-  O487  1  0.16592448  0.58164021  0.64555663  1
  O2-  O488  1  0.18828859  0.60667737  0.97103154  1
  O2-  O489  1  0.15817700  0.82114424  0.32655207  1
  O2-  O490  1  0.17426375  0.82289831  0.61341699  1
  O2-  O491  1  0.17344688  0.84152701  0.97890937  1
  O2-  O492  1  0.45429541  0.13254822  0.29510881  1
  O2-  O493  1  0.44497821  0.08739776  0.65035460  1
  O2-  O494  1  0.39002996  0.08381946  0.98348417  1
  O2-  O495  1  0.40819503  0.32405065  0.31846051  1
  O2-  O496  1  0.43537818  0.33666624  0.66346956  1
  O2-  O497  1  0.43984201  0.36444440  0.97473084  1
  O2-  O498  1  0.40558239  0.57196351  0.31465752  1
  O2-  O499  1  0.41176137  0.58081452  0.64780565  1
  O2-  O500  1  0.40833484  0.59260625  0.98310872  1
  O2-  O501  1  0.39763358  0.83032342  0.32093467  1
  O2-  O502  1  0.41114465  0.82528730  0.63819000  1
  O2-  O503  1  0.40803862  0.82491692  0.96650864  1
  O2-  O504  1  0.66625649  0.09120797  0.32462984  1
  O2-  O505  1  0.63925952  0.10216455  0.66028440  1
  O2-  O506  1  0.66260492  0.07175194  0.97615490  1
  O2-  O507  1  0.67198902  0.33225472  0.31384880  1
  O2-  O508  1  0.65609760  0.31776973  0.65069174  1
  O2-  O509  1  0.67012667  0.31491560  0.97678757  1
  O2-  O510  1  0.68845675  0.61185583  0.33440592  1
  O2-  O511  1  0.68987227  0.60933962  0.63995111  1
  O2-  O512  1  0.67849224  0.62440011  0.97810001  1
  O2-  O513  1  0.64983411  0.84048839  0.32566020  1
  O2-  O514  1  0.68048934  0.83550785  0.63994726  1
  O2-  O515  1  0.67987875  0.85004156  0.96255621  1
  O2-  O516  1  0.92672937  0.08899391  0.35459095  1
  O2-  O517  1  0.89309683  0.07932613  0.64629973  1
  O2-  O518  1  0.91935306  0.08719469  0.98054348  1
  O2-  O519  1  0.90507943  0.33505148  0.31307408  1
  O2-  O520  1  0.93835441  0.29465924  0.63150177  1
  O2-  O521  1  0.91097148  0.29783337  0.97432068  1
  O2-  O522  1  0.90898089  0.58100966  0.31284538  1
  O2-  O523  1  0.90775902  0.59809856  0.65099933  1
  O2-  O524  1  0.92587895  0.56287017  0.98508463  1
  O2-  O525  1  0.92225647  0.83705473  0.31198715  1
  O2-  O526  1  0.92539604  0.84686950  0.64775091  1
  O2-  O527  1  0.92888378  0.85508698  0.98129241  1
  O2-  O528  1  0.08826782  0.16961724  0.01655661  1
  O2-  O529  1  0.09892120  0.17129592  0.36825663  1
  O2-  O530  1  0.06294911  0.18064803  0.69102734  1
  O2-  O531  1  0.10730340  0.45092395  0.01299106  1
  O2-  O532  1  0.09426487  0.40469709  0.35775277  1
  O2-  O533  1  0.08445626  0.41886661  0.69259605  1
  O2-  O534  1  0.09606178  0.67513698  0.02164255  1
  O2-  O535  1  0.06137669  0.66018815  0.36714779  1
  O2-  O536  1  0.08718628  0.67164896  0.68106706  1
  O2-  O537  1  0.09023654  0.92418772  0.02439399  1
  O2-  O538  1  0.07990073  0.91096907  0.36201864  1
  O2-  O539  1  0.07502336  0.88730583  0.69218590  1
  O2-  O540  1  0.31529258  0.16289499  0.01754716  1
  O2-  O541  1  0.33202594  0.16270322  0.35978927  1
  O2-  O542  1  0.36965621  0.17284579  0.69738414  1
  O2-  O543  1  0.33144817  0.42557748  0.02562748  1
  O2-  O544  1  0.33101708  0.41069075  0.35705392  1
  O2-  O545  1  0.33357269  0.41344264  0.69010748  1
  O2-  O546  1  0.34022452  0.67382515  0.01510062  1
  O2-  O547  1  0.32480172  0.65768991  0.32818256  1
  O2-  O548  1  0.32921021  0.65914770  0.68639215  1
  O2-  O549  1  0.33709677  0.91556391  0.01326140  1
  O2-  O550  1  0.30982864  0.89267367  0.36997931  1
  O2-  O551  1  0.39540887  0.94232338  0.71298756  1
  O2-  O552  1  0.57251915  0.14787771  -0.00203336  1
  O2-  O553  1  0.58944294  0.17389198  0.36587342  1
  O2-  O554  1  0.60619911  0.15522967  0.68743506  1
  O2-  O555  1  0.52313320  0.29426657  0.02651603  1
  O2-  O556  1  0.56564068  0.38518659  0.35919049  1
  O2-  O557  1  0.59170762  0.40528531  0.69895050  1
  O2-  O558  1  0.58129681  0.68343058  -0.00767520  1
  O2-  O559  1  0.56218003  0.66702939  0.35269054  1
  O2-  O560  1  0.55581709  0.59187887  0.70357744  1
  O2-  O561  1  0.57982634  0.90398672  -0.00024016  1
  O2-  O562  1  0.56782507  0.92657875  0.34936970  1
  O2-  O563  1  0.59090799  0.92092314  0.67009857  1
  O2-  O564  1  0.80737037  0.15329629  0.02618039  1
  O2-  O565  1  0.83628419  0.17847004  0.33556372  1
  O2-  O566  1  0.80890031  0.15526644  0.69558950  1
  O2-  O567  1  0.83846771  0.39628743  0.02332030  1
  O2-  O568  1  0.83418419  0.41844202  0.35481883  1
  O2-  O569  1  0.79799210  0.45314202  0.71225718  1
  O2-  O570  1  0.82893192  0.69065863  0.01774827  1
  O2-  O571  1  0.84625764  0.67784781  0.36090967  1
  O2-  O572  1  0.84382881  0.67884018  0.71234523  1
  O2-  O573  1  0.83474780  0.92580421  0.02025880  1
  O2-  O574  1  0.85068704  0.91886869  0.36885063  1
  O2-  O575  1  0.83440102  0.91159679  0.68292900  1
