# generated using pymatgen
data_H2O
_symmetry_space_group_name_H-M   'P 1'
_cell_length_a   17.98900548
_cell_length_b   17.98678241
_cell_length_c   22.00478482
_cell_angle_alpha   89.99208087
_cell_angle_beta   89.99263434
_cell_angle_gamma   119.99806806
_symmetry_Int_Tables_number   1
_chemical_formula_structural   H2O
_chemical_formula_sum   'H384 O192'
_cell_volume   6166.18899050
_cell_formula_units_Z   192
loop_
 _symmetry_equiv_pos_site_id
 _symmetry_equiv_pos_as_xyz
  1  'x, y, z'
loop_
 _atom_type_symbol
 _atom_type_oxidation_number
  H+  1.0
  O2-  -2.0
loop_
 _atom_site_type_symbol
 _atom_site_label
 _atom_site_symmetry_multiplicity
 _atom_site_fract_x
 _atom_site_fract_y
 _atom_site_fract_z
 _atom_site_occupancy
  H+  H0  1  0.36000950  0.38245110  0.50212736  1
  H+  H1  1  0.62678895  0.64262691  0.82919692  1
  H+  H2  1  1.02204313  0.13652617  1.00440075  1
  H+  H3  1  0.87717563  0.25880885  0.51193026  1
  H+  H4  1  0.74620923  0.87923925  -0.01529011  1
  H+  H5  1  0.97491391  0.85549660  0.98508813  1
  H+  H6  1  0.07466564  0.90617494  0.08634201  1
  H+  H7  1  0.88026741  0.85255928  0.51294039  1
  H+  H8  1  0.36153542  0.90361897  -0.00005810  1
  H+  H9  1  0.89706601  0.13310521  0.33227186  1
  H+  H10  1  0.77656054  0.35402020  0.34415988  1
  H+  H11  1  0.10911268  0.13349469  0.00940140  1
  H+  H12  1  0.54871042  0.39579971  0.33997363  1
  H+  H13  1  0.13022465  0.64665191  0.48262444  1
  H+  H14  1  0.80671664  0.12700290  0.70311737  1
  H+  H15  1  0.72044148  0.86005541  0.19584074  1
  H+  H16  1  0.97184861  0.85708333  0.16413489  1
  H+  H17  1  0.13030303  0.26792493  0.66006180  1
  H+  H18  1  0.96690343  0.35046006  0.50977080  1
  H+  H19  1  0.87225161  0.36999443  0.34360301  1
  H+  H20  1  0.82216313  0.15645856  0.44592752  1
  H+  H21  1  0.47258269  0.69810289  0.64902513  1
  H+  H22  1  0.27643940  0.64307835  0.34065320  1
  H+  H23  1  0.35422614  0.12597606  0.67428815  1
  H+  H24  1  0.65392131  0.78754474  0.66203193  1
  H+  H25  1  0.12095268  0.08510696  0.18094273  1
  H+  H26  1  0.64368060  0.36546146  0.17213727  1
  H+  H27  1  0.73622830  0.60785970  0.83469206  1
  H+  H28  1  0.16614838  0.62868577  0.99792288  1
  H+  H29  1  0.58827372  0.12772034  0.66757431  1
  H+  H30  1  0.85467972  0.37514879  0.50431337  1
  H+  H31  1  0.66551332  0.89029326  0.98229026  1
  H+  H32  1  -0.00678511  0.11000236  0.66323404  1
  H+  H33  1  0.39312817  0.11494619  0.34452531  1
  H+  H34  1  0.76761713  0.89315137  0.82151344  1
  H+  H35  1  0.78473283  0.74606701  0.87323308  1
  H+  H36  1  1.01719938  0.88767786  0.86215372  1
  H+  H37  1  0.10787422  0.22799749  0.50251141  1
  H+  H38  1  0.73306030  0.37571799  0.99542971  1
  H+  H39  1  0.23095393  0.63030129  0.83327289  1
  H+  H40  1  0.27023243  0.11916535  0.83745091  1
  H+  H41  1  0.04519444  0.39334062  0.33742548  1
  H+  H42  1  0.48773555  0.10914882  0.84924559  1
  H+  H43  1  0.15053967  0.53822485  0.82323383  1
  H+  H44  1  0.65239546  0.61192387  0.66627638  1
  H+  H45  1  0.46495024  0.77379061  0.03747624  1
  H+  H46  1  0.11557820  0.73853268  0.15583252  1
  H+  H47  1  0.41100394  0.33720602  0.57626351  1
  H+  H48  1  0.63859265  0.26490278  0.32241238  1
  H+  H49  1  0.87184937  0.39656873  0.16056632  1
  H+  H50  1  0.47959862  0.36433145  0.99359880  1
  H+  H51  1  0.89703370  0.12566234  0.98485996  1
  H+  H52  1  0.36609634  0.39457022  0.15594859  1
  H+  H53  1  0.38437726  0.01296019  0.34274051  1
  H+  H54  1  0.15564774  0.86763626  0.82674351  1
  H+  H55  1  0.69512796  0.11237935  0.65956113  1
  H+  H56  1  0.10543981  0.38002121  0.66704325  1
  H+  H57  1  0.60893596  0.67820989  0.73647989  1
  H+  H58  1  0.08562539  0.66917187  0.05951793  1
  H+  H59  1  0.38807845  0.52100985  0.33199244  1
  H+  H60  1  0.27129437  0.88939029  0.49429418  1
  H+  H61  1  0.16584480  0.54152954  0.99706159  1
  H+  H62  1  0.36922647  -0.02031346  0.15690770  1
  H+  H63  1  0.42637680  0.02132277  0.88360215  1
  H+  H64  1  0.13333824  0.60868848  0.32611554  1
  H+  H65  1  0.85597150  0.69440816  0.82379581  1
  H+  H66  1  0.38795131  0.86874246  0.17474410  1
  H+  H67  1  0.10123297  0.70601141  0.32197643  1
  H+  H68  1  0.38619425  0.77425831  0.50476613  1
  H+  H69  1  0.13724142  0.63416932  0.17306861  1
  H+  H70  1  0.62401534  0.13789769  0.15954193  1
  H+  H71  1  0.13364769  0.52195310  0.50424703  1
  H+  H72  1  0.63147972  0.77895170  0.50816162  1
  H+  H73  1  0.36380814  0.47365860  0.49908051  1
  H+  H74  1  0.21925739  0.35416096  0.66632224  1
  H+  H75  1  0.87918939  0.89220340  -0.00295285  1
  H+  H76  1  0.39619396  0.79271278  0.83351968  1
  H+  H77  1  0.34757227  0.97071596  0.81104011  1
  H+  H78  1  0.09823701  0.63314836  0.66289496  1
  H+  H79  1  0.38862684  0.23469211  0.35150848  1
  H+  H80  1  0.14572562  0.44987073  0.14616697  1
  H+  H81  1  0.62952554  0.61800017  0.32240661  1
  H+  H82  1  0.41839644  0.32918666  0.93502247  1
  H+  H83  1  0.77120756  0.88458805  0.50116359  1
  H+  H84  1  0.64822687  0.54028652  0.31696317  1
  H+  H85  1  0.03505410  0.42404316  0.81563633  1
  H+  H86  1  0.78221399  0.39499303  0.16054272  1
  H+  H87  1  0.65244057  0.36009732  0.32052716  1
  H+  H88  1  0.36715600  0.89174785  0.34288256  1
  H+  H89  1  0.83241364  0.91330549  0.76532635  1
  H+  H90  1  0.02529385  0.64973055  0.16020076  1
  H+  H91  1  0.47158403  0.86100917  0.66188964  1
  H+  H92  1  0.86179533  0.97070861  0.50058723  1
  H+  H93  1  0.68064238  0.03596898  0.94136219  1
  H+  H94  1  0.13099507  0.76780185  0.83175912  1
  H+  H95  1  0.96464082  0.59603340  0.82507335  1
  H+  H96  1  0.12136675  0.13430855  0.67159045  1
  H+  H97  1  0.78092652  0.89360430  0.67031831  1
  H+  H98  1  0.22303766  0.11259666  0.50659776  1
  H+  H99  1  0.12176986  0.15004047  0.35104216  1
  H+  H100  1  0.22548860  0.84580012  0.31932602  1
  H+  H101  1  0.40839145  0.37046890  0.33969287  1
  H+  H102  1  0.63960754  0.78124146  0.83545348  1
  H+  H103  1  0.84971979  0.86326112  0.34405409  1
  H+  H104  1  0.12114253  0.10937381  0.83802017  1
  H+  H105  1  0.30224444  0.65034857  0.01604953  1
  H+  H106  1  0.11663135  0.72701087  0.00013236  1
  H+  H107  1  0.48250707  0.11219391  0.16658345  1
  H+  H108  1  0.86307677  0.46828082  0.81599521  1
  H+  H109  1  0.34781557  0.17234469  0.40997435  1
  H+  H110  1  0.36271312  0.63818175  0.17368284  1
  H+  H111  1  0.35990158  0.25481123  0.18481385  1
  H+  H112  1  0.47497078  0.61625549  0.17532774  1
  H+  H113  1  0.87099374  0.51129958  0.51704445  1
  H+  H114  1  0.50140317  0.63586782  -0.00468827  1
  H+  H115  1  0.38095450  0.38419983  0.66859783  1
  H+  H116  1  0.12500871  0.54195498  0.17309385  1
  H+  H117  1  0.64064636  0.01845312  0.17014277  1
  H+  H118  1  0.89545776  0.03676016  0.97576216  1
  H+  H119  1  0.47017183  0.35650693  0.51862049  1
  H+  H120  1  0.64444497  0.02750223  0.84438407  1
  H+  H121  1  0.36353757  0.63928255  0.34160167  1
  H+  H122  1  0.87699365  0.10573848  0.51530336  1
  H+  H123  1  0.26863011  0.88373198  0.65849471  1
  H+  H124  1  0.38762297  0.77920911  0.33023334  1
  H+  H125  1  0.37412668  0.33459655  0.83818064  1
  H+  H126  1  0.38760499  0.77953954  0.18016770  1
  H+  H127  1  0.10318790  0.21766889  0.82467935  1
  H+  H128  1  0.36466238  0.13359536  0.49829608  1
  H+  H129  1  0.33286318  0.63837242  0.66616880  1
  H+  H130  1  0.33124292  0.45113244  0.69649755  1
  H+  H131  1  0.63324877  0.35908540  0.50620802  1
  H+  H132  1  0.87996446  0.61894879  0.66719446  1
  H+  H133  1  0.61037091  0.48433476  0.50065268  1
  H+  H134  1  0.78527177  0.12399690  0.00879996  1
  H+  H135  1  0.91551762  0.27662017  0.31522045  1
  H+  H136  1  0.48518339  0.10951757  0.34085142  1
  H+  H137  1  0.87068597  0.13858054  0.16414820  1
  H+  H138  1  0.87074176  0.58866826  0.82716733  1
  H+  H139  1  0.60974158  0.64193024  0.15879234  1
  H+  H140  1  0.66885516  0.84185690  0.60043773  1
  H+  H141  1  0.85568679  0.37243611  0.81900182  1
  H+  H142  1  0.12473156  0.27117344  0.99699332  1
  H+  H143  1  0.88120417  0.36310170  0.99300366  1
  H+  H144  1  0.53685732  0.85508966  0.07307312  1
  H+  H145  1  0.61394891  0.89556124  0.82236141  1
  H+  H146  1  0.52311089  -0.10984441  0.34477684  1
  H+  H147  1  0.12348906  0.01268733  0.22674731  1
  H+  H148  1  0.10767502  0.38666866  0.49718894  1
  H+  H149  1  0.10758171  0.63795144  0.81516464  1
  H+  H150  1  0.59189765  0.22172622  0.66358164  1
  H+  H151  1  0.81305192  0.23228573  0.37061733  1
  H+  H152  1  0.38145127  1.01476346  0.64993474  1
  H+  H153  1  0.84241052  0.83906118  0.84600703  1
  H+  H154  1  0.24978611  0.13616108  0.33817964  1
  H+  H155  1  0.46507185  0.13368245  0.00710396  1
  H+  H156  1  0.63240976  0.86053524  0.33890995  1
  H+  H157  1  0.36197541  0.22143789  0.50378229  1
  H+  H158  1  0.13465864  0.11516261  0.50921872  1
  H+  H159  1  0.63012719  0.35645193  0.66270966  1
  H+  H160  1  0.11958346  0.98605637  0.31622053  1
  H+  H161  1  0.37918467  0.66324716  0.83139758  1
  H+  H162  1  0.88506551  0.86163808  0.17422011  1
  H+  H163  1  0.02678678  0.39693860  0.00092600  1
  H+  H164  1  0.64409882  0.00400086  1.00698096  1
  H+  H165  1  0.61521682  0.13840690  0.84942746  1
  H+  H166  1  0.90330105  0.76844163  0.32270575  1
  H+  H167  1  0.72213767  0.36187236  0.83993434  1
  H+  H168  1  0.52813501  0.90290170  0.82080290  1
  H+  H169  1  0.90526312  0.59116293  0.23429928  1
  H+  H170  1  0.01491988  0.12773607  0.81891307  1
  H+  H171  1  0.88608672  0.52936998  0.17700378  1
  H+  H172  1  0.16234117  -0.00310216  0.80176229  1
  H+  H173  1  0.46520757  0.86925498  0.98932144  1
  H+  H174  1  0.76663495  0.64094829  1.00882783  1
  H+  H175  1  0.52711339  0.39018694  0.16215600  1
  H+  H176  1  0.43195658  0.61302822  0.68752186  1
  H+  H177  1  0.61020331  0.21498233  0.49137232  1
  H+  H178  1  0.22472260  0.10571368  0.66196948  1
  H+  H179  1  0.22283772  0.36371489  0.50972839  1
  H+  H180  1  0.73172499  0.10712149  0.17230335  1
  H+  H181  1  0.61197171  0.38898582  0.83075337  1
  H+  H182  1  0.71764850  0.84993217  0.33836087  1
  H+  H183  1  0.10713053  0.72727424  0.66168846  1
  H+  H184  1  0.39349287  0.11142972  0.16742319  1
  H+  H185  1  0.10762345  -0.02820933  0.50010828  1
  H+  H186  1  0.22387136  0.11664769  0.99779488  1
  H+  H187  1  0.12631394  0.35384074  0.83433771  1
  H+  H188  1  0.58354241  0.41235705  0.73796889  1
  H+  H189  1  0.61708894  -0.00992679  0.49433101  1
  H+  H190  1  0.98670383  0.13515385  0.33239433  1
  H+  H191  1  0.13982494  0.86644522  0.16270158  1
  H+  H192  1  0.40866858  0.62912214  1.00176671  1
  H+  H193  1  0.38718629  0.52596473  0.17359520  1
  H+  H194  1  0.01872904  0.13748185  0.50195426  1
  H+  H195  1  0.28900325  0.38536109  0.34560684  1
  H+  H196  1  0.63448802  0.01912292  0.32750303  1
  H+  H197  1  0.35639125  0.23239258  0.01187738  1
  H+  H198  1  0.72192364  0.35837692  0.50900310  1
  H+  H199  1  0.59827326  0.68646088  1.06800287  1
  H+  H200  1  0.88685775  0.76480802  0.66962998  1
  H+  H201  1  0.63886755  0.52866650  0.84343769  1
  H+  H202  1  0.77915424  0.62999987  0.67766876  1
  H+  H203  1  0.48936059  0.12225721  0.65692757  1
  H+  H204  1  0.61102904  0.22490569  0.84250734  1
  H+  H205  1  0.10928610  -0.02743219  0.99708683  1
  H+  H206  1  0.16313774  0.37462885  0.33754778  1
  H+  H207  1  0.97714944  0.10651731  0.17959989  1
  H+  H208  1  0.22839709  0.35089249  0.15363373  1
  H+  H209  1  0.10575858  0.96473537  0.14649617  1
  H+  H210  1  0.81999022  0.39219656  0.73715471  1
  H+  H211  1  0.22374949  0.86690341  -0.01124099  1
  H+  H212  1  0.61370396  0.89257012  0.67103370  1
  H+  H213  1  0.85760270  0.63583397  0.15844925  1
  H+  H214  1  0.87299147  0.22475161  0.68428366  1
  H+  H215  1  0.35495397  0.11289297  0.83796434  1
  H+  H216  1  0.64802084  0.63013665  0.99277364  1
  H+  H217  1  1.02368201  0.88135213  0.66864250  1
  H+  H218  1  0.33374097  0.66878687  0.43402443  1
  H+  H219  1  0.88615467  0.85418413  0.66578327  1
  H+  H220  1  0.61530713  1.01647135  0.66244596  1
  H+  H221  1  -0.02495935  0.62032120  0.65716262  1
  H+  H222  1  0.90268073  0.57977019  0.59836255  1
  H+  H223  1  0.39092267  0.87770535  0.82475282  1
  H+  H224  1  0.60977134  0.73048247  0.16707257  1
  H+  H225  1  0.61175736  0.64011171  0.49866079  1
  H+  H226  1  0.89371898  0.27694910  0.16926810  1
  H+  H227  1  0.47863801  0.61451882  0.50513046  1
  H+  H228  1  0.63514783  0.87082788  0.50751851  1
  H+  H229  1  0.48153894  0.10892913  0.50203034  1
  H+  H230  1  0.86460088  0.98315585  0.18177296  1
  H+  H231  1  0.35072404  0.98449055  0.01103098  1
  H+  H232  1  0.15500324  0.28306244  0.34082692  1
  H+  H233  1  0.71803792  0.61355651  0.16913475  1
  H+  H234  1  0.02181479  0.88076162  0.50066864  1
  H+  H235  1  0.40316365  0.56167925  0.85205395  1
  H+  H236  1  0.91931671  0.09359716  0.88394312  1
  H+  H237  1  0.90936369  0.11530451  0.67316936  1
  H+  H238  1  0.00023483  0.89415070  0.83243127  1
  H+  H239  1  0.56007350  0.65388172  0.67266360  1
  H+  H240  1  0.75322526  0.35894588  0.67257368  1
  H+  H241  1  0.88614064  0.02539964  0.83026226  1
  H+  H242  1  0.11059568  0.88304037  0.99299150  1
  H+  H243  1  0.20379131  0.60979358  0.65925921  1
  H+  H244  1  0.12947158  0.48471612  0.34269547  1
  H+  H245  1  0.89418583  0.81488078  0.93519197  1
  H+  H246  1  1.03438854  0.63963747  0.37029828  1
  H+  H247  1  0.35324175  0.14219393  1.01238324  1
  H+  H248  1  0.54051855  0.65020497  0.82963664  1
  H+  H249  1  0.20737284  0.33907011  0.83673951  1
  H+  H250  1  0.86255392  0.73312999  1.01112115  1
  H+  H251  1  0.51612362  0.63357562  0.34616181  1
  H+  H252  1  0.35955908  0.88539018  0.49465369  1
  H+  H253  1  0.26675179  0.12067203  0.16484585  1
  H+  H254  1  0.59882883  0.24960155  0.01498421  1
  H+  H255  1  0.52572989  0.39307224  0.67801120  1
  H+  H256  1  0.87460987  -0.02349911  0.67462815  1
  H+  H257  1  0.10995674  0.38608461  0.00001335  1
  H+  H258  1  0.61523932  0.48750330  0.00789919  1
  H+  H259  1  0.64620602  0.38141303  -0.00573048  1
  H+  H260  1  0.96657990  0.35417831  0.65984834  1
  H+  H261  1  0.60903295  0.12729485  0.33904492  1
  H+  H262  1  0.75413262  0.12580397  0.50138826  1
  H+  H263  1  -0.01671615  0.36472265  0.16512864  1
  H+  H264  1  0.60101227  0.11089944  0.97215779  1
  H+  H265  1  0.11471907  0.20460320  0.15902004  1
  H+  H266  1  0.52097578  0.38376493  0.82924087  1
  H+  H267  1  0.39185513  0.49603504  0.00606606  1
  H+  H268  1  0.98505517  0.60486062  0.98161297  1
  H+  H269  1  0.13671003  0.86069103  0.65085631  1
  H+  H270  1  0.10067749  0.46795887  0.66407502  1
  H+  H271  1  0.87245952  0.47989918  0.00139472  1
  H+  H272  1  0.13230924  0.33152000  0.15289091  1
  H+  H273  1  0.39022763  0.25648037  0.84484653  1
  H+  H274  1  0.72229593  0.61112831  0.50866184  1
  H+  H275  1  0.14464159  0.69801569  0.42198381  1
  H+  H276  1  0.52820762  0.89618537  0.49479793  1
  H+  H277  1  0.61157095  0.48238638  0.16229097  1
  H+  H278  1  0.27517143  0.64277846  0.16789353  1
  H+  H279  1  0.76250111  0.13970476  0.34252464  1
  H+  H280  1  0.84825212  0.35730078  0.67101628  1
  H+  H281  1  0.26590534  0.87635147  0.81549660  1
  H+  H282  1  0.60752996  -0.12009742  0.16891560  1
  H+  H283  1  0.85945408  0.72700614  0.15759214  1
  H+  H284  1  0.58191521  0.07967705  -0.00193499  1
  H+  H285  1  0.85713053  0.71935479  0.49707415  1
  H+  H286  1  0.23190486  0.86990876  0.16395946  1
  H+  H287  1  0.58401438  0.92292523  0.40429824  1
  H+  H288  1  0.36353221  0.63731861  0.49251135  1
  H+  H289  1  0.66524659  0.07691380  0.26623893  1
  H+  H290  1  0.52239370  0.88669777  0.16767617  1
  H+  H291  1  0.42036976  0.59087034  0.56398026  1
  H+  H292  1  0.92149457  0.56794556  0.92444798  1
  H+  H293  1  0.67700170  0.59531563  0.93375187  1
  H+  H294  1  0.38877581  0.02066572  0.50220422  1
  H+  H295  1  0.89928661  0.32283771  0.93371335  1
  H+  H296  1  0.67057134  0.34328750  0.90279768  1
  H+  H297  1  0.13624279  0.86722855  0.50435771  1
  H+  H298  1  0.58567535  0.42625249  0.06641435  1
  H+  H299  1  0.34911968  0.43176311  0.09392237  1
  H+  H300  1  0.91069047  0.81967559  0.26280833  1
  H+  H301  1  0.16626733  0.83054802  0.59124260  1
  H+  H302  1  0.34787169  0.41773630  0.40469655  1
  H+  H303  1  0.08676737  0.41425604  0.08633206  1
  H+  H304  1  0.84163094  0.42522273  0.06434884  1
  H+  H305  1  0.91572256  0.08036086  0.57233733  1
  H+  H306  1  0.65294830  0.82445101  0.24959391  1
  H+  H307  1  0.34723550  0.73194242  0.67270594  1
  H+  H308  1  0.82749280  0.39827123  0.44280603  1
  H+  H309  1  0.83112607  0.65764963  0.43872091  1
  H+  H310  1  0.62860394  0.43390266  0.38665721  1
  H+  H311  1  0.19212233  0.11544956  0.27927897  1
  H+  H312  1  0.08908032  0.16256084  0.73164758  1
  H+  H313  1  0.09369236  0.01669091  0.86344765  1
  H+  H314  1  0.42949632  0.33297516  0.28109453  1
  H+  H315  1  0.33769624  0.42533193  0.82678442  1
  H+  H316  1  0.11182921  0.97309891  0.66078289  1
  H+  H317  1  0.46372608  0.44595241  0.62832397  1
  H+  H318  1  0.58348451  0.92161273  0.73141786  1
  H+  H319  1  0.13139858  0.93328581  0.74532846  1
  H+  H320  1  0.17392947  0.59120115  0.26872914  1
  H+  H321  1  0.92240336  0.09427091  0.24112378  1
  H+  H322  1  0.65261700  0.08095693  0.55773764  1
  H+  H323  1  0.80822758  0.92043958  0.12857483  1
  H+  H324  1  0.16735360  0.83198504  0.92725064  1
  H+  H325  1  0.35042300  0.66647049  0.07950959  1
  H+  H326  1  0.30895181  0.37551186  0.76093220  1
  H+  H327  1  0.14696041  0.32177879  0.93410416  1
  H+  H328  1  0.41402754  0.07749834  0.58888688  1
  H+  H329  1  0.54770909  0.42842978  0.44760017  1
  H+  H330  1  0.67033061  0.84304233  0.89368963  1
  H+  H331  1  0.58049859  0.66638117  0.43788380  1
  H+  H332  1  0.58447688  0.15907645  0.40149998  1
  H+  H333  1  0.03325308  0.90333286  0.29658693  1
  H+  H334  1  0.41638807  0.84058565  0.27146759  1
  H+  H335  1  0.07870113  0.41525400  0.75544644  1
  H+  H336  1  0.62567866  0.22834350  0.16256405  1
  H+  H337  1  0.33861341  0.67870706  0.77025990  1
  H+  H338  1  0.33193248  0.91668620  0.40294917  1
  H+  H339  1  0.16526488  0.08860430  0.93716503  1
  H+  H340  1  0.82459357  0.89487418  0.40427353  1
  H+  H341  1  0.32065436  0.29980668  0.22361520  1
  H+  H342  1  0.41317510  0.09675392  0.94458082  1
  H+  H343  1  0.87891704  0.95274014  0.04858453  1
  H+  H344  1  0.14538548  0.78161060  0.49782101  1
  H+  H345  1  0.65825586  0.58950751  0.22860864  1
  H+  H346  1  0.38112375  0.40177174  0.00559354  1
  H+  H347  1  0.82771863  0.66914118  0.07648972  1
  H+  H348  1  0.32423868  0.14587355  0.73684788  1
  H+  H349  1  0.85006430  0.20080515  0.78849383  1
  H+  H350  1  0.08405834  0.17263171  0.40946792  1
  H+  H351  1  0.94717828  0.29663332  0.84661654  1
  H+  H352  1  0.07301525  0.66710164  0.75820458  1
  H+  H353  1  0.90497029  0.31645399  0.60146860  1
  H+  H354  1  0.86035584  0.22494952  0.00633198  1
  H+  H355  1  0.41426010  0.83199415  0.56464186  1
  H+  H356  1  0.16813034  0.08382059  0.59980284  1
  H+  H357  1  0.93884756  0.33836046  0.25806092  1
  H+  H358  1  0.15451366  0.57876724  0.59562641  1
  H+  H359  1  0.38336572  0.86389450  0.65676625  1
  H+  H360  1  0.33425745  0.91743130  0.09853422  1
  H+  H361  1  0.44217128  0.61945357  0.91017603  1
  H+  H362  1  0.32538574  0.91471522  0.71937071  1
  H+  H363  1  0.60446937  0.72377342  0.34792407  1
  H+  H364  1  0.41428020  0.58009844  0.27211169  1
  H+  H365  1  0.61697075  0.12488622  0.49249977  1
  H+  H366  1  0.84246668  0.16743053  0.10331414  1
  H+  H367  1  0.63148083  0.74761713  1.00820312  1
  H+  H368  1  0.66705411  0.58131620  0.57045835  1
  H+  H369  1  0.22594909  0.60952891  0.50525548  1
  H+  H370  1  0.16475369  0.33551901  0.56999349  1
  H+  H371  1  0.65851467  0.32801591  0.60036823  1
  H+  H372  1  0.42613771  0.86934433  0.92352328  1
  H+  H373  1  0.08151310  0.41717612  0.43688576  1
  H+  H374  1  0.87007964  0.60038667  0.51401383  1
  H+  H375  1  0.67547217  0.33348251  0.22958882  1
  H+  H376  1  0.83030671  0.64892337  0.74504167  1
  H+  H377  1  0.17379159  0.81974645  0.25677070  1
  H+  H378  1  0.90947719  0.81953755  0.57103288  1
  H+  H379  1  0.64221088  0.51731222  0.66570839  1
  H+  H380  1  0.57188187  0.18683143  0.07349940  1
  H+  H381  1  0.72808736  0.11889438  0.85856384  1
  H+  H382  1  0.32329108  0.16576542  0.10558800  1
  H+  H383  1  0.07264934  0.14148497  0.10429720  1
  O2-  O384  1  0.07637439  0.14140585  0.14974308  1
  O2-  O385  1  0.07971247  0.16734671  0.48765088  1
  O2-  O386  1  0.07910018  0.15775823  0.80822214  1
  O2-  O387  1  0.08778699  0.40861845  0.13313711  1
  O2-  O388  1  0.07537131  0.41503890  0.48233504  1
  O2-  O389  1  0.08356485  0.41900463  0.80133218  1
  O2-  O390  1  0.08388197  0.67590176  0.14303094  1
  O2-  O391  1  0.11580744  0.68678646  0.46125592  1
  O2-  O392  1  0.07196005  0.66483543  0.80342918  1
  O2-  O393  1  0.07311772  0.90429832  0.13181293  1
  O2-  O394  1  0.08208924  0.91144660  0.48635469  1
  O2-  O395  1  0.16656576  0.94962864  0.78338254  1
  O2-  O396  1  0.32584496  0.16172370  0.15103048  1
  O2-  O397  1  0.33382146  0.16373696  0.48393858  1
  O2-  O398  1  0.32935674  0.14625634  0.82189849  1
  O2-  O399  1  0.33930779  0.42681633  0.14025376  1
  O2-  O400  1  0.33188569  0.41320382  0.48435906  1
  O2-  O401  1  0.30652717  0.36728589  0.81065542  1
  O2-  O402  1  0.33697532  0.67210707  0.15682432  1
  O2-  O403  1  0.33248113  0.66764429  0.47978679  1
  O2-  O404  1  0.34481875  0.68811681  0.81476564  1
  O2-  O405  1  0.33609314  0.91694279  0.14399296  1
  O2-  O406  1  0.33259290  0.91854258  0.47872585  1
  O2-  O407  1  0.32429734  0.91171029  0.79568746  1
  O2-  O408  1  0.59345444  0.16863794  0.14651483  1
  O2-  O409  1  0.58102466  0.15564466  0.47552483  1
  O2-  O410  1  0.58194861  0.16299960  0.83111095  1
  O2-  O411  1  0.58586481  0.42120708  0.14687612  1
  O2-  O412  1  0.57733970  0.42355822  0.48316879  1
  O2-  O413  1  0.58137988  0.41844084  0.81431365  1
  O2-  O414  1  0.58070442  0.67420208  0.14489603  1
  O2-  O415  1  0.58012326  0.66895964  0.48387970  1
  O2-  O416  1  0.59930766  0.67534231  0.81195277  1
  O2-  O417  1  0.58023369  0.90967641  0.14828695  1
  O2-  O418  1  0.58847172  0.92563041  0.48033641  1
  O2-  O419  1  0.58951317  0.93078478  0.80602562  1
  O2-  O420  1  0.84056122  0.16900896  0.14863646  1
  O2-  O421  1  0.82025169  0.15540369  0.49082178  1
  O2-  O422  1  0.83137970  0.20685127  0.83021497  1
  O2-  O423  1  0.84349510  0.42919925  0.14689458  1
  O2-  O424  1  0.82546115  0.40564698  0.48767737  1
  O2-  O425  1  0.82915309  0.40387558  0.80111613  1
  O2-  O426  1  0.82772729  0.66611394  0.14122396  1
  O2-  O427  1  0.82409008  0.65752514  0.48317103  1
  O2-  O428  1  0.82196112  0.63655659  0.80684191  1
  O2-  O429  1  0.83041808  0.91969953  0.16873366  1
  O2-  O430  1  0.83187320  0.90934784  0.48753689  1
  O2-  O431  1  0.82918570  0.91469128  0.81087981  1
  O2-  O432  1  0.15467169  0.05708136  0.19371991  1
  O2-  O433  1  0.16389943  0.08341237  0.52356458  1
  O2-  O434  1  0.14486324  0.07282866  0.85715301  1
  O2-  O435  1  0.16903294  0.30894715  0.16695992  1
  O2-  O436  1  0.16232641  0.33537767  0.52438174  1
  O2-  O437  1  0.14729406  0.31712394  0.85198012  1
  O2-  O438  1  0.16450064  0.59966396  0.18804036  1
  O2-  O439  1  0.16511958  0.58267205  0.51957042  1
  O2-  O440  1  0.16765580  0.59704936  0.83568969  1
  O2-  O441  1  0.17052062  0.83720802  0.17824081  1
  O2-  O442  1  0.17133657  0.83937815  0.51766878  1
  O2-  O443  1  0.16980793  0.82699820  0.84824339  1
  O2-  O444  1  0.42146337  0.07842564  0.17936520  1
  O2-  O445  1  0.42034343  0.08143495  0.51795461  1
  O2-  O446  1  0.42439264  0.06826602  0.86275196  1
  O2-  O447  1  0.37548773  0.31035946  0.20705000  1
  O2-  O448  1  0.40921971  0.32527658  0.53140229  1
  O2-  O449  1  0.41515628  0.31800928  0.85597157  1
  O2-  O450  1  0.41582156  0.58450386  0.19284559  1
  O2-  O451  1  0.41687071  0.58325099  0.51978783  1
  O2-  O452  1  0.44056508  0.62168325  0.86291672  1
  O2-  O453  1  0.41822828  0.84050541  0.19421595  1
  O2-  O454  1  0.41501191  0.83501135  0.51950646  1
  O2-  O455  1  0.42682156  0.85555505  0.84320593  1
  O2-  O456  1  0.67108964  0.07822520  0.18692553  1
  O2-  O457  1  0.65953523  0.08323565  0.51353525  1
  O2-  O458  1  0.66970001  0.07782285  0.87275162  1
  O2-  O459  1  0.67666244  0.33710833  0.18405854  1
  O2-  O460  1  0.66066030  0.32860284  0.52411216  1
  O2-  O461  1  0.66381851  0.33668264  0.85725186  1
  O2-  O462  1  0.65707933  0.58427402  0.18209935  1
  O2-  O463  1  0.66188953  0.58191426  0.52505948  1
  O2-  O464  1  0.67613015  0.58982493  0.85559654  1
  O2-  O465  1  0.65783335  0.82799431  0.20358914  1
  O2-  O466  1  0.66274100  0.83838883  0.52477973  1
  O2-  O467  1  0.66463331  0.84234586  0.84839869  1
  O2-  O468  1  0.91698517  0.08279142  0.19540653  1
  O2-  O469  1  0.91224664  0.07900782  0.52709860  1
  O2-  O470  1  0.91877929  0.08801275  0.83899345  1
  O2-  O471  1  0.92467098  0.33857436  0.18263438  1
  O2-  O472  1  0.90791319  0.31992816  0.52765533  1
  O2-  O473  1  0.89221417  0.29607892  0.84856819  1
  O2-  O474  1  0.91091187  0.59106363  0.18991972  1
  O2-  O475  1  0.89691693  0.57015777  0.53447792  1
  O2-  O476  1  0.90438451  0.55803994  0.83942445  1
  O2-  O477  1  0.91235875  0.82606125  0.18168129  1
  O2-  O478  1  0.90841599  0.81899583  0.52565671  1
  O2-  O479  1  0.84417355  0.79181031  0.86961074  1
  O2-  O480  1  0.18982812  0.11414793  0.32384621  1
  O2-  O481  1  0.16434536  0.07879409  0.64530946  1
  O2-  O482  1  0.16311472  0.08253788  0.98204970  1
  O2-  O483  1  0.19295404  0.34285886  0.32613217  1
  O2-  O484  1  0.15980127  0.32972479  0.64744738  1
  O2-  O485  1  0.14794236  0.32887625  0.97872483  1
  O2-  O486  1  0.17440918  0.58838084  0.31382884  1
  O2-  O487  1  0.14594826  0.57473169  0.64113883  1
  O2-  O488  1  0.20310556  0.60350126  0.98960086  1
  O2-  O489  1  0.17427173  0.80052855  0.29897478  1
  O2-  O490  1  0.16666653  0.82888274  0.63735352  1
  O2-  O491  1  0.16339094  0.83396339  0.97249934  1
  O2-  O492  1  0.41982793  0.07912298  0.33044439  1
  O2-  O493  1  0.41242437  0.07697513  0.63566393  1
  O2-  O494  1  0.40531491  0.09400814  0.98899482  1
  O2-  O495  1  0.44106320  0.34098169  0.32549369  1
  O2-  O496  1  0.43439572  0.38744002  0.64412774  1
  O2-  O497  1  0.41839470  0.33308662  0.98034535  1
  O2-  O498  1  0.41329497  0.58173712  0.31754726  1
  O2-  O499  1  0.45012183  0.63616192  0.64655581  1
  O2-  O500  1  0.44160433  0.60552216  0.97864268  1
  O2-  O501  1  0.41697522  0.84072789  0.31721183  1
  O2-  O502  1  0.41143765  0.82920131  0.64592169  1
  O2-  O503  1  0.43173647  0.89004146  0.96583714  1
  O2-  O504  1  0.66342003  0.07978329  0.31163584  1
  O2-  O505  1  0.63559841  0.07708096  0.64700430  1
  O2-  O506  1  0.69347253  0.01758889  0.98121473  1
  O2-  O507  1  0.67638543  0.32382025  0.30617843  1
  O2-  O508  1  0.65670774  0.32250913  0.64624994  1
  O2-  O509  1  0.67324413  0.34839485  0.97866781  1
  O2-  O510  1  0.66216761  0.59600103  0.29926573  1
  O2-  O511  1  0.67460747  0.57633143  0.64772826  1
  O2-  O512  1  0.67705609  0.59736899  0.97960379  1
  O2-  O513  1  0.65582209  0.82404159  0.32354249  1
  O2-  O514  1  0.67267360  0.84611994  0.64627393  1
  O2-  O515  1  0.68526086  0.84976769  0.97161446  1
  O2-  O516  1  0.92950726  0.10999500  0.31212569  1
  O2-  O517  1  0.92987563  0.08078990  0.65179412  1
  O2-  O518  1  0.92689411  0.09811717  0.96415055  1
  O2-  O519  1  0.94552568  0.33746575  0.30337002  1
  O2-  O520  1  0.90427270  0.31847447  0.64783683  1
  O2-  O521  1  0.90865680  0.32924221  0.97795774  1
  O2-  O522  1  0.86204119  0.59222785  0.32815684  1
  O2-  O523  1  0.91103596  0.58743702  0.64664591  1
  O2-  O524  1  0.92373410  0.57087944  0.96931417  1
  O2-  O525  1  0.91997291  0.82618792  0.30746700  1
  O2-  O526  1  0.91606052  0.82352450  0.65098271  1
  O2-  O527  1  0.91032708  0.82421428  0.97976114  1
  O2-  O528  1  0.07757578  0.16098770  0.02694743  1
  O2-  O529  1  0.08804329  0.17734600  0.36413602  1
  O2-  O530  1  0.09006216  0.16458831  0.68605127  1
  O2-  O531  1  0.08614304  0.42330207  0.01657493  1
  O2-  O532  1  0.10103434  0.42503896  0.35941336  1
  O2-  O533  1  0.07146993  0.40801618  0.68058977  1
  O2-  O534  1  0.09011018  0.66655169  0.01469811  1
  O2-  O535  1  0.06509795  0.64338067  0.33291993  1
  O2-  O536  1  0.07148125  0.66696192  0.67786229  1
  O2-  O537  1  0.07609294  0.91008723  0.00758791  1
  O2-  O538  1  0.09283300  0.94395534  0.28336159  1
  O2-  O539  1  0.08712642  0.91247291  0.67585605  1
  O2-  O540  1  0.32216733  0.17221488  0.02775783  1
  O2-  O541  1  0.35427595  0.17309120  0.36420425  1
  O2-  O542  1  0.32141534  0.15078922  0.69230959  1
  O2-  O543  1  0.35970259  0.43790473  0.02400330  1
  O2-  O544  1  0.35214350  0.41709790  0.35955464  1
  O2-  O545  1  0.31267379  0.39025306  0.69878390  1
  O2-  O546  1  0.36093373  0.67190478  0.03482731  1
  O2-  O547  1  0.33681033  0.67300709  0.35674080  1
  O2-  O548  1  0.31226420  0.67113412  0.68891045  1
  O2-  O549  1  0.32251579  0.92199356  0.02042084  1
  O2-  O550  1  0.33651345  0.92269519  0.35729816  1
  O2-  O551  1  0.33002517  0.91607675  0.67380554  1
  O2-  O552  1  0.55037654  0.20071249  0.03605608  1
  O2-  O553  1  0.57951593  0.15828680  0.35526421  1
  O2-  O554  1  0.55619494  0.15950461  0.67720601  1
  O2-  O555  1  0.58596298  0.42655975  0.02109137  1
  O2-  O556  1  0.61315240  0.42728525  0.34367333  1
  O2-  O557  1  0.58533319  0.41156169  0.69204984  1
  O2-  O558  1  0.60418184  0.68700893  0.02249868  1
  O2-  O559  1  0.57619646  0.66233844  0.36242245  1
  O2-  O560  1  0.61755855  0.68175829  0.69093942  1
  O2-  O561  1  0.51813590  0.82977812  0.03204387  1
  O2-  O562  1  0.58421342  0.92028372  0.35844677  1
  O2-  O563  1  0.57879612  0.91856541  0.68548144  1
  O2-  O564  1  0.84318499  0.16692719  0.02356081  1
  O2-  O565  1  0.81875260  0.18154074  0.36221252  1
  O2-  O566  1  0.86265326  0.17612752  0.71241795  1
  O2-  O567  1  0.83761591  0.41941160  0.01933759  1
  O2-  O568  1  0.82247052  0.35535531  0.37013231  1
  O2-  O569  1  0.81455208  0.38489244  0.68866229  1
  O2-  O570  1  0.82735507  0.67203394  0.02800091  1
  O2-  O571  1  0.85139554  0.65033411  0.35219685  1
  O2-  O572  1  0.83811489  0.65931673  0.69507024  1
  O2-  O573  1  0.85572201  0.93127486  0.00829475  1
  O2-  O574  1  0.81455395  0.88705014  0.35993061  1
  O2-  O575  1  0.83911540  0.91515374  0.68814520  1
