# generated using pymatgen
data_H2O
_symmetry_space_group_name_H-M   'P 1'
_cell_length_a   17.98832917
_cell_length_b   17.99015635
_cell_length_c   21.98527412
_cell_angle_alpha   90.00182029
_cell_angle_beta   89.97460438
_cell_angle_gamma   119.99609987
_symmetry_Int_Tables_number   1
_chemical_formula_structural   H2O
_chemical_formula_sum   'H384 O192'
_cell_volume   6161.76731601
_cell_formula_units_Z   192
loop_
 _symmetry_equiv_pos_site_id
 _symmetry_equiv_pos_as_xyz
  1  'x, y, z'
loop_
 _atom_type_symbol
 _atom_type_oxidation_number
  H+  1.0
  O2-  -2.0
loop_
 _atom_site_type_symbol
 _atom_site_label
 _atom_site_symmetry_multiplicity
 _atom_site_fract_x
 _atom_site_fract_y
 _atom_site_fract_z
 _atom_site_occupancy
  H+  H0  1  0.83184448  0.16686060  0.24374501  1
  H+  H1  1  0.61440217  0.13435575  0.16031079  1
  H+  H2  1  0.25356233  0.13803703  0.16721154  1
  H+  H3  1  0.48797886  0.64013529  0.67145257  1
  H+  H4  1  0.90562057  0.54478860  0.99468983  1
  H+  H5  1  0.40762069  0.03140955  0.99827722  1
  H+  H6  1  0.36449402  0.48507879  0.49598472  1
  H+  H7  1  0.29123852  0.65303267  0.34477868  1
  H+  H8  1  0.92889904  0.35790641  0.50158864  1
  H+  H9  1  0.52934267  0.87589075  0.16550699  1
  H+  H10  1  0.38050972  0.74431878  0.33944765  1
  H+  H11  1  0.97596599  0.86269094  0.64875377  1
  H+  H12  1  0.62595449  0.90056023  0.67469481  1
  H+  H13  1  0.39077962  0.78460503  0.99636355  1
  H+  H14  1  0.86418507  0.97682637  0.83787768  1
  H+  H15  1  0.64405380  0.78527173  0.67500991  1
  H+  H16  1  0.38378582  0.63019742  0.51311380  1
  H+  H17  1  0.03761624  0.39763969  0.15723916  1
  H+  H18  1  1.00732038  0.11004490  0.52105124  1
  H+  H19  1  0.92888238  0.60125025  0.37679222  1
  H+  H20  1  0.36568062  0.22700436  0.49266946  1
  H+  H21  1  0.27846406  0.89402252  0.33597674  1
  H+  H22  1  0.06215669  0.92803890  0.76625035  1
  H+  H23  1  0.51850786  0.62684721  0.16172559  1
  H+  H24  1  0.84829694  0.63933339  0.82448895  1
  H+  H25  1  0.09423529  0.67269943  0.40388698  1
  H+  H26  1  0.08066120  0.42418328  0.76823814  1
  H+  H27  1  0.12151550  0.22727375  1.00873064  1
  H+  H28  1  0.35267855  0.81071015  0.48492490  1
  H+  H29  1  0.60946718  0.39942238  0.82453127  1
  H+  H30  1  0.67405335  0.33410422  0.26215788  1
  H+  H31  1  0.23635062  0.35255284  0.98946584  1
  H+  H32  1  0.22819396  0.34436468  0.65714359  1
  H+  H33  1  0.81299590  0.10008573  0.47151653  1
  H+  H34  1  0.61351035  0.38762721  0.32989213  1
  H+  H35  1  0.41224591  0.90238943  0.00801206  1
  H+  H36  1  0.62527599  0.52633911  0.66357852  1
  H+  H37  1  0.36780300  0.72748360  0.16653288  1
  H+  H38  1  0.14054295  0.11263752  0.99565852  1
  H+  H39  1  0.63155872  0.75804217  0.17407690  1
  H+  H40  1  0.64166603  0.11924761  0.66963952  1
  H+  H41  1  0.64884984  0.26828969  0.17241764  1
  H+  H42  1  0.35089870  0.38428155  0.16515237  1
  H+  H43  1  0.41416907  0.33458350  0.26090461  1
  H+  H44  1  0.15990701  0.52664604  0.99312762  1
  H+  H45  1  0.10499197  0.89020816  0.67582173  1
  H+  H46  1  0.77614476  0.63480087  0.01170119  1
  H+  H47  1  0.61502465  0.62342317  0.82179331  1
  H+  H48  1  0.47507908  0.59450934  0.83685782  1
  H+  H49  1  0.24384650  0.49561392  0.04533845  1
  H+  H50  1  -0.01776935  0.86319459  0.16234143  1
  H+  H51  1  0.86061676  0.87304482  0.17302523  1
  H+  H52  1  0.01890985  0.13158700  0.68391032  1
  H+  H53  1  0.37600065  0.01836859  0.18016553  1
  H+  H54  1  0.13132613  0.52344109  0.82959290  1
  H+  H55  1  0.52430323  0.39001013  0.67828116  1
  H+  H56  1  0.96824959  0.01881464  0.55347212  1
  H+  H57  1  0.52384839  0.14991848  0.83309626  1
  H+  H58  1  0.72230367  0.59562452  0.50586417  1
  H+  H59  1  0.85841213  0.88271178  0.83102681  1
  H+  H60  1  0.94849217  0.80043158  0.56685540  1
  H+  H61  1  0.27666007  0.65535598  0.79873880  1
  H+  H62  1  0.87051643  0.64927765  0.17004973  1
  H+  H63  1  0.63540708  0.28070070  0.83284848  1
  H+  H64  1  0.00493120  0.88732499  0.31701809  1
  H+  H65  1  0.62398263  0.00531181  0.17602304  1
  H+  H66  1  0.12195313  0.49161949  0.67855096  1
  H+  H67  1  0.39332020  0.62172464  0.32642088  1
  H+  H68  1  0.38832207  0.03811076  0.66136052  1
  H+  H69  1  0.93438169  0.09115781  0.26304072  1
  H+  H70  1  0.14616769  0.78170660  0.33428089  1
  H+  H71  1  0.12077323  0.23291103  0.49460029  1
  H+  H72  1  0.10757022  0.37407817  0.33447746  1
  H+  H73  1  1.02244536  0.62974862  0.48515838  1
  H+  H74  1  0.22624904  0.11639229  0.65533701  1
  H+  H75  1  0.52652714  0.14969810  0.34819055  1
  H+  H76  1  -0.01486226  0.37295346  0.03120496  1
  H+  H77  1  0.48464810  0.06163535  0.48273985  1
  H+  H78  1  0.98682468  0.63060439  0.19225455  1
  H+  H79  1  0.13202973  0.65371395  0.00891793  1
  H+  H80  1  0.59882335  0.71216819  0.00813767  1
  H+  H81  1  0.13473652  0.26768668  0.17625050  1
  H+  H82  1  0.38699925  0.35760287  0.66408968  1
  H+  H83  1  0.27567896  0.14276895  0.33682130  1
  H+  H84  1  0.21533335  0.85688251  0.51016395  1
  H+  H85  1  0.12652161  0.14554031  0.49474038  1
  H+  H86  1  0.28888239  1.00307806  0.73149213  1
  H+  H87  1  0.48321122  0.35152374  0.00192679  1
  H+  H88  1  0.39706651  0.87436424  0.33041680  1
  H+  H89  1  0.38564638  0.50801684  -0.00825068  1
  H+  H90  1  0.10919894  -0.01904484  0.66976895  1
  H+  H91  1  0.84618135  0.39749596  -0.00007635  1
  H+  H92  1  0.11746053  0.02710099  0.83815941  1
  H+  H93  1  0.12444311  0.14027062  0.16537621  1
  H+  H94  1  0.27060447  0.66246437  1.01022440  1
  H+  H95  1  0.15693606  0.53936286  0.49938399  1
  H+  H96  1  0.13308456  0.36852649  0.84134430  1
  H+  H97  1  0.88415384  0.58564059  0.50011770  1
  H+  H98  1  0.14993423  0.61905696  0.34885764  1
  H+  H99  1  0.88181451  0.88413545  0.50246411  1
  H+  H100  1  0.72844299  0.61408524  0.17710422  1
  H+  H101  1  0.63624971  0.86060347  0.52538629  1
  H+  H102  1  0.32395599  0.15836753  0.07112574  1
  H+  H103  1  0.30202863  0.89437582  0.83250858  1
  H+  H104  1  0.80152144  0.15763279  0.03060165  1
  H+  H105  1  0.75770246  0.43013193  0.49483250  1
  H+  H106  1  0.53639592  0.90281522  0.64844462  1
  H+  H107  1  0.62698013  0.61179861  0.32993747  1
  H+  H108  1  0.11553166  0.22526312  0.34375399  1
  H+  H109  1  0.86497046  0.76421153  0.83923307  1
  H+  H110  1  0.21780012  0.73874582  0.88172400  1
  H+  H111  1  0.42087759  0.81609849  0.62179838  1
  H+  H112  1  0.35437104  0.37739459  0.83216869  1
  H+  H113  1  0.91937708  0.08177171  0.95061542  1
  H+  H114  1  0.37896732  0.52160945  0.17286732  1
  H+  H115  1  0.10544785  0.23057106  0.83224682  1
  H+  H116  1  0.90004420  0.36777575  0.66346153  1
  H+  H117  1  0.64475750  0.52389430  0.99670743  1
  H+  H118  1  0.38958824  0.78361050  0.83907511  1
  H+  H119  1  0.75977476  0.65221510  0.67385045  1
  H+  H120  1  0.38885627  0.89845924  0.82771734  1
  H+  H121  1  0.55147291  0.09087550  0.42818909  1
  H+  H122  1  0.10107055  0.87854797  0.15513895  1
  H+  H123  1  0.36703488  0.98372040  0.34429728  1
  H+  H124  1  0.88462951  0.10026158  0.17848797  1
  H+  H125  1  0.23268504  0.36281230  0.50389071  1
  H+  H126  1  0.11822567  0.75826262  0.17975892  1
  H+  H127  1  0.37862585  0.09612037  0.50058151  1
  H+  H128  1  0.79092203  0.38889801  0.16297747  1
  H+  H129  1  0.64311326  0.28050628  0.32445973  1
  H+  H130  1  0.53117955  0.14297375  1.00383077  1
  H+  H131  1  0.62702178  0.52184496  0.32605588  1
  H+  H132  1  0.72369424  0.86031541  0.31933306  1
  H+  H133  1  0.17919776  0.56142596  0.38525009  1
  H+  H134  1  0.78888327  0.25235449  0.96517945  1
  H+  H135  1  0.89166340  0.76967999  0.16985833  1
  H+  H136  1  0.61724688  0.23314981  -0.00008052  1
  H+  H137  1  0.42868741  0.83267093  0.93039872  1
  H+  H138  1  0.66395162  0.14667052  0.99310392  1
  H+  H139  1  0.14357868  1.03871106  0.17599422  1
  H+  H140  1  0.75527193  0.10435345  0.17364799  1
  H+  H141  1  0.76904852  0.39875578  0.50860277  1
  H+  H142  1  0.13342645  0.02071106  0.99042421  1
  H+  H143  1  0.32897422  0.94567636  0.74355176  1
  H+  H144  1  1.00738818  0.76654338  0.53467226  1
  H+  H145  1  0.13554414  0.35904355  0.17937516  1
  H+  H146  1  0.52181224  0.38456220  0.32944291  1
  H+  H147  1  0.75288962  0.63223212  0.82719029  1
  H+  H148  1  0.70842845  0.10381429  0.51168593  1
  H+  H149  1  0.09973214  0.71431821  0.81553653  1
  H+  H150  1  0.86556069  0.38834248  0.32327323  1
  H+  H151  1  0.46894853  0.59839093  -0.00716062  1
  H+  H152  1  0.38200032  0.68929053  0.65339286  1
  H+  H153  1  0.39195128  0.26262837  0.00165859  1
  H+  H154  1  0.38520594  0.27638229  0.32104107  1
  H+  H155  1  0.38608204  0.61415622  0.16996039  1
  H+  H156  1  0.34971507  -0.05810004  0.49396330  1
  H+  H157  1  0.88004867  0.10275189  0.85519415  1
  H+  H158  1  0.52097158  0.63945286  0.34260914  1
  H+  H159  1  0.89982701  0.51146668  0.65222667  1
  H+  H160  1  0.47489175  0.37361782  0.84390897  1
  H+  H161  1  0.14771847  0.88866995  0.51040928  1
  H+  H162  1  0.86877858  0.36891867  0.82500981  1
  H+  H163  1  0.88937663  0.51661265  0.33651958  1
  H+  H164  1  0.03243403  0.13722014  0.15986507  1
  H+  H165  1  0.52049704  0.64469207  0.50115731  1
  H+  H166  1  0.69158857  0.35144103  0.74156046  1
  H+  H167  1  0.39219812  0.59520628  0.69704024  1
  H+  H168  1  0.88153219  0.77050645  -0.00137366  1
  H+  H169  1  0.58971313  0.21121940  0.40178657  1
  H+  H170  1  0.86870820  1.02410174  0.50266448  1
  H+  H171  1  0.60808330  0.62606733  0.16251088  1
  H+  H172  1  0.64654140  0.27315466  0.49040852  1
  H+  H173  1  0.87153926  0.69431139  0.49736991  1
  H+  H174  1  0.73304458  0.88983058  0.52092873  1
  H+  H175  1  0.48703392  0.87439133  0.33670925  1
  H+  H176  1  0.15155444  0.62856537  0.65468859  1
  H+  H177  1  -0.00655453  0.63475027  -0.00642574  1
  H+  H178  1  0.37466269  0.26343889  0.16391457  1
  H+  H179  1  0.32153642  0.89723524  0.01483047  1
  H+  H180  1  0.75797531  0.63089236  0.34413889  1
  H+  H181  1  0.52312777  0.84393302  -0.00216186  1
  H+  H182  1  0.15068601  0.41173282  0.48450081  1
  H+  H183  1  0.91222903  0.38334533  0.16052501  1
  H+  H184  1  0.08487217  0.16469893  0.40247690  1
  H+  H185  1  0.62813362  0.99663969  0.67125149  1
  H+  H186  1  0.72958419  0.36992272  0.82865278  1
  H+  H187  1  0.87791203  0.13923811  0.03428762  1
  H+  H188  1  0.84611469  0.63239731  0.33960974  1
  H+  H189  1  0.30258829  0.88582606  0.14730349  1
  H+  H190  1  0.40555440  0.86576389  0.17857369  1
  H+  H191  1  0.47475890  0.36013256  0.50305260  1
  H+  H192  1  0.27181575  0.12837395  0.00815584  1
  H+  H193  1  0.36581416  0.39329484  0.33759943  1
  H+  H194  1  0.10861275  0.14251713  0.83303483  1
  H+  H195  1  0.86370816  0.99729886  0.68879462  1
  H+  H196  1  0.11563942  0.73220313  0.66924201  1
  H+  H197  1  0.09620422  0.66379563  0.10622038  1
  H+  H198  1  0.97353244  0.11323377  0.84938093  1
  H+  H199  1  0.65304458  0.57608122  0.60007668  1
  H+  H200  1  0.88535896  0.27782721  0.29913102  1
  H+  H201  1  0.58594945  0.67005350  0.73765308  1
  H+  H202  1  0.00083666  0.89357948  0.82497369  1
  H+  H203  1  0.34023340  0.10107150  0.81546565  1
  H+  H204  1  0.01661201  0.39174385  0.82640275  1
  H+  H205  1  0.43496660  0.35433452  0.13289201  1
  H+  H206  1  0.78630062  0.15045945  0.67627979  1
  H+  H207  1  0.60936232  0.64709183  0.67159152  1
  H+  H208  1  0.83331754  0.15612178  0.12617408  1
  H+  H209  1  0.38982203  0.11123302  1.00072501  1
  H+  H210  1  0.78359912  0.43038639  0.01212045  1
  H+  H211  1  0.13551807  0.11421204  0.66192930  1
  H+  H212  1  0.87011652  0.64320399  1.00997720  1
  H+  H213  1  0.87824772  0.23791944  0.67405736  1
  H+  H214  1  0.52914010  0.14185913  0.67251956  1
  H+  H215  1  0.87526906  0.87717642  0.46873296  1
  H+  H216  1  0.48861624  0.86805579  0.56765304  1
  H+  H217  1  0.76642543  0.86903408  0.17451203  1
  H+  H218  1  0.85101936  0.46935822  0.81688362  1
  H+  H219  1  0.62530535  0.38336704  0.00628153  1
  H+  H220  1  0.39705531  0.12598968  0.64842780  1
  H+  H221  1  0.88401824  0.77721986  0.64890302  1
  H+  H222  1  -0.01578126  0.60294467  0.64497598  1
  H+  H223  1  0.60874702  -0.03660296  0.51596679  1
  H+  H224  1  0.11549336  0.82599300  0.79861735  1
  H+  H225  1  0.14056707  0.74513177  1.01625908  1
  H+  H226  1  0.96055364  0.32494180  1.03490980  1
  H+  H227  1  0.84633090  0.43247130  0.10423450  1
  H+  H228  1  0.27788665  0.63910627  0.16702332  1
  H+  H229  1  0.71545126  0.84849691  0.84134694  1
  H+  H230  1  0.88486908  0.86194971  1.00144438  1
  H+  H231  1  0.61553207  0.22992316  0.69035457  1
  H+  H232  1  0.63729562  0.37072420  0.69493246  1
  H+  H233  1  0.21694184  0.88071312  0.67200436  1
  H+  H234  1  0.12414983  -0.00899441  0.32927773  1
  H+  H235  1  0.73035608  0.32643919  0.95946124  1
  H+  H236  1  0.12242460  0.63065035  0.16663640  1
  H+  H237  1  0.23305845  0.63554534  0.50467616  1
  H+  H238  1  -0.01353311  0.11364471  0.00520171  1
  H+  H239  1  0.59149270  0.31456677  0.46944871  1
  H+  H240  1  0.97410418  0.36196453  0.31785918  1
  H+  H241  1  0.64164797  0.61082241  0.99746614  1
  H+  H242  1  0.27660798  0.13930232  0.49187505  1
  H+  H243  1  0.39866778  0.03070308  0.84385574  1
  H+  H244  1  0.14533136  0.84668150  0.82525748  1
  H+  H245  1  0.10497111  0.62800687  0.81901113  1
  H+  H246  1  0.22792115  0.36342898  0.33021474  1
  H+  H247  1  0.83528338  0.91848344  0.25566822  1
  H+  H248  1  0.10640118  0.46193506  0.33320041  1
  H+  H249  1  0.09413408  0.87239019  0.99664597  1
  H+  H250  1  0.16891408  0.08703849  0.56541953  1
  H+  H251  1  0.17416750  0.41152631  0.01213738  1
  H+  H252  1  0.36500226  0.48177472  0.33818737  1
  H+  H253  1  0.98282793  0.11866882  0.32831569  1
  H+  H254  1  0.61425921  0.72621522  0.50187715  1
  H+  H255  1  0.60689440  0.07124168  0.50946304  1
  H+  H256  1  0.26132188  0.38183451  0.16441778  1
  H+  H257  1  0.63486194  0.77292626  0.33294485  1
  H+  H258  1  0.03369842  0.40160910  0.67679752  1
  H+  H259  1  0.03228501  0.87746043  0.48902182  1
  H+  H260  1  0.79316787  0.39151585  0.67564308  1
  H+  H261  1  0.61989269  0.88241431  0.16143343  1
  H+  H262  1  0.90580529  0.88320285  0.30585540  1
  H+  H263  1  0.12073237  0.89779853  0.33487365  1
  H+  H264  1  0.14162840  0.11527130  0.32418065  1
  H+  H265  1  0.13813535  0.02959868  0.50415461  1
  H+  H266  1  0.83556642  0.66445879  0.10521442  1
  H+  H267  1  0.36133422  0.46266074  0.68213278  1
  H+  H268  1  0.36417907  0.22682057  0.66921419  1
  H+  H269  1  0.72591225  0.11689700  0.31376733  1
  H+  H270  1  0.61396740  0.96009122  0.85345041  1
  H+  H271  1  0.04616947  0.64227881  0.33863142  1
  H+  H272  1  0.92354998  0.48058257  0.47778129  1
  H+  H273  1  0.34676093  0.13890181  0.16475727  1
  H+  H274  1  0.41582797  0.08735067  0.27818083  1
  H+  H275  1  0.29001975  0.68005628  0.64852756  1
  H+  H276  1  0.24814968  0.09445069  0.80971672  1
  H+  H277  1  0.04674867  0.76178420  0.21313581  1
  H+  H278  1  0.89580505  0.01811681  0.17863253  1
  H+  H279  1  0.22085795  0.90974506  0.97519589  1
  H+  H280  1  0.63510974  0.59922321  0.50240566  1
  H+  H281  1  0.38997091  0.12280407  0.33524537  1
  H+  H282  1  0.88920740  0.25889236  0.51386007  1
  H+  H283  1  0.87480546  0.97828133  0.02134361  1
  H+  H284  1  0.88568759  0.12471574  0.67107248  1
  H+  H285  1  0.60979599  0.45844972  0.48700732  1
  H+  H286  1  0.61445968  0.88951852  0.35009587  1
  H+  H287  1  0.08141044  0.52887641  0.96464424  1
  H+  H288  1  0.08238726  0.16484038  0.74015476  1
  H+  H289  1  0.51913229  0.88284516  0.84872266  1
  H+  H290  1  0.80308874  0.16766091  0.43096973  1
  H+  H291  1  0.82062492  0.98560404  0.43980303  1
  H+  H292  1  0.68098920  0.84498977  0.61555537  1
  H+  H293  1  0.70743518  0.11866018  0.94041070  1
  H+  H294  1  0.32537558  0.14942776  0.72009023  1
  H+  H295  1  0.15656546  0.83001057  0.27205583  1
  H+  H296  1  0.66802073  0.33981462  0.91795850  1
  H+  H297  1  0.57864550  0.65467926  0.06710174  1
  H+  H298  1  0.91465524  0.58946607  0.89490954  1
  H+  H299  1  0.30618506  0.02472093  0.21765967  1
  H+  H300  1  0.66744861  0.08837041  0.60837027  1
  H+  H301  1  0.41587825  0.56819549  0.89642749  1
  H+  H302  1  0.85024479  0.32255367  0.91476204  1
  H+  H303  1  0.08131109  0.91285977  0.09261339  1
  H+  H304  1  0.56926230  0.90042826  0.46028534  1
  H+  H305  1  0.08241665  0.92723343  0.42771845  1
  H+  H306  1  0.61626564  0.97867413  0.35449038  1
  H+  H307  1  0.61584095  0.49467955  0.82764201  1
  H+  H308  1  0.93737862  0.62106740  0.25461432  1
  H+  H309  1  0.77214056  0.90036597  0.68955461  1
  H+  H310  1  0.41780306  0.33637083  0.90322098  1
  H+  H311  1  0.14667370  0.51869629  0.18146942  1
  H+  H312  1  0.83461428  0.92997947  0.75617495  1
  H+  H313  1  0.10587245  0.42766674  0.42799638  1
  H+  H314  1  0.62995255  0.32053378  0.58771320  1
  H+  H315  1  0.60828129  0.71095827  0.82496913  1
  H+  H316  1  0.13855241  0.25814803  0.65548250  1
  H+  H317  1  0.66470449  0.36660665  0.58409380  1
  H+  H318  1  0.82307834  0.64699732  0.43590527  1
  H+  H319  1  0.89874104  0.82520454  0.89957547  1
  H+  H320  1  0.17748308  0.59455993  0.59640689  1
  H+  H321  1  0.41873548  0.33400744  0.60206610  1
  H+  H322  1  0.36790565  0.37188103  0.01322945  1
  H+  H323  1  0.33411974  0.17451838  0.39776499  1
  H+  H324  1  0.11559612  0.63993213  0.48864185  1
  H+  H325  1  0.34915081  0.69401415  0.42957914  1
  H+  H326  1  0.62838503  0.47967453  0.16541182  1
  H+  H327  1  0.16778466  0.32704473  0.27078906  1
  H+  H328  1  0.64246406  0.12041011  0.33605133  1
  H+  H329  1  0.57735219  0.66760807  0.40426322  1
  H+  H330  1  0.59862234  0.41109974  0.06820501  1
  H+  H331  1  0.86588737  0.14278344  0.30236529  1
  H+  H332  1  0.22141135  0.36492341  0.83954907  1
  H+  H333  1  0.33715133  0.70897926  0.74400667  1
  H+  H334  1  0.32133841  0.81172839  0.88342757  1
  H+  H335  1  0.08059747  0.66219677  0.72243322  1
  H+  H336  1  -0.03631422  0.60861355  0.83242782  1
  H+  H337  1  0.17180866  0.32865789  0.56237869  1
  H+  H338  1  0.40683004  0.59633410  0.57279328  1
  H+  H339  1  0.12028659  0.43416920  0.10833430  1
  H+  H340  1  0.35935500  0.46877667  0.82864364  1
  H+  H341  1  0.22986290  0.83289128  0.94665458  1
  H+  H342  1  0.64558705  0.06584722  0.23557824  1
  H+  H343  1  0.84487687  0.41894875  0.73793642  1
  H+  H344  1  0.77669318  0.38974831  0.33235554  1
  H+  H345  1  0.16688488  0.84771121  0.60782644  1
  H+  H346  1  0.66380411  0.58421399  0.88994115  1
  H+  H347  1  0.59459217  0.17325050  0.10160368  1
  H+  H348  1  0.92120740  0.08354687  0.61783148  1
  H+  H349  1  0.17016725  0.33441867  0.93327728  1
  H+  H350  1  0.66522522  0.58295880  0.23542130  1
  H+  H351  1  0.57794402  0.42902640  0.74098528  1
  H+  H352  1  0.41679786  0.08988287  0.90257056  1
  H+  H353  1  0.41740219  0.58730818  0.26620323  1
  H+  H354  1  0.09629073  0.17059069  0.07023281  1
  H+  H355  1  0.88655073  0.41929550  0.42127101  1
  H+  H356  1  0.42778541  0.83418471  0.24044253  1
  H+  H357  1  0.87155831  0.27911752  0.82943655  1
  H+  H358  1  0.54540063  0.38700599  0.16928279  1
  H+  H359  1  0.93957838  0.35183091  0.21868969  1
  H+  H360  1  0.32915038  0.40283409  0.06820593  1
  H+  H361  1  0.31446630  0.69458833  0.07446079  1
  H+  H362  1  0.17291212  0.09213042  0.25943869  1
  H+  H363  1  0.93909472  0.84252506  0.25179854  1
  H+  H364  1  0.65508725  0.36110267  0.17244413  1
  H+  H365  1  0.17361149  0.57728588  0.24169173  1
  H+  H366  1  0.92501532  0.56363507  0.55843488  1
  H+  H367  1  0.39001628  0.36739185  0.50685070  1
  H+  H368  1  0.87295201  0.98373618  0.31051716  1
  H+  H369  1  0.16578205  0.08717234  0.89588937  1
  H+  H370  1  0.81855786  0.68327204  0.73291477  1
  H+  H371  1  0.16986082  0.58511729  0.88600720  1
  H+  H372  1  0.62510347  0.84197160  0.84754552  1
  H+  H373  1  0.00854090  0.87783446  0.00049725  1
  H+  H374  1  0.33026935  0.40459047  0.74274892  1
  H+  H375  1  0.37724412  0.93068635  0.09921725  1
  H+  H376  1  0.57540943  0.40906356  0.42361347  1
  H+  H377  1  0.65634184  0.81757976  0.23440566  1
  H+  H378  1  0.84021242  0.91601090  0.07832364  1
  H+  H379  1  0.92965731  0.33343387  0.60447926  1
  H+  H380  1  0.34210083  0.42861507  0.43511928  1
  H+  H381  1  0.40914435  0.07010209  0.56110007  1
  H+  H382  1  0.32205660  0.89728402  0.43031620  1
  H+  H383  1  0.58176635  0.16753833  0.77473167  1
  O2-  O384  1  0.09357806  0.17092503  0.14690320  1
  O2-  O385  1  0.08956283  0.17017484  0.48173799  1
  O2-  O386  1  0.07408051  0.16921600  0.81861299  1
  O2-  O387  1  0.10470413  0.42660321  0.15189137  1
  O2-  O388  1  0.14714644  0.45743550  0.46117991  1
  O2-  O389  1  0.07848715  0.42144960  0.81499333  1
  O2-  O390  1  0.09173452  0.66018625  0.15128512  1
  O2-  O391  1  0.08287156  0.66500114  0.46931870  1
  O2-  O392  1  0.07051920  0.65428875  0.80294170  1
  O2-  O393  1  0.07973000  0.91550207  0.13791936  1
  O2-  O394  1  0.08430535  0.93000003  0.47268064  1
  O2-  O395  1  0.06042095  0.93324231  0.81121315  1
  O2-  O396  1  0.31963678  0.17025445  0.14750287  1
  O2-  O397  1  0.33623283  0.16787802  0.47495755  1
  O2-  O398  1  0.29510265  0.09390976  0.78582758  1
  O2-  O399  1  0.32222816  0.41437928  0.14809853  1
  O2-  O400  1  0.34159890  0.42583122  0.48047272  1
  O2-  O401  1  0.32338112  0.40623074  0.81398533  1
  O2-  O402  1  0.33506382  0.66946795  0.14665292  1
  O2-  O403  1  0.33858771  0.69341746  0.47528362  1
  O2-  O404  1  0.33655764  0.69567902  0.78759523  1
  O2-  O405  1  0.36404337  0.92633029  0.14480268  1
  O2-  O406  1  0.31768790  0.88427983  0.47484505  1
  O2-  O407  1  0.35791138  0.93040195  0.81272369  1
  O2-  O408  1  0.59371174  0.17365664  0.14665681  1
  O2-  O409  1  0.53155798  0.05432923  0.46442578  1
  O2-  O410  1  0.58443084  0.17929590  0.81892668  1
  O2-  O411  1  0.60201313  0.41873186  0.14984763  1
  O2-  O412  1  0.57386231  0.40031441  0.46870203  1
  O2-  O413  1  0.57806567  0.42935932  0.81231076  1
  O2-  O414  1  0.57903581  0.65700906  0.14654549  1
  O2-  O415  1  0.57940948  0.66823940  0.48423004  1
  O2-  O416  1  0.58040190  0.65230934  0.80566769  1
  O2-  O417  1  0.58859920  0.91261088  0.15013016  1
  O2-  O418  1  0.57702535  0.90091166  0.50476586  1
  O2-  O419  1  0.57887939  0.90385618  0.83485077  1
  O2-  O420  1  0.81948429  0.13543592  0.16994597  1
  O2-  O421  1  0.80657404  0.15211288  0.47286865  1
  O2-  O422  1  0.79823604  0.13617666  0.83269928  1
  O2-  O423  1  0.85070706  0.42668060  0.14855187  1
  O2-  O424  1  0.92705512  0.43432746  0.45522937  1
  O2-  O425  1  0.82336102  0.41004612  0.80157406  1
  O2-  O426  1  0.83338714  0.66925410  0.15083507  1
  O2-  O427  1  0.82558860  0.63810992  0.48096077  1
  O2-  O428  1  0.81829609  0.67087883  0.81312015  1
  O2-  O429  1  0.83115198  0.90762710  0.17257948  1
  O2-  O430  1  0.81268250  1.00330205  0.48002059  1
  O2-  O431  1  0.83332493  0.91992482  0.81642248  1
  O2-  O432  1  0.17328951  0.09743466  0.19215689  1
  O2-  O433  1  0.17214834  0.08984429  0.51965288  1
  O2-  O434  1  0.15978332  0.08852175  0.85103730  1
  O2-  O435  1  0.16511694  0.32759561  0.19425621  1
  O2-  O436  1  0.17124583  0.33342586  0.51627313  1
  O2-  O437  1  0.16146775  0.33657126  0.85687658  1
  O2-  O438  1  0.17493482  0.58050451  0.19730877  1
  O2-  O439  1  0.17336585  0.59663528  0.51841694  1
  O2-  O440  1  0.16383889  0.58674344  0.84153726  1
  O2-  O441  1  0.10746334  0.80122385  0.20148131  1
  O2-  O442  1  0.16561961  0.85257522  0.53269433  1
  O2-  O443  1  0.25546604  0.79887657  0.89166886  1
  O2-  O444  1  0.36596762  0.05914803  0.20498600  1
  O2-  O445  1  0.39859250  0.05754098  0.51654942  1
  O2-  O446  1  0.41622778  0.09036324  0.85721791  1
  O2-  O447  1  0.41439424  0.32909390  0.17300391  1
  O2-  O448  1  0.41611488  0.33307585  0.52161779  1
  O2-  O449  1  0.41436690  0.33928841  0.85866822  1
  O2-  O450  1  0.41350631  0.58214868  0.18739896  1
  O2-  O451  1  0.40932457  0.59583904  0.52797380  1
  O2-  O452  1  0.41445395  0.56302262  0.85130757  1
  O2-  O453  1  0.42494608  0.82691496  0.19513368  1
  O2-  O454  1  0.38924375  0.78367701  0.49309356  1
  O2-  O455  1  0.40471630  0.83399301  0.86567304  1
  O2-  O456  1  0.65117959  0.06748356  0.19083094  1
  O2-  O457  1  0.65372371  0.06877472  0.53402894  1
  O2-  O458  1  0.72385372  0.10277736  0.85603812  1
  O2-  O459  1  0.68238765  0.32951196  0.18940764  1
  O2-  O460  1  0.59633849  0.26173074  0.46652542  1
  O2-  O461  1  0.66704728  0.34423320  0.84358985  1
  O2-  O462  1  0.66689982  0.57980538  0.18981144  1
  O2-  O463  1  0.65998795  0.56491525  0.51805136  1
  O2-  O464  1  0.66399549  0.58256392  0.84537584  1
  O2-  O465  1  0.66488579  0.81867402  0.18954440  1
  O2-  O466  1  0.67924213  0.84245120  0.53762274  1
  O2-  O467  1  0.65578435  0.80907682  0.85304244  1
  O2-  O468  1  0.92702347  0.08030674  0.18860469  1
  O2-  O469  1  0.95478475  0.06383235  0.54426395  1
  O2-  O470  1  0.91480810  0.07695966  0.86775900  1
  O2-  O471  1  0.94684613  0.35617908  0.17375114  1
  O2-  O472  1  0.93238278  0.31547966  0.52902086  1
  O2-  O473  1  0.89989203  0.33745962  0.84580986  1
  O2-  O474  1  0.95048877  0.64873962  0.21421185  1
  O2-  O475  1  0.92595737  0.56718842  0.51158710  1
  O2-  O476  1  0.90565203  0.58418903  0.85038101  1
  O2-  O477  1  0.92517019  0.83124207  0.18479488  1
  O2-  O478  1  0.96513099  0.78390631  0.52512060  1
  O2-  O479  1  0.89621966  0.82676016  0.85447692  1
  O2-  O480  1  0.17332741  0.08746724  0.30761481  1
  O2-  O481  1  0.16463413  0.08546142  0.64186103  1
  O2-  O482  1  0.16920249  0.08165220  0.97821962  1
  O2-  O483  1  0.16693128  0.32871049  0.31650849  1
  O2-  O484  1  0.17402904  0.31348586  0.63413282  1
  O2-  O485  1  0.17466587  0.33236541  0.97893018  1
  O2-  O486  1  0.17998199  0.58391226  0.34448261  1
  O2-  O487  1  0.18687244  0.60253781  0.64130540  1
  O2-  O488  1  0.14329127  0.56490370  0.96998237  1
  O2-  O489  1  0.17071370  0.84082104  0.31629721  1
  O2-  O490  1  0.16049757  0.83994791  0.65330037  1
  O2-  O491  1  0.21562088  0.85478766  0.98600789  1
  O2-  O492  1  0.42234272  0.09279198  0.32310285  1
  O2-  O493  1  0.42586025  0.09194668  0.63829138  1
  O2-  O494  1  0.42580713  0.08952145  0.98143192  1
  O2-  O495  1  0.41619518  0.33721934  0.30557900  1
  O2-  O496  1  0.41962745  0.33048606  0.64737753  1
  O2-  O497  1  0.42178612  0.32454108  0.98983120  1
  O2-  O498  1  0.41903781  0.58691980  0.31177209  1
  O2-  O499  1  0.42439184  0.61160477  0.65898742  1
  O2-  O500  1  0.40896582  0.56778664  0.97768644  1
  O2-  O501  1  0.42837949  0.84413403  0.31728858  1
  O2-  O502  1  0.46948175  0.87325282  0.60876413  1
  O2-  O503  1  0.44011517  0.83666518  0.97745642  1
  O2-  O504  1  0.66255678  0.08186398  0.32055623  1
  O2-  O505  1  0.67285148  0.08950553  0.65395139  1
  O2-  O506  1  0.71740916  0.14660872  0.98035975  1
  O2-  O507  1  0.67133312  0.33993666  0.30805807  1
  O2-  O508  1  0.67001478  0.33901088  0.69975188  1
  O2-  O509  1  0.67907393  0.33456329  0.96288506  1
  O2-  O510  1  0.65731248  0.58304419  0.31208603  1
  O2-  O511  1  0.64978735  0.58461340  0.64439579  1
  O2-  O512  1  0.67686744  0.58478855  0.98406647  1
  O2-  O513  1  0.66071728  0.83170583  0.31438131  1
  O2-  O514  1  0.67695020  0.84748126  0.66109709  1
  O2-  O515  1  0.61625813  0.81797773  0.98731724  1
  O2-  O516  1  0.92453394  0.08944531  0.30854143  1
  O2-  O517  1  0.91265391  0.08540192  0.66212877  1
  O2-  O518  1  0.92371706  0.08246669  0.99564901  1
  O2-  O519  1  0.91799519  0.34195224  0.29663224  1
  O2-  O520  1  0.93129254  0.33715808  0.65009519  1
  O2-  O521  1  0.81907788  0.31474853  0.95444095  1
  O2-  O522  1  0.92386009  0.58307668  0.33442605  1
  O2-  O523  1  0.92618263  0.56609193  0.62803692  1
  O2-  O524  1  0.93380753  0.60465336  0.97807196  1
  O2-  O525  1  0.94153379  0.85374018  0.29857958  1
  O2-  O526  1  0.92403434  0.82827721  0.62332864  1
  O2-  O527  1  0.91162835  0.82999267  0.98140479  1
  O2-  O528  1  0.09396815  0.16725338  0.02445428  1
  O2-  O529  1  0.08369000  0.16369927  0.35694554  1
  O2-  O530  1  0.08091757  0.15868313  0.69483217  1
  O2-  O531  1  0.18283172  0.46486235  0.03515869  1
  O2-  O532  1  0.07317688  0.40181221  0.34673956  1
  O2-  O533  1  0.09016192  0.43467339  0.69793227  1
  O2-  O534  1  0.10375622  0.68388275  0.02650189  1
  O2-  O535  1  0.10421839  0.67648591  0.35610025  1
  O2-  O536  1  0.08975298  0.66939799  0.67783288  1
  O2-  O537  1  0.07204632  0.90767969  0.01354554  1
  O2-  O538  1  0.08835615  0.92857275  0.34415926  1
  O2-  O539  1  0.07438738  0.92196566  0.68699256  1
  O2-  O540  1  0.33103783  0.15638266  0.02590233  1
  O2-  O541  1  0.33648505  0.17565635  0.35196066  1
  O2-  O542  1  0.33174598  0.16300348  0.67544924  1
  O2-  O543  1  0.33237994  0.39926852  0.02321055  1
  O2-  O544  1  0.33528240  0.42190396  0.35480096  1
  O2-  O545  1  0.33289392  0.40317623  0.69591158  1
  O2-  O546  1  0.30094680  0.71360669  0.03528308  1
  O2-  O547  1  0.35309834  0.68381212  0.35637039  1
  O2-  O548  1  0.35218064  0.72239223  0.65822334  1
  O2-  O549  1  0.38271987  0.93223104  0.02730336  1
  O2-  O550  1  0.33770031  0.92086434  0.35322039  1
  O2-  O551  1  0.30482343  0.96474550  0.70985521  1
  O2-  O552  1  0.59202340  0.17496483  0.01839805  1
  O2-  O553  1  0.58699838  0.17847674  0.36374661  1
  O2-  O554  1  0.58621939  0.16564263  0.69272259  1
  O2-  O555  1  0.59287458  0.40968246  0.02316664  1
  O2-  O556  1  0.58158469  0.41608454  0.34588411  1
  O2-  O557  1  0.58346791  0.42583026  0.69460282  1
  O2-  O558  1  0.57929054  0.65266018  0.02178298  1
  O2-  O559  1  0.58109306  0.66929955  0.35885103  1
  O2-  O560  1  0.58585420  0.68143133  0.69112276  1
  O2-  O561  1  0.57852856  0.85082848  0.02017989  1
  O2-  O562  1  0.58523365  0.91816523  0.36933602  1
  O2-  O563  1  0.59136854  0.93061781  0.67964924  1
  O2-  O564  1  0.85382215  0.17217447  0.05407690  1
  O2-  O565  1  0.83230482  0.17061306  0.28943456  1
  O2-  O566  1  0.84704526  0.17633658  0.68868041  1
  O2-  O567  1  0.84236425  0.44450972  0.02231558  1
  O2-  O568  1  0.83864543  0.41886490  0.34428176  1
  O2-  O569  1  0.85314050  0.41985350  0.68947189  1
  O2-  O570  1  0.83642085  0.66756551  0.02888824  1
  O2-  O571  1  0.81753373  0.65908601  0.36087772  1
  O2-  O572  1  0.81928514  0.68968771  0.68791246  1
  O2-  O573  1  0.84727470  0.91687461  0.03418181  1
  O2-  O574  1  0.84284704  0.92008300  0.30070337  1
  O2-  O575  1  0.83290943  0.93499122  0.70610842  1
