# generated using pymatgen
data_H2O
_symmetry_space_group_name_H-M   'P 1'
_cell_length_a   17.97307544
_cell_length_b   17.97670794
_cell_length_c   21.95917484
_cell_angle_alpha   89.97222133
_cell_angle_beta   90.03613663
_cell_angle_gamma   119.97430216
_symmetry_Int_Tables_number   1
_chemical_formula_structural   H2O
_chemical_formula_sum   'H384 O192'
_cell_volume   6145.98527045
_cell_formula_units_Z   192
loop_
 _symmetry_equiv_pos_site_id
 _symmetry_equiv_pos_as_xyz
  1  'x, y, z'
loop_
 _atom_type_symbol
 _atom_type_oxidation_number
  H+  1.0
  O2-  -2.0
loop_
 _atom_site_type_symbol
 _atom_site_label
 _atom_site_symmetry_multiplicity
 _atom_site_fract_x
 _atom_site_fract_y
 _atom_site_fract_z
 _atom_site_occupancy
  H+  H0  1  0.38690057  0.76958307  0.33283504  1
  H+  H1  1  0.46774900  0.10318689  0.83942554  1
  H+  H2  1  0.64669059  0.35985323  0.32683945  1
  H+  H3  1  0.48020575  0.86639098  0.18726877  1
  H+  H4  1  0.51996509  0.35360968  0.47768642  1
  H+  H5  1  0.01892449  0.89071310  0.66933298  1
  H+  H6  1  0.86245751  0.84602311  0.50142572  1
  H+  H7  1  0.59986590  0.62385229  0.82203489  1
  H+  H8  1  0.13117061  0.26355816  0.84118863  1
  H+  H9  1  0.86628290  0.98024223  0.83239182  1
  H+  H10  1  0.12749683  0.86500239  0.98411665  1
  H+  H11  1  0.15940496  0.54431132  0.49966469  1
  H+  H12  1  0.26892118  0.88517168  0.37706501  1
  H+  H13  1  0.47565695  0.35694830  0.84284904  1
  H+  H14  1  0.83785541  0.70747689  0.49253644  1
  H+  H15  1  0.02450301  0.88052488  0.16621851  1
  H+  H16  1  0.36675037  0.09889663  0.18032307  1
  H+  H17  1  0.81540917  0.65083400  0.43198242  1
  H+  H18  1  0.64472528  0.34071518  0.85000708  1
  H+  H19  1  0.64010978  0.86264305  0.65436279  1
  H+  H20  1  0.38285976  0.53509803  0.65789609  1
  H+  H21  1  0.36199667  0.96155417  0.17105141  1
  H+  H22  1  0.13087203  0.29489601  0.52364502  1
  H+  H23  1  0.33229663  0.41847057  0.10024923  1
  H+  H24  1  0.38554076  0.33629279  0.35299556  1
  H+  H25  1  0.87328834  0.38640265  0.33337935  1
  H+  H26  1  0.37339729  0.48495575  0.00839413  1
  H+  H27  1  0.11404753  -0.03015032  0.16839322  1
  H+  H28  1  0.36846877  0.52943875  0.31646273  1
  H+  H29  1  0.23006063  0.09504293  0.17684260  1
  H+  H30  1  0.58874591  0.94674069  0.82433485  1
  H+  H31  1  0.61148254  -0.02664350  0.49306213  1
  H+  H32  1  0.21898128  0.59323885  0.84250481  1
  H+  H33  1  0.46362071  0.59767788  0.84102553  1
  H+  H34  1  0.22337808  0.60553066  0.65731697  1
  H+  H35  1  0.60237007  0.96545440  0.33545055  1
  H+  H36  1  0.37490301  1.01895481  0.83995294  1
  H+  H37  1  0.95163007  0.02015944  0.55079527  1
  H+  H38  1  0.10742906  0.69214876  0.69067493  1
  H+  H39  1  0.37060603  0.97625961  0.00956869  1
  H+  H40  1  0.10557135  0.72796422  0.48947047  1
  H+  H41  1  0.73488615  0.35710047  0.32587079  1
  H+  H42  1  0.74237696  0.62405591  0.99523935  1
  H+  H43  1  0.64542636  0.53396837  0.84480762  1
  H+  H44  1  0.62619594  0.00398708  1.00661596  1
  H+  H45  1  0.14292812  1.02021142  0.84614356  1
  H+  H46  1  0.24402178  0.38658857  1.00329254  1
  H+  H47  1  0.35917173  0.62913048  0.82865360  1
  H+  H48  1  0.64389280  0.27410931  0.51702547  1
  H+  H49  1  0.36426381  0.71737720  0.11502234  1
  H+  H50  1  0.87001989  0.89261163  0.83334717  1
  H+  H51  1  0.62929400  0.85391622  0.32502184  1
  H+  H52  1  0.08709120  0.91685289  0.07184975  1
  H+  H53  1  0.38674147  0.26837113  0.84152708  1
  H+  H54  1  0.11538823  0.65258517  0.00896200  1
  H+  H55  1  0.13603665  0.38021482  1.00416817  1
  H+  H56  1  0.77142917  0.63091943  0.67239801  1
  H+  H57  1  0.48072344  0.09059535  0.19380011  1
  H+  H58  1  0.73851345  0.61959225  0.84426355  1
  H+  H59  1  0.40932036  0.13708250  0.50816594  1
  H+  H60  1  0.46923573  0.91964955  0.87632779  1
  H+  H61  1  0.73345020  0.34145442  0.84364215  1
  H+  H62  1  0.63606855  0.62228092  0.17228324  1
  H+  H63  1  0.02392996  0.63769036  0.16309948  1
  H+  H64  1  0.35288771  0.21677460  0.42758602  1
  H+  H65  1  0.85044327  0.11132066  1.00320568  1
  H+  H66  1  0.48497299  0.47331449  0.70150638  1
  H+  H67  1  0.47790064  0.10591483  0.34814222  1
  H+  H68  1  0.33425215  0.16623363  0.73560362  1
  H+  H69  1  0.38892570  0.63007576  0.50365953  1
  H+  H70  1  0.36058756  0.64167937  0.33425924  1
  H+  H71  1  0.36519836  0.87121593  0.49346936  1
  H+  H72  1  0.51493196  0.89958099  0.48309720  1
  H+  H73  1  0.36871637  0.18728752  0.18031549  1
  H+  H74  1  0.47764156  0.39184811  0.66855258  1
  H+  H75  1  0.98211510  0.10301836  0.16342689  1
  H+  H76  1  0.86126667  0.97574003  0.68192400  1
  H+  H77  1  0.98131545  0.10693115  0.51743615  1
  H+  H78  1  0.60469404  0.12825801  1.01908368  1
  H+  H79  1  0.96877841  0.59737693  0.66263062  1
  H+  H80  1  0.36412746  0.77182989  0.49063348  1
  H+  H81  1  0.52434759  0.63995553  0.66356606  1
  H+  H82  1  0.91532590  0.23567038  0.51580464  1
  H+  H83  1  0.27133907  0.13363828  0.67684145  1
  H+  H84  1  0.38244448  0.11284576  0.66258112  1
  H+  H85  1  0.85640256  0.62991914  0.16342358  1
  H+  H86  1  0.73507235  0.10892800  0.14392921  1
  H+  H87  1  0.57169589  0.65653680  0.39423216  1
  H+  H88  1  0.11107178  0.38164350  0.33285572  1
  H+  H89  1  0.97854223  0.11425255  0.85018195  1
  H+  H90  1  0.86717448  0.72408640  0.00888867  1
  H+  H91  1  0.60719853  0.21641721  0.16915722  1
  H+  H92  1  0.87946397  0.22289753  0.34422778  1
  H+  H93  1  0.62708164  0.51294465  0.31776540  1
  H+  H94  1  0.64421555  0.62396917  0.99571898  1
  H+  H95  1  0.09846414  0.37673442  0.67716311  1
  H+  H96  1  0.22368151  0.36124877  0.17073499  1
  H+  H97  1  0.13052896  0.50434559  0.84938784  1
  H+  H98  1  0.36277092  0.38380733  0.83470669  1
  H+  H99  1  0.85278020  0.10197804  0.48699902  1
  H+  H100  1  0.78024005  0.38939295  0.48216525  1
  H+  H101  1  0.17289134  0.58838846  0.25579379  1
  H+  H102  1  0.88447597  0.51692848  -0.00450075  1
  H+  H103  1  0.13891927  0.76893663  0.18233743  1
  H+  H104  1  0.61498544  0.72661555  0.66996609  1
  H+  H105  1  0.61553383  0.96877953  0.15153294  1
  H+  H106  1  0.95895131  0.84431101  0.32352151  1
  H+  H107  1  0.36701842  0.13394081  0.35299002  1
  H+  H108  1  0.12564589  0.13504153  0.15858819  1
  H+  H109  1  0.13153707  0.27227376  0.67440189  1
  H+  H110  1  0.14230552  0.76616220  0.33726423  1
  H+  H111  1  0.73064298  0.86328744  0.66076925  1
  H+  H112  1  0.28003984  0.74478931  0.96629836  1
  H+  H113  1  0.11419499  0.98132481  0.01484267  1
  H+  H114  1  0.36829685  0.27676493  0.12394931  1
  H+  H115  1  0.88399241  0.51059796  0.84449815  1
  H+  H116  1  0.59882638  0.62062992  0.49225976  1
  H+  H117  1  0.84495298  0.96004968  0.48891979  1
  H+  H118  1  0.62835582  0.34951487  0.17275935  1
  H+  H119  1  0.70469628  0.59041354  0.49886682  1
  H+  H120  1  0.88249929  0.76719701  0.17197781  1
  H+  H121  1  0.88016919  0.36541265  0.67230147  1
  H+  H122  1  0.13845937  0.62226006  0.50798695  1
  H+  H123  1  0.32109038  0.43461468  0.75187348  1
  H+  H124  1  0.76419027  0.88101620  0.33597178  1
  H+  H125  1  0.28293273  0.48919715  0.72641303  1
  H+  H126  1  0.17919237  0.60109383  0.93964598  1
  H+  H127  1  0.22518914  0.60997841  0.14724774  1
  H+  H128  1  0.76708124  0.37933494  0.18700755  1
  H+  H129  1  -0.02275758  0.36610819  0.67125895  1
  H+  H130  1  0.36060108  0.98863124  0.67776988  1
  H+  H131  1  0.47328860  1.09738069  -0.00070765  1
  H+  H132  1  0.11884785  0.47484039  0.32805767  1
  H+  H133  1  0.72869889  0.86226065  0.84904618  1
  H+  H134  1  0.61595485  0.72596723  0.15839590  1
  H+  H135  1  0.84378589  0.18545185  0.74607183  1
  H+  H136  1  0.88330588  0.13650943  0.33722137  1
  H+  H137  1  0.86245396  0.36296205  0.82626584  1
  H+  H138  1  0.89460779  0.02051661  0.31705766  1
  H+  H139  1  0.33788573  0.86492530  0.01166598  1
  H+  H140  1  0.13662065  0.88986637  0.65118463  1
  H+  H141  1  0.33702436  0.16480169  0.07906744  1
  H+  H142  1  0.10530951  0.60586579  0.67487705  1
  H+  H143  1  0.21312919  0.36908000  0.68015940  1
  H+  H144  1  0.16079404  0.04399317  0.33139940  1
  H+  H145  1  0.88159732  0.27063522  0.67473820  1
  H+  H146  1  0.63991665  0.35931778  0.50090047  1
  H+  H147  1  0.87151268  0.12970184  0.15446110  1
  H+  H148  1  0.63600207  0.85059735  0.84202815  1
  H+  H149  1  0.94786084  0.84124392  0.49691520  1
  H+  H150  1  0.61142027  0.20595423  0.82725710  1
  H+  H151  1  0.85945150  0.47294613  0.67616119  1
  H+  H152  1  0.88507047  0.52554936  0.18385516  1
  H+  H153  1  0.37819014  0.25253399  0.64874372  1
  H+  H154  1  0.38905382  0.86302162  0.18665862  1
  H+  H155  1  0.51597938  0.36627128  0.14834593  1
  H+  H156  1  0.33863651  0.40273077  0.34664905  1
  H+  H157  1  0.25781609  0.18203452  0.50433506  1
  H+  H158  1  0.91497716  0.08633225  0.61605413  1
  H+  H159  1  0.36309399  0.13565947  0.82994719  1
  H+  H160  1  0.88491697  0.85236310  0.99748511  1
  H+  H161  1  0.73435544  0.09956299  0.50743974  1
  H+  H162  1  0.35982749  0.31728001  0.61180902  1
  H+  H163  1  0.71966400  0.84590311  0.50371112  1
  H+  H164  1  0.04773972  0.17572324  0.01142109  1
  H+  H165  1  0.15006514  0.42085697  0.49029982  1
  H+  H166  1  0.11262518  0.47425817  0.15131948  1
  H+  H167  1  0.14207876  0.80654959  0.63600575  1
  H+  H168  1  0.35116951  0.71312184  0.82729726  1
  H+  H169  1  0.08386109  0.92406487  0.29082059  1
  H+  H170  1  0.11327022  0.13958601  0.67877675  1
  H+  H171  1  0.12998287  0.76104363  0.83613727  1
  H+  H172  1  0.12536610  0.17249785  0.49574863  1
  H+  H173  1  0.46402695  0.61039289  0.31808192  1
  H+  H174  1  0.98286792  0.36401998  0.32661081  1
  H+  H175  1  0.86506995  0.63066878  0.82841304  1
  H+  H176  1  0.12215994  0.86590698  0.48687400  1
  H+  H177  1  1.02318653  0.38390167  0.15585400  1
  H+  H178  1  0.98942018  0.10515465  0.31142587  1
  H+  H179  1  0.38128570  1.03771212  0.49543865  1
  H+  H180  1  0.60407578  0.71711855  0.33561951  1
  H+  H181  1  0.47900878  0.61485189  0.99868759  1
  H+  H182  1  0.66714145  0.07890505  0.09099797  1
  H+  H183  1  0.83515766  0.41273853  0.23923124  1
  H+  H184  1  0.72682283  0.85697362  0.16874202  1
  H+  H185  1  0.38477227  0.77744958  0.63975664  1
  H+  H186  1  0.08264821  0.15641239  0.77736691  1
  H+  H187  1  0.77612167  0.37238629  0.00705468  1
  H+  H188  1  0.62254230  0.60163257  0.32312352  1
  H+  H189  1  0.88770847  0.11881062  0.67540930  1
  H+  H190  1  0.77102747  0.38290735  0.67494875  1
  H+  H191  1  0.25446984  0.87646662  0.82352326  1
  H+  H192  1  0.63876067  0.61807125  0.65182319  1
  H+  H193  1  0.61470297  0.13187404  0.15544792  1
  H+  H194  1  0.11419434  0.12759917  0.83687068  1
  H+  H195  1  1.02266019  0.13686632  0.68425286  1
  H+  H196  1  0.71366257  0.84998834  -0.00351598  1
  H+  H197  1  0.51260693  0.86568301  0.00883979  1
  H+  H198  1  0.88356236  0.60584287  0.66245845  1
  H+  H199  1  0.41351031  0.37314852  0.33191687  1
  H+  H200  1  0.97341797  0.59849164  0.84463231  1
  H+  H201  1  0.47624383  0.86256964  0.63545031  1
  H+  H202  1  0.35842601  0.47124888  0.84220332  1
  H+  H203  1  0.61025600  0.22530422  0.66861186  1
  H+  H204  1  0.61731182  0.72206381  0.00454635  1
  H+  H205  1  0.13545513  1.02988271  0.65464457  1
  H+  H206  1  0.26373137  0.90208892  0.67294254  1
  H+  H207  1  0.41869316  0.24768421  0.30020319  1
  H+  H208  1  0.27459957  0.13582298  0.83061452  1
  H+  H209  1  0.62077202  0.09866786  0.32189635  1
  H+  H210  1  0.72993421  0.61828025  0.17392197  1
  H+  H211  1  0.35135359  0.74586880  1.00416010  1
  H+  H212  1  0.62422395  0.47276398  0.00136135  1
  H+  H213  1  0.89170874  0.52612544  0.32520649  1
  H+  H214  1  0.88400504  0.61137611  0.32961214  1
  H+  H215  1  0.27196332  0.64256059  0.33226178  1
  H+  H216  1  0.37795249  0.53474609  0.50158362  1
  H+  H217  1  0.14222025  0.12553026  0.32199224  1
  H+  H218  1  0.85862331  0.20520317  0.99871974  1
  H+  H219  1  0.67246788  0.31469460  0.94061587  1
  H+  H220  1  0.21869009  0.35417357  0.84168710  1
  H+  H221  1  0.51381686  0.85547875  0.81494895  1
  H+  H222  1  0.41362399  0.06449892  0.93860354  1
  H+  H223  1  0.13867418  0.61244144  0.31649478  1
  H+  H224  1  1.02503899  0.37064525  1.00036548  1
  H+  H225  1  0.62194858  0.52530427  0.65736408  1
  H+  H226  1  0.36195961  0.47568971  0.15981462  1
  H+  H227  1  0.59451186  0.45331258  0.48458900  1
  H+  H228  1  0.57545712  0.90203463  0.72062160  1
  H+  H229  1  0.51526122  0.63373509  0.49326231  1
  H+  H230  1  0.94313994  0.06293942  1.00894928  1
  H+  H231  1  0.26956143  0.65501078  0.49151373  1
  H+  H232  1  0.89057681  0.34537676  0.98618645  1
  H+  H233  1  0.06972311  0.95532646  0.46460030  1
  H+  H234  1  0.12717731  0.25657314  0.32253313  1
  H+  H235  1  0.38886576  0.61165052  0.15213798  1
  H+  H236  1  0.81035729  0.87377013  -0.04568907  1
  H+  H237  1  0.84408995  0.16102157  0.09445800  1
  H+  H238  1  0.11653770  0.87052238  0.32926123  1
  H+  H239  1  0.38859089  0.61462882  1.00780003  1
  H+  H240  1  0.38824357  0.01833415  0.35771854  1
  H+  H241  1  0.52028097  0.13514711  0.66826351  1
  H+  H242  1  0.27188594  0.40750615  0.50114084  1
  H+  H243  1  0.36971171  0.39244466  1.00683580  1
  H+  H244  1  0.88401906  0.85662582  0.16818815  1
  H+  H245  1  0.87758382  0.60800523  0.50497458  1
  H+  H246  1  0.14128975  0.11978469  -0.00408095  1
  H+  H247  1  0.76109144  0.62452221  0.33652636  1
  H+  H248  1  0.88227424  0.86024249  0.66251406  1
  H+  H249  1  0.10396935  0.46880746  0.67194601  1
  H+  H250  1  0.63737801  0.85715635  0.17176785  1
  H+  H251  1  0.63831917  0.36508173  0.65650380  1
  H+  H252  1  0.36510727  0.64511903  0.66517202  1
  H+  H253  1  0.57922012  0.40441468  0.38318598  1
  H+  H254  1  0.48169096  0.36326451  -0.00539822  1
  H+  H255  1  0.53883308  0.36731762  0.31570071  1
  H+  H256  1  0.13983398  0.61435458  0.16016392  1
  H+  H257  1  0.85089636  0.87713656  0.33838770  1
  H+  H258  1  0.61660278  0.97148079  0.66791118  1
  H+  H259  1  0.62739413  0.74607423  0.50862930  1
  H+  H260  1  0.57879871  0.06729617  0.85194041  1
  H+  H261  1  0.52578092  0.63580602  0.15567730  1
  H+  H262  1  0.07526785  0.40585735  0.77207315  1
  H+  H263  1  0.28700015  0.14909900  0.34024702  1
  H+  H264  1  0.89083063  0.26571527  0.16911161  1
  H+  H265  1  0.24639410  0.38980422  0.33576084  1
  H+  H266  1  0.89551072  0.18048279  0.84358595  1
  H+  H267  1  0.02519912  0.63682385  0.33880490  1
  H+  H268  1  0.11096792  0.88109293  0.81983478  1
  H+  H269  1  0.10856522  0.61760741  0.83820727  1
  H+  H270  1  0.86589678  0.47853893  0.48201658  1
  H+  H271  1  0.23468053  0.62720247  1.00243242  1
  H+  H272  1  0.27066198  0.87483048  0.16658414  1
  H+  H273  1  0.48746450  0.86203978  0.33688942  1
  H+  H274  1  0.85432439  0.97882285  -0.01031481  1
  H+  H275  1  0.89244829  0.77410553  0.84335584  1
  H+  H276  1  0.36061382  0.23931356  0.02793805  1
  H+  H277  1  0.84787584  0.71482653  0.33766874  1
  H+  H278  1  0.86501229  0.96855252  0.14758974  1
  H+  H279  1  0.77837580  0.14257873  0.68798291  1
  H+  H280  1  1.01800800  0.63747423  0.49362730  1
  H+  H281  1  0.58965430  0.15946305  0.57838681  1
  H+  H282  1  0.25641240  0.89696122  0.47101924  1
  H+  H283  1  0.62141891  0.22654820  0.34402350  1
  H+  H284  1  0.18528637  0.08736207  0.49806964  1
  H+  H285  1  0.64557816  0.10936999  0.66147900  1
  H+  H286  1  0.63691832  0.26416522  0.00336666  1
  H+  H287  1  0.85998136  0.62999689  0.00653657  1
  H+  H288  1  0.37624856  0.35404378  0.16150971  1
  H+  H289  1  0.07427756  0.63558695  0.77639830  1
  H+  H290  1  0.92131605  0.07166378  0.22185295  1
  H+  H291  1  0.71685822  0.09428659  0.99938080  1
  H+  H292  1  0.07435775  0.13671169  0.37870873  1
  H+  H293  1  0.42157381  0.05781195  0.25506576  1
  H+  H294  1  0.10767673  0.36955578  0.82846637  1
  H+  H295  1  0.33283233  0.67153621  0.72446177  1
  H+  H296  1  0.57885433  0.15107892  0.76586624  1
  H+  H297  1  0.66754464  0.81737272  0.57237328  1
  H+  H298  1  0.40682199  0.07792872  0.60211415  1
  H+  H299  1  0.59404013  0.66172995  0.06475407  1
  H+  H300  1  0.15599740  0.29247301  1.00368391  1
  H+  H301  1  0.83961907  0.41963912  0.38927766  1
  H+  H302  1  0.91045414  0.57882310  0.56337018  1
  H+  H303  1  0.13274736  0.35711062  0.16768020  1
  H+  H304  1  0.10121127  0.18000891  0.07116104  1
  H+  H305  1  0.92351112  0.32554543  0.26772853  1
  H+  H306  1  0.88551576  0.35187629  0.18079382  1
  H+  H307  1  0.17444698  0.07961823  0.90673891  1
  H+  H308  1  0.01921868  0.63752607  0.00960637  1
  H+  H309  1  0.02639141  0.88776127  0.82475788  1
  H+  H310  1  0.33460432  0.91275424  0.07764116  1
  H+  H311  1  0.35071180  0.88792816  0.82574939  1
  H+  H312  1  0.83547364  0.66259124  0.76957769  1
  H+  H313  1  0.83227022  0.40113482  0.77179541  1
  H+  H314  1  0.05633322  0.89663484  0.40897236  1
  H+  H315  1  0.39364730  0.83496260  0.90669671  1
  H+  H316  1  0.12270799  0.77487230  0.98659594  1
  H+  H317  1  0.82875301  0.90299549  0.09133821  1
  H+  H318  1  0.58536997  0.40212940  0.09657007  1
  H+  H319  1  0.84415293  0.40372112  0.06081864  1
  H+  H320  1  0.41397485  0.58890503  0.59421210  1
  H+  H321  1  0.68509935  0.08088653  0.60695152  1
  H+  H322  1  0.82584917  0.65746858  0.10231808  1
  H+  H323  1  0.17338891  0.08385812  0.23489175  1
  H+  H324  1  0.44165591  0.30233300  0.23906545  1
  H+  H325  1  0.57105728  0.16008910  0.07533471  1
  H+  H326  1  0.41386273  0.58564748  0.90548753  1
  H+  H327  1  0.42240217  0.83777437  0.27304702  1
  H+  H328  1  0.07988467  0.40941197  0.06324712  1
  H+  H329  1  0.12181515  0.44318822  0.42572306  1
  H+  H330  1  0.67956332  0.59425238  0.92937614  1
  H+  H331  1  0.84032712  0.14955914  0.42966744  1
  H+  H332  1  0.90605095  0.82776586  0.60131948  1
  H+  H333  1  0.85957599  0.72012880  0.67332418  1
  H+  H334  1  0.41562948  0.26514195  0.54386888  1
  H+  H335  1  0.41602717  0.32779473  0.93918733  1
  H+  H336  1  0.16847084  0.35171163  0.58213960  1
  H+  H337  1  0.60751006  0.16920107  0.40284180  1
  H+  H338  1  0.97916150  0.86087263  1.00211015  1
  H+  H339  1  0.97655852  0.33391916  0.83343719  1
  H+  H340  1  0.56518420  0.63849069  0.75917246  1
  H+  H341  1  0.64893441  0.56367405  0.55905448  1
  H+  H342  1  0.15457759  0.31931495  0.26387286  1
  H+  H343  1  0.83147576  0.91263524  0.73870727  1
  H+  H344  1  0.31863412  0.91988811  0.74261405  1
  H+  H345  1  0.91935018  0.59418137  0.23600242  1
  H+  H346  1  0.66103672  0.82518652  0.26542600  1
  H+  H347  1  0.91297891  0.07987167  0.90661612  1
  H+  H348  1  0.40289596  0.83864505  0.55687161  1
  H+  H349  1  0.17661029  0.10308714  0.60179863  1
  H+  H350  1  0.08139363  0.92167196  0.72839628  1
  H+  H351  1  0.41174887  0.59179968  0.21945317  1
  H+  H352  1  0.63469084  0.42712219  0.78375378  1
  H+  H353  1  0.32779393  0.68089979  0.42858699  1
  H+  H354  1  0.55913969  0.43929418  0.76397308  1
  H+  H355  1  0.91157034  0.57585553  0.93631441  1
  H+  H356  1  0.60601474  0.03904790  0.91327241  1
  H+  H357  1  0.62203729  0.38233075  0.00088936  1
  H+  H358  1  0.90125344  0.82180621  0.26450262  1
  H+  H359  1  0.08117977  0.67264862  0.10282024  1
  H+  H360  1  0.15394449  0.82544638  0.89345975  1
  H+  H361  1  0.60091028  0.86398670  0.00832915  1
  H+  H362  1  0.81443432  0.90497049  0.42630553  1
  H+  H363  1  0.67068930  0.33996505  0.59648879  1
  H+  H364  1  0.65640510  0.32082379  0.23529027  1
  H+  H365  1  0.96846489  0.33277257  0.53021945  1
  H+  H366  1  0.92443813  0.83126756  0.90351572  1
  H+  H367  1  0.56955761  0.89325468  0.10537637  1
  H+  H368  1  0.08067747  0.20747435  0.44946513  1
  H+  H369  1  0.66317522  0.58625847  0.23761976  1
  H+  H370  1  0.18366225  0.82997523  0.28099122  1
  H+  H371  1  0.14047958  0.85807225  0.18460968  1
  H+  H372  1  0.65337561  0.82162808  0.93773720  1
  H+  H373  1  0.08254784  0.65911390  0.39890334  1
  H+  H374  1  0.16470457  0.57862837  0.59745518  1
  H+  H375  1  0.31381931  0.43817405  0.43568814  1
  H+  H376  1  0.22742716  0.12272275  1.00926789  1
  H+  H377  1  0.12066891  0.22292466  0.16069677  1
  H+  H378  1  0.64954612  0.10634131  0.52110693  1
  H+  H379  1  0.62402572  0.05698135  0.25941258  1
  H+  H380  1  0.91704197  0.30880141  0.92867634  1
  H+  H381  1  0.52713934  0.12992760  0.52300025  1
  H+  H382  1  0.58072442  0.91327004  0.40009448  1
  H+  H383  1  0.16747768  0.86036337  0.54793102  1
  O2-  O384  1  0.09441418  0.16397633  0.14214239  1
  O2-  O385  1  0.07858726  0.18676188  0.49089336  1
  O2-  O386  1  0.08102303  0.15536656  0.82274825  1
  O2-  O387  1  0.08252586  0.41271402  0.13812896  1
  O2-  O388  1  0.15168192  0.46726514  0.46493675  1
  O2-  O389  1  0.07247015  0.39900376  0.81701980  1
  O2-  O390  1  0.08445811  0.66854032  0.14839042  1
  O2-  O391  1  0.07884834  0.66661052  0.47820428  1
  O2-  O392  1  0.07753924  0.64644900  0.82091990  1
  O2-  O393  1  0.08603363  0.90857704  0.15410207  1
  O2-  O394  1  0.05182610  0.89599084  0.45418233  1
  O2-  O395  1  0.08535678  0.91683304  0.80662321  1
  O2-  O396  1  0.33826755  0.12981047  0.16241902  1
  O2-  O397  1  0.34983634  0.24168511  0.46884392  1
  O2-  O398  1  0.33435301  0.16675733  0.81315063  1
  O2-  O399  1  0.32899041  0.41486736  0.14585956  1
  O2-  O400  1  0.32768601  0.44127007  0.47955502  1
  O2-  O401  1  0.33054384  0.41317507  0.82243835  1
  O2-  O402  1  0.33292361  0.65595150  0.10486262  1
  O2-  O403  1  0.33066901  0.68911780  0.47406824  1
  O2-  O404  1  0.32658170  0.65578060  0.80954433  1
  O2-  O405  1  0.33100932  0.90446548  0.14986959  1
  O2-  O406  1  0.32054077  0.92625840  0.46155947  1
  O2-  O407  1  0.31602586  0.91195026  0.80694775  1
  O2-  O408  1  0.57471426  0.15508080  0.15438907  1
  O2-  O409  1  0.58957513  0.16099589  0.53364763  1
  O2-  O410  1  0.57253178  0.14736801  0.81066888  1
  O2-  O411  1  0.57857797  0.39483038  0.14119498  1
  O2-  O412  1  0.57876692  0.39694605  0.46524869  1
  O2-  O413  1  0.58937944  0.43532837  0.80113437  1
  O2-  O414  1  0.58809476  0.66450570  0.14340724  1
  O2-  O415  1  0.57708726  0.66019756  0.47929517  1
  O2-  O416  1  0.54736090  0.60979182  0.79942913  1
  O2-  O417  1  0.57974670  0.90478753  0.14995996  1
  O2-  O418  1  0.57441822  0.91755817  0.47202253  1
  O2-  O419  1  0.57335847  0.89289403  0.80175557  1
  O2-  O420  1  0.84272656  0.16214915  0.14005278  1
  O2-  O421  1  0.83086306  0.13993449  0.47597101  1
  O2-  O422  1  0.87130852  0.21346099  0.82238713  1
  O2-  O423  1  0.83136051  0.41206120  0.19467683  1
  O2-  O424  1  0.83718434  0.42102741  0.46271294  1
  O2-  O425  1  0.83275119  0.39597683  0.81704112  1
  O2-  O426  1  0.82362428  0.65836958  0.14779126  1
  O2-  O427  1  0.81148231  0.64730676  0.47756036  1
  O2-  O428  1  0.83659209  0.66359748  0.81510222  1
  O2-  O429  1  0.83089929  0.90603035  0.13609213  1
  O2-  O430  1  0.81154015  0.90094080  0.47291974  1
  O2-  O431  1  0.83713890  0.91965554  0.81753870  1
  O2-  O432  1  0.16956621  0.07563833  0.18931436  1
  O2-  O433  1  0.19816454  0.13955922  0.52000368  1
  O2-  O434  1  0.17412752  0.08054612  0.86118779  1
  O2-  O435  1  0.16227656  0.32668654  0.18395346  1
  O2-  O436  1  0.17197920  0.35388220  0.53688672  1
  O2-  O437  1  0.15648985  0.32572488  0.85066658  1
  O2-  O438  1  0.17129009  0.58320079  0.17114983  1
  O2-  O439  1  0.17682529  0.60064449  0.52269934  1
  O2-  O440  1  0.16174181  0.56580522  0.86250332  1
  O2-  O441  1  0.17177484  0.82857065  0.19952427  1
  O2-  O442  1  0.16026093  0.84566285  0.50402232  1
  O2-  O443  1  0.15840188  0.82315942  0.84678390  1
  O2-  O444  1  0.42098062  0.05384368  0.20967189  1
  O2-  O445  1  0.41624482  0.08814472  0.52178544  1
  O2-  O446  1  0.40918555  0.07727744  0.85777325  1
  O2-  O447  1  0.39821717  0.31259039  0.15985004  1
  O2-  O448  1  0.42350035  0.24634556  0.50248124  1
  O2-  O449  1  0.41641717  0.32858863  0.85822236  1
  O2-  O450  1  0.41957378  0.58718980  0.17478085  1
  O2-  O451  1  0.41539210  0.59664197  0.51819790  1
  O2-  O452  1  0.40605719  0.57836649  0.86039230  1
  O2-  O453  1  0.42188109  0.83792727  0.20596059  1
  O2-  O454  1  0.39470698  0.83898332  0.50803096  1
  O2-  O455  1  0.41758456  0.86320205  0.86674096  1
  O2-  O456  1  0.67115310  0.07861214  0.13575728  1
  O2-  O457  1  0.67741590  0.07174499  0.52949629  1
  O2-  O458  1  0.57378749  0.01708249  0.87487421  1
  O2-  O459  1  0.66035220  0.32073549  0.18990866  1
  O2-  O460  1  0.67387207  0.33731971  0.52305704  1
  O2-  O461  1  0.67292621  0.30810726  0.86072049  1
  O2-  O462  1  0.66821443  0.59284854  0.19016775  1
  O2-  O463  1  0.64370232  0.56004478  0.51374963  1
  O2-  O464  1  0.67918662  0.59202592  0.86333344  1
  O2-  O465  1  0.66723254  0.82550369  0.18561302  1
  O2-  O466  1  0.66231984  0.80945394  0.52547717  1
  O2-  O467  1  0.66910476  0.82943516  0.86484261  1
  O2-  O468  1  0.92053418  0.07168190  0.17571225  1
  O2-  O469  1  0.92945590  0.05653738  0.53589838  1
  O2-  O470  1  0.91703656  0.09154534  0.86199943  1
  O2-  O471  1  0.92206519  0.32532737  0.18619176  1
  O2-  O472  1  0.96437516  0.27810044  0.54028361  1
  O2-  O473  1  0.91339557  0.30068419  0.84940444  1
  O2-  O474  1  0.91526646  0.58892188  0.19026110  1
  O2-  O475  1  0.91450346  0.58396918  0.51831279  1
  O2-  O476  1  0.91161147  0.57136407  0.85775474  1
  O2-  O477  1  0.91256653  0.82712691  0.18793049  1
  O2-  O478  1  0.89236309  0.81647386  0.51860506  1
  O2-  O479  1  0.92308584  0.83448284  0.85814318  1
  O2-  O480  1  0.18566285  0.09954034  0.31086607  1
  O2-  O481  1  0.17077598  0.09290104  0.64632188  1
  O2-  O482  1  0.17207343  0.08810010  0.98689175  1
  O2-  O483  1  0.15244613  0.31913599  0.30926479  1
  O2-  O484  1  0.15629578  0.33328413  0.66024057  1
  O2-  O485  1  0.18081212  0.35396172  0.99069980  1
  O2-  O486  1  0.17298396  0.58661170  0.30106859  1
  O2-  O487  1  0.16233906  0.57114548  0.64321838  1
  O2-  O488  1  0.19241266  0.63555779  0.97758066  1
  O2-  O489  1  0.17646113  0.82929379  0.32618611  1
  O2-  O490  1  0.17520719  0.86887874  0.63190361  1
  O2-  O491  1  0.14990141  0.83050131  0.96448193  1
  O2-  O492  1  0.41697419  0.07331960  0.33446974  1
  O2-  O493  1  0.41082405  0.07969584  0.64759389  1
  O2-  O494  1  0.41399870  0.05797929  0.98362625  1
  O2-  O495  1  0.46665259  0.28624430  0.27286713  1
  O2-  O496  1  0.40530626  0.30411240  0.62063689  1
  O2-  O497  1  0.41930368  0.33398113  0.98433603  1
  O2-  O498  1  0.40575683  0.58927036  0.30035402  1
  O2-  O499  1  0.41868449  0.59297326  0.64008639  1
  O2-  O500  1  0.41819307  0.58588940  0.98579814  1
  O2-  O501  1  0.42275280  0.83317260  0.32084238  1
  O2-  O502  1  0.41599511  0.83509692  0.62033253  1
  O2-  O503  1  0.34076531  0.78712832  0.97748240  1
  O2-  O504  1  0.63623849  0.05815661  0.30260896  1
  O2-  O505  1  0.68074521  0.08224436  0.65270907  1
  O2-  O506  1  0.65243160  0.06684132  0.99835441  1
  O2-  O507  1  0.67245371  0.32391408  0.31427068  1
  O2-  O508  1  0.66733254  0.33437437  0.64293429  1
  O2-  O509  1  0.67257154  0.32315991  0.98546371  1
  O2-  O510  1  0.65576229  0.57555009  0.30515886  1
  O2-  O511  1  0.66383005  0.58115553  0.63946393  1
  O2-  O512  1  0.67923041  0.59451850  0.97793932  1
  O2-  O513  1  0.65930179  0.82279848  0.31092283  1
  O2-  O514  1  0.67186249  0.83203484  0.64166976  1
  O2-  O515  1  0.64965860  0.81779432  0.98412565  1
  O2-  O516  1  0.92665873  0.07754432  0.29754142  1
  O2-  O517  1  0.91527848  0.08558571  0.66105152  1
  O2-  O518  1  0.89282832  0.04986339  0.98453065  1
  O2-  O519  1  0.92138786  0.33093959  0.31272140  1
  O2-  O520  1  0.91196000  0.33356170  0.65966200  1
  O2-  O521  1  0.91965534  0.31297638  0.97408735  1
  O2-  O522  1  0.92004518  0.58815699  0.31284427  1
  O2-  O523  1  0.90908329  0.57122170  0.64663837  1
  O2-  O524  1  0.91001132  0.57761258  0.98195464  1
  O2-  O525  1  0.89859785  0.81907675  0.31042749  1
  O2-  O526  1  0.91274010  0.83043536  0.64636666  1
  O2-  O527  1  0.91937741  0.82434790  0.98545251  1
  O2-  O528  1  0.10504135  0.19007291  0.02487458  1
  O2-  O529  1  0.08719403  0.15445733  0.33637245  1
  O2-  O530  1  0.08392091  0.16823282  0.69787857  1
  O2-  O531  1  0.08429247  0.40652690  0.01741305  1
  O2-  O532  1  0.08712868  0.41790400  0.34829883  1
  O2-  O533  1  0.06922316  0.41008184  0.69016762  1
  O2-  O534  1  0.07816525  0.67434681  0.02593480  1
  O2-  O535  1  0.08593906  0.66263243  0.35340781  1
  O2-  O536  1  0.07108550  0.63037962  0.69539787  1
  O2-  O537  1  0.08231881  0.91950619  0.02678148  1
  O2-  O538  1  0.08031150  0.90013540  0.33133131  1
  O2-  O539  1  0.08073467  0.92436261  0.68246882  1
  O2-  O540  1  0.31552166  0.19701998  0.05572165  1
  O2-  O541  1  0.34643139  0.17584199  0.35823740  1
  O2-  O542  1  0.33318031  0.16275592  0.68971459  1
  O2-  O543  1  0.34049285  0.42341707  0.02297503  1
  O2-  O544  1  0.30585664  0.43255867  0.35174322  1
  O2-  O545  1  0.30699002  0.45414227  0.71216631  1
  O2-  O546  1  0.33487073  0.65694152  0.03592970  1
  O2-  O547  1  0.33107725  0.67238250  0.35126404  1
  O2-  O548  1  0.33076110  0.67191185  0.67927172  1
  O2-  O549  1  0.33307612  0.91396125  0.03094975  1
  O2-  O550  1  0.32853581  0.91928103  0.39466353  1
  O2-  O551  1  0.32182312  0.92694388  0.69367792  1
  O2-  O552  1  0.57494481  0.16072496  0.02967525  1
  O2-  O553  1  0.59037783  0.16556349  0.36034313  1
  O2-  O554  1  0.58308836  0.16258824  0.67707912  1
  O2-  O555  1  0.59051603  0.41241890  0.01399464  1
  O2-  O556  1  0.59081105  0.41233721  0.33866329  1
  O2-  O557  1  0.51588276  0.44223660  0.69474171  1
  O2-  O558  1  0.59494774  0.66014482  0.01911946  1
  O2-  O559  1  0.57164247  0.65545273  0.34902679  1
  O2-  O560  1  0.58383678  0.66431302  0.68031413  1
  O2-  O561  1  0.57078774  0.89537875  0.02527747  1
  O2-  O562  1  0.57677421  0.90586212  0.35380376  1
  O2-  O563  1  0.58113795  0.90826731  0.67542908  1
  O2-  O564  1  0.82411247  0.14661913  0.01674673  1
  O2-  O565  1  0.85510029  0.16349134  0.35977381  1
  O2-  O566  1  0.84015715  0.17863299  0.70083584  1
  O2-  O567  1  0.83966172  0.40443442  0.01654985  1
  O2-  O568  1  0.84150692  0.41814319  0.34277901  1
  O2-  O569  1  0.83035878  0.41188992  0.69222972  1
  O2-  O570  1  0.83024169  0.66161070  0.02173305  1
  O2-  O571  1  0.82045645  0.65463660  0.35351398  1
  O2-  O572  1  0.83112714  0.65993509  0.68885156  1
  O2-  O573  1  0.81467602  0.89152933  -0.00310302  1
  O2-  O574  1  0.82378951  0.91040112  0.35343767  1
  O2-  O575  1  0.83135725  0.91350951  0.69291545  1
