# generated using pymatgen
data_H2O
_symmetry_space_group_name_H-M   'P 1'
_cell_length_a   17.98679169
_cell_length_b   17.99034649
_cell_length_c   22.00070120
_cell_angle_alpha   90.00746290
_cell_angle_beta   90.03205449
_cell_angle_gamma   120.00474918
_symmetry_Int_Tables_number   1
_chemical_formula_structural   H2O
_chemical_formula_sum   'H384 O192'
_cell_volume   6165.09091040
_cell_formula_units_Z   192
loop_
 _symmetry_equiv_pos_site_id
 _symmetry_equiv_pos_as_xyz
  1  'x, y, z'
loop_
 _atom_type_symbol
 _atom_type_oxidation_number
  H+  1.0
  O2-  -2.0
loop_
 _atom_site_type_symbol
 _atom_site_label
 _atom_site_symmetry_multiplicity
 _atom_site_fract_x
 _atom_site_fract_y
 _atom_site_fract_z
 _atom_site_occupancy
  H+  H0  1  -0.02668086  0.35992857  -0.00196451  1
  H+  H1  1  0.63515328  0.83734048  0.94762610  1
  H+  H2  1  0.86186139  0.14552577  0.50579913  1
  H+  H3  1  0.39637080  0.28411904  0.99753392  1
  H+  H4  1  0.32469288  0.16609294  0.42368601  1
  H+  H5  1  0.27484434  0.64100478  0.15586053  1
  H+  H6  1  0.10803975  -0.03140635  0.83667040  1
  H+  H7  1  0.31089536  0.41950934  0.68843113  1
  H+  H8  1  0.08052620  0.82731782  0.66524387  1
  H+  H9  1  0.18934184  0.60113738  0.59484813  1
  H+  H10  1  0.48444203  0.86354163  0.67779662  1
  H+  H11  1  1.00253646  0.39492143  0.31409795  1
  H+  H12  1  0.08362658  0.36469741  0.70342087  1
  H+  H13  1  0.29971501  0.14023012  0.66399496  1
  H+  H14  1  0.86967844  0.01832711  0.17081662  1
  H+  H15  1  0.13718798  0.51610568  -0.00429383  1
  H+  H16  1  0.33858155  0.80984061  0.62931472  1
  H+  H17  1  0.60292573  0.13408359  0.15283477  1
  H+  H18  1  0.14398316  0.76712172  0.16884874  1
  H+  H19  1  0.39117277  0.62573373  0.16445461  1
  H+  H20  1  0.62304856  0.37879163  0.68371052  1
  H+  H21  1  0.80243561  0.42104697  0.30744255  1
  H+  H22  1  0.36943302  -0.01215585  0.83449257  1
  H+  H23  1  0.15577278  0.02635039  0.99785105  1
  H+  H24  1  0.53127612  0.15427870  0.83051238  1
  H+  H25  1  0.87781299  0.21724858  0.64747095  1
  H+  H26  1  0.41133688  0.39152587  0.66182407  1
  H+  H27  1  0.59617575  0.87683085  0.83640531  1
  H+  H28  1  0.58481126  -0.03527215  0.51026741  1
  H+  H29  1  0.64347967  0.36299049  0.84576956  1
  H+  H30  1  0.11512400  0.23736554  0.32697876  1
  H+  H31  1  0.85400235  0.86455086  0.68851595  1
  H+  H32  1  0.51096067  0.12047978  0.48987551  1
  H+  H33  1  0.00105935  0.79993081  0.20051008  1
  H+  H34  1  0.15161436  1.02940583  0.66053184  1
  H+  H35  1  0.28826334  0.20215883  0.79927733  1
  H+  H36  1  0.16033166  0.82110672  0.89080295  1
  H+  H37  1  0.37490691  0.77140362  0.83921238  1
  H+  H38  1  0.97931986  0.76462675  0.22336407  1
  H+  H39  1  0.85679676  0.88724828  0.48733934  1
  H+  H40  1  0.88534174  0.60859634  0.28132687  1
  H+  H41  1  0.25615783  0.87732618  0.33739506  1
  H+  H42  1  0.61845293  0.60494975  0.67006055  1
  H+  H43  1  0.08593094  0.25017488  0.18082716  1
  H+  H44  1  0.72981709  0.61131416  0.16298714  1
  H+  H45  1  0.61405597  0.72168117  0.16481356  1
  H+  H46  1  0.88863694  0.61478743  0.65614962  1
  H+  H47  1  0.48186650  0.14824439  0.33176970  1
  H+  H48  1  0.38501620  0.61659959  1.00184504  1
  H+  H49  1  0.58854806  0.85261306  0.48849693  1
  H+  H50  1  0.36972954  0.47796135  0.32770799  1
  H+  H51  1  0.83738658  0.06780720  0.68285737  1
  H+  H52  1  0.29105386  0.56860581  0.46485095  1
  H+  H53  1  0.64373248  0.27920237  0.49993984  1
  H+  H54  1  0.02632991  0.64173990  0.49548298  1
  H+  H55  1  0.53530858  0.56852451  0.79348807  1
  H+  H56  1  0.25367167  0.12315143  0.33153010  1
  H+  H57  1  0.76990454  0.13695737  0.14803338  1
  H+  H58  1  0.61841662  0.39534873  0.49521926  1
  H+  H59  1  0.98208225  0.60904594  0.83975881  1
  H+  H60  1  0.12330778  0.76306080  0.32196089  1
  H+  H61  1  0.19697234  0.43846958  0.12708110  1
  H+  H62  1  0.87861975  0.51940134  0.17922204  1
  H+  H63  1  0.12731355  0.11065548  0.31386242  1
  H+  H64  1  0.03584292  0.63521058  0.66951740  1
  H+  H65  1  0.88334872  0.27055966  -0.00526469  1
  H+  H66  1  0.63156239  1.00673927  0.15795145  1
  H+  H67  1  0.71360035  0.22669209  0.31336006  1
  H+  H68  1  0.90313976  0.74152122  0.33005500  1
  H+  H69  1  0.48817040  0.61632911  0.51134397  1
  H+  H70  1  0.52294504  0.39514755  0.34500444  1
  H+  H71  1  0.88764799  0.52674694  0.65908322  1
  H+  H72  1  0.85545945  0.37970188  0.00985661  1
  H+  H73  1  0.39029532  0.87117196  0.16961066  1
  H+  H74  1  0.40060191  0.13548833  0.84710728  1
  H+  H75  1  0.14597780  0.86346016  0.51540408  1
  H+  H76  1  0.15209503  0.29575844  0.48036557  1
  H+  H77  1  0.86679972  0.39465698  0.16046112  1
  H+  H78  1  0.84318397  0.86777490  0.84372205  1
  H+  H79  1  0.45557241  0.03829167  0.62445691  1
  H+  H80  1  0.70531473  0.84452163  0.85305852  1
  H+  H81  1  0.87983374  0.51430408  -0.00510360  1
  H+  H82  1  0.73733339  0.62392527  0.32534185  1
  H+  H83  1  0.26659953  0.62365993  0.66691562  1
  H+  H84  1  0.38133098  0.62344789  0.67172460  1
  H+  H85  1  0.11477746  0.72215892  0.82131249  1
  H+  H86  1  0.74662600  0.88716463  0.32336569  1
  H+  H87  1  0.86711120  0.98597585  0.33446138  1
  H+  H88  1  0.11348219  0.84595404  0.31117994  1
  H+  H89  1  0.59258746  0.99735902  0.67090047  1
  H+  H90  1  0.83323303  0.87310037  0.16653271  1
  H+  H91  1  0.10091530  0.87926766  0.82237708  1
  H+  H92  1  0.59803618  0.96482714  0.84443454  1
  H+  H93  1  0.18405220  0.25184597  0.81862962  1
  H+  H94  1  0.64383680  0.62485363  0.49332429  1
  H+  H95  1  0.88656155  0.52766649  0.49592787  1
  H+  H96  1  0.04101941  0.14315574  0.84452105  1
  H+  H97  1  0.34253816  0.21912791  0.16020609  1
  H+  H98  1  0.75378492  0.62001609  0.67548600  1
  H+  H99  1  0.63147608  0.47218789  0.83828147  1
  H+  H100  1  0.37740267  0.48735893  0.49222781  1
  H+  H101  1  0.60182613  0.45393457  0.69032427  1
  H+  H102  1  0.60601744  0.13127842  0.68093690  1
  H+  H103  1  0.23834614  0.08917542  0.84839762  1
  H+  H104  1  0.11875174  0.09669505  0.16511873  1
  H+  H105  1  0.15137874  0.39041645  0.32638007  1
  H+  H106  1  0.64516336  0.87877925  0.32750322  1
  H+  H107  1  0.21108180  0.10335304  0.16608839  1
  H+  H108  1  0.91462852  0.30253023  0.49703787  1
  H+  H109  1  0.31271474  0.94179544  0.74017410  1
  H+  H110  1  0.39019767  0.86405612  -0.00421388  1
  H+  H111  1  0.86337601  0.63085284  0.00917646  1
  H+  H112  1  0.02261278  0.63129024  0.16928143  1
  H+  H113  1  0.93455438  0.85046780  1.02353252  1
  H+  H114  1  0.26442152  0.63568487  0.00822248  1
  H+  H115  1  0.89194296  0.78140654  0.49498493  1
  H+  H116  1  0.28612840  0.40007729  0.48204526  1
  H+  H117  1  0.80310618  0.17713758  0.33550600  1
  H+  H118  1  0.12248748  0.86679556  0.67294713  1
  H+  H119  1  0.40282882  0.30261356  0.65085914  1
  H+  H120  1  0.78275229  0.38635087  0.82763983  1
  H+  H121  1  0.82524857  0.11844137  0.84619596  1
  H+  H122  1  0.39128109  0.53376524  0.85227553  1
  H+  H123  1  0.22431562  0.60896769  0.84291201  1
  H+  H124  1  0.56616682  0.89218773  0.40389773  1
  H+  H125  1  0.79643570  0.17816339  0.49120182  1
  H+  H126  1  0.03967909  0.15007559  0.47178859  1
  H+  H127  1  0.50491800  0.34552848  0.18769935  1
  H+  H128  1  0.64677265  0.53764274  0.32902017  1
  H+  H129  1  0.34226931  0.33162844  0.17541191  1
  H+  H130  1  0.39403373  0.81999804  0.92874211  1
  H+  H131  1  0.37002877  0.01706596  0.50067521  1
  H+  H132  1  0.37981980  0.35591507  0.32584817  1
  H+  H133  1  0.36309656  0.89629805  0.82880458  1
  H+  H134  1  0.83961030  0.41873116  0.73141671  1
  H+  H135  1  0.37905075  0.15197963  0.01232688  1
  H+  H136  1  0.96410455  0.80934339  0.64543934  1
  H+  H137  1  0.59251570  0.10887597  0.49138244  1
  H+  H138  1  0.10687869  0.62421226  0.01210844  1
  H+  H139  1  0.48781427  0.82582678  0.48799640  1
  H+  H140  1  0.53403545  0.40036335  0.00520591  1
  H+  H141  1  0.04602905  0.42325009  0.48221910  1
  H+  H142  1  0.20870714  0.59120280  0.34838561  1
  H+  H143  1  1.02924807  0.17248515  0.82758597  1
  H+  H144  1  0.83471256  0.71253721  0.67161676  1
  H+  H145  1  0.96903102  0.85890991  0.85023378  1
  H+  H146  1  0.88805146  0.35603338  0.84225158  1
  H+  H147  1  0.61431854  0.76025385  0.85516067  1
  H+  H148  1  0.39081091  0.28031478  0.48230964  1
  H+  H149  1  0.34245353  0.21646042  0.33675189  1
  H+  H150  1  0.36249849  0.38916542  0.00243097  1
  H+  H151  1  0.62389737  0.85480008  0.17359468  1
  H+  H152  1  0.48875421  0.37563860  0.49045993  1
  H+  H153  1  0.43346464  0.05753568  1.00194408  1
  H+  H154  1  0.15922390  0.85391282  -0.01562472  1
  H+  H155  1  0.77890613  0.38791400  0.67132612  1
  H+  H156  1  0.48033495  0.61867942  0.85205086  1
  H+  H157  1  0.52581767  0.14367210  0.68140839  1
  H+  H158  1  0.06115641  0.88793925  -0.00636507  1
  H+  H159  1  0.10810968  0.37896103  0.99948040  1
  H+  H160  1  0.39527214  0.16208392  0.66746966  1
  H+  H161  1  0.89348411  0.60962060  0.84035708  1
  H+  H162  1  0.47033045  0.11958328  0.17344950  1
  H+  H163  1  0.39126337  0.51338693  0.68940696  1
  H+  H164  1  0.60368738  0.96933796  0.35606914  1
  H+  H165  1  0.34721316  0.88392407  0.33327483  1
  H+  H166  1  0.24360894  0.66071999  0.51004527  1
  H+  H167  1  0.17047404  0.82761046  0.22690277  1
  H+  H168  1  0.63107917  0.94899217  -0.01314480  1
  H+  H169  1  0.07384455  0.22778391  0.71045502  1
  H+  H170  1  0.60994906  0.24383333  0.34548978  1
  H+  H171  1  0.71685479  0.35140898  -0.00315605  1
  H+  H172  1  0.71669526  0.86252600  0.17393562  1
  H+  H173  1  0.46491224  0.85920593  0.84633648  1
  H+  H174  1  0.94416601  0.09685083  0.54292246  1
  H+  H175  1  0.83470339  0.66444483  0.77030594  1
  H+  H176  1  -0.02995497  0.10068846  -0.00627992  1
  H+  H177  1  0.68084350  0.57631113  0.90870045  1
  H+  H178  1  0.61966824  0.64203457  0.34381983  1
  H+  H179  1  0.16100725  0.30462304  0.68957127  1
  H+  H180  1  0.37497853  1.02038966  0.66538894  1
  H+  H181  1  0.99876686  0.48087614  0.61235628  1
  H+  H182  1  0.57563149  0.21789594  -0.00229088  1
  H+  H183  1  0.62599513  0.48891934  1.00152987  1
  H+  H184  1  0.23159446  0.12542023  0.49727462  1
  H+  H185  1  0.64531043  0.27216070  0.65676480  1
  H+  H186  1  0.83216224  0.95133179  0.84129801  1
  H+  H187  1  0.37506163  0.12199811  0.32377661  1
  H+  H188  1  0.93423245  0.88806898  0.32997128  1
  H+  H189  1  0.03166386  0.40910283  0.67932291  1
  H+  H190  1  0.06072915  0.12991367  0.64993768  1
  H+  H191  1  0.73527012  0.60457328  0.84417011  1
  H+  H192  1  0.14596613  0.60821462  0.17101322  1
  H+  H193  1  0.03339260  0.88987469  0.49437852  1
  H+  H194  1  0.11579428  0.63318044  0.82773509  1
  H+  H195  1  0.70581771  0.10071419  0.87238597  1
  H+  H196  1  0.84974682  0.98406117  0.67487672  1
  H+  H197  1  0.36463771  0.64213516  0.83028234  1
  H+  H198  1  0.64010074  0.27866154  0.17533444  1
  H+  H199  1  0.73087074  0.36878734  0.49632827  1
  H+  H200  1  0.84458099  0.75294417  0.18136287  1
  H+  H201  1  0.47613975  0.61570904  0.16510568  1
  H+  H202  1  0.85908276  0.13993946  0.15078820  1
  H+  H203  1  0.28401490  0.14171376  1.00716557  1
  H+  H204  1  0.38347794  0.40495612  0.83903803  1
  H+  H205  1  0.91238330  0.41580681  0.64467393  1
  H+  H206  1  0.61979398  0.48638427  0.49379230  1
  H+  H207  1  0.63037373  0.25370774  0.83595566  1
  H+  H208  1  0.60632799  0.85264766  0.65261890  1
  H+  H209  1  0.86821297  0.39710308  0.47079892  1
  H+  H210  1  0.23074633  0.37514934  0.32327338  1
  H+  H211  1  0.33703942  0.48910627  0.14523449  1
  H+  H212  1  0.78802756  0.64807563  0.47221569  1
  H+  H213  1  0.51463675  0.62216326  0.01644192  1
  H+  H214  1  0.96793996  0.09089961  0.67986123  1
  H+  H215  1  0.38303370  0.35801368  0.15749880  1
  H+  H216  1  0.63552035  0.51509426  0.16063716  1
  H+  H217  1  0.38776207  0.60794628  0.30952637  1
  H+  H218  1  1.00644002  0.11993174  0.15393900  1
  H+  H219  1  0.58071746  0.89649918  0.08974060  1
  H+  H220  1  0.59997955  0.42414773  0.09348518  1
  H+  H221  1  0.87131205  0.47516152  0.82719251  1
  H+  H222  1  0.01800777  0.62459177  0.01001644  1
  H+  H223  1  0.14725717  0.35971009  0.83845354  1
  H+  H224  1  0.35441126  0.66050423  0.38387700  1
  H+  H225  1  0.72714307  0.08711460  0.69305830  1
  H+  H226  1  0.21989481  0.86384662  0.83337881  1
  H+  H227  1  0.66953761  0.32587497  0.90555855  1
  H+  H228  1  0.71637264  0.85752233  0.50290228  1
  H+  H229  1  0.82749795  0.86982298  0.00935202  1
  H+  H230  1  0.92384463  0.30040675  0.32005597  1
  H+  H231  1  0.07890861  -0.03698404  0.31453100  1
  H+  H232  1  0.27138666  0.89675784  0.67627915  1
  H+  H233  1  0.86052558  0.13399624  1.00148582  1
  H+  H234  1  0.63378435  0.61122245  0.16724674  1
  H+  H235  1  0.21501019  0.01017318  0.62434556  1
  H+  H236  1  0.12523763  0.14664986  0.48405761  1
  H+  H237  1  0.92667954  0.08854567  0.84547261  1
  H+  H238  1  0.35721265  0.44082488  0.78069581  1
  H+  H239  1  0.15283976  0.61261130  0.65917167  1
  H+  H240  1  0.81638006  0.77968037  0.24094123  1
  H+  H241  1  0.63331747  0.39941584  0.15560400  1
  H+  H242  1  0.62584978  0.77631525  0.65482706  1
  H+  H243  1  0.67723575  0.04307471  0.51676085  1
  H+  H244  1  0.39661646  0.78697848  0.58630796  1
  H+  H245  1  0.46836783  0.97438886  0.04677139  1
  H+  H246  1  0.43974680  0.11328038  0.90482922  1
  H+  H247  1  0.61336999  0.72295086  0.49075337  1
  H+  H248  1  0.13748754  0.51044651  0.49059492  1
  H+  H249  1  0.73382200  0.09074915  0.96889047  1
  H+  H250  1  0.29038888  0.54503188  0.43663595  1
  H+  H251  1  0.27678623  0.88737338  0.15576861  1
  H+  H252  1  0.52776800  0.63463946  0.33916050  1
  H+  H253  1  0.76910125  0.62551454  0.00450298  1
  H+  H254  1  0.91171423  0.26160424  0.63805956  1
  H+  H255  1  0.18441153  0.75656331  0.65207747  1
  H+  H256  1  0.35935287  0.74958077  0.99724645  1
  H+  H257  1  0.13583192  0.51883349  0.84717755  1
  H+  H258  1  0.89295358  0.12150948  0.32220510  1
  H+  H259  1  0.97939713  0.11802567  0.31701028  1
  H+  H260  1  0.91135454  0.32703755  0.90491999  1
  H+  H261  1  0.52309671  0.64608925  0.68094235  1
  H+  H262  1  0.39203449  0.37875732  0.48595589  1
  H+  H263  1  0.21901040  0.35304646  0.99018505  1
  H+  H264  1  0.85288950  0.62893089  0.16390140  1
  H+  H265  1  0.58091326  0.66208951  0.43035745  1
  H+  H266  1  0.13092199  0.88399916  0.14716818  1
  H+  H267  1  0.36070359  0.14457101  0.48414243  1
  H+  H268  1  0.11120315  0.12991132  1.00514695  1
  H+  H269  1  0.35695349  0.71402843  0.66972415  1
  H+  H270  1  0.11796471  0.31389532  0.23695830  1
  H+  H271  1  0.37998337  0.11805404  0.17424154  1
  H+  H272  1  0.12151374  0.97757371  0.49391767  1
  H+  H273  1  0.15642015  0.38715904  0.48350943  1
  H+  H274  1  0.17719132  0.08736136  0.55745467  1
  H+  H275  1  0.61657474  0.60785407  0.83482524  1
  H+  H276  1  0.88312579  0.28392246  0.16533626  1
  H+  H277  1  0.11684703  0.73154775  0.49709306  1
  H+  H278  1  0.35630058  0.47514954  0.99979656  1
  H+  H279  1  0.46942250  0.86009724  0.32324996  1
  H+  H280  1  0.34370620  0.86238601  0.48072970  1
  H+  H281  1  0.02590170  0.37902766  0.84177390  1
  H+  H282  1  0.56678855  0.16460722  0.09811417  1
  H+  H283  1  0.10609706  0.21604765  0.00123268  1
  H+  H284  1  0.49593861  0.37285632  0.84660531  1
  H+  H285  1  0.51727320  0.87878435  0.14801433  1
  H+  H286  1  0.86571813  0.72256125  0.83114306  1
  H+  H287  1  0.14447150  0.63140454  0.51060889  1
  H+  H288  1  0.09851302  0.62591208  0.34370329  1
  H+  H289  1  0.34418944  0.42775967  0.39114602  1
  H+  H290  1  0.59852615  0.40760379  0.77875499  1
  H+  H291  1  0.13650518  0.75695635  -0.01495230  1
  H+  H292  1  0.08411165  0.66971710  0.40078195  1
  H+  H293  1  0.87444067  0.64600451  0.48245229  1
  H+  H294  1  0.30449604  0.42640620  0.08802734  1
  H+  H295  1  0.32842484  0.16748119  0.09894915  1
  H+  H296  1  0.69917466  0.61690220  0.54722234  1
  H+  H297  1  0.65228999  0.82736726  0.56201860  1
  H+  H298  1  0.59208314  0.18242913  0.76893596  1
  H+  H299  1  0.94010718  0.37647590  0.54745605  1
  H+  H300  1  0.90774162  0.08373572  0.22667352  1
  H+  H301  1  0.53547968  0.31459640  0.24175210  1
  H+  H302  1  0.81571399  0.41068328  0.41695175  1
  H+  H303  1  0.83833421  0.21306301  0.84150815  1
  H+  H304  1  0.81307611  0.90842422  0.10386928  1
  H+  H305  1  0.87620642  0.01476920  1.00048447  1
  H+  H306  1  0.56656868  0.17672235  0.40224080  1
  H+  H307  1  0.09410376  0.17577039  0.38317139  1
  H+  H308  1  0.16343264  0.32245181  0.93018554  1
  H+  H309  1  0.69359644  0.15035761  0.27067975  1
  H+  H310  1  0.32237081  0.71387573  0.41897438  1
  H+  H311  1  0.40316337  0.29047871  0.83865696  1
  H+  H312  1  0.63609881  0.36517420  0.99106434  1
  H+  H313  1  0.42058609  0.10300321  0.26334504  1
  H+  H314  1  0.86747719  0.75438768  1.00537445  1
  H+  H315  1  0.91566314  0.57536683  0.93626267  1
  H+  H316  1  0.39967186  0.07870361  0.55842768  1
  H+  H317  1  0.35009743  0.18643575  0.75826791  1
  H+  H318  1  0.33028307  0.66232251  0.76828308  1
  H+  H319  1  0.11049364  0.91574449  0.05892703  1
  H+  H320  1  0.15317104  0.07298321  0.25696429  1
  H+  H321  1  0.32457530  0.90806557  0.42538575  1
  H+  H322  1  0.40954985  0.63073912  0.52124296  1
  H+  H323  1  0.84634401  0.96978577  0.49494658  1
  H+  H324  1  0.59079665  0.42788767  0.39703086  1
  H+  H325  1  0.22832466  0.37121609  0.61392585  1
  H+  H326  1  0.42515943  0.59364411  0.61659028  1
  H+  H327  1  0.82286206  0.16200386  0.05645623  1
  H+  H328  1  0.81797920  0.88840936  0.74745175  1
  H+  H329  1  0.10769105  0.38107797  0.15720314  1
  H+  H330  1  0.92378456  0.34625908  0.22286269  1
  H+  H331  1  0.21041299  0.81662042  0.59354405  1
  H+  H332  1  0.09775946  0.41659346  0.06214956  1
  H+  H333  1  0.36457160  0.73430363  0.15459123  1
  H+  H334  1  0.67950986  0.05030216  0.21764374  1
  H+  H335  1  0.11910121  0.96711982  0.14682824  1
  H+  H336  1  0.58706581  0.59693049  0.02303803  1
  H+  H337  1  0.37583590  0.94121098  0.07266323  1
  H+  H338  1  0.41959018  0.58223079  0.25132514  1
  H+  H339  1  0.41778034  0.59288607  0.94174031  1
  H+  H340  1  0.16636806  0.57986296  0.93818867  1
  H+  H341  1  0.07962760  0.41682585  0.78140143  1
  H+  H342  1  0.67618944  0.63783401  0.97510943  1
  H+  H343  1  0.06474709  0.95769075  0.74526622  1
  H+  H344  1  0.85854282  0.18690799  0.39473391  1
  H+  H345  1  0.61596632  0.54133983  0.61911016  1
  H+  H346  1  0.90973686  0.82409007  0.91024225  1
  H+  H347  1  0.17000805  0.11609955  0.84175297  1
  H+  H348  1  0.82808174  0.65611449  0.09895296  1
  H+  H349  1  0.41859482  0.83604145  0.22687152  1
  H+  H350  1  0.77700212  0.39436753  0.16258013  1
  H+  H351  1  0.59234223  0.67478762  0.73454901  1
  H+  H352  1  0.58400248  0.66072633  0.10410943  1
  H+  H353  1  0.67430968  0.33325023  0.59757906  1
  H+  H354  1  0.78445948  0.12052953  0.75437789  1
  H+  H355  1  0.18072631  0.08593904  0.94027483  1
  H+  H356  1  0.42674540  0.31953302  0.28055887  1
  H+  H357  1  0.11257883  0.46914856  0.39711946  1
  H+  H358  1  0.91708009  0.83877837  0.55563698  1
  H+  H359  1  0.36061183  0.98134974  0.16312431  1
  H+  H360  1  0.09027540  0.65745330  0.73116140  1
  H+  H361  1  0.98092503  0.89951972  0.66114404  1
  H+  H362  1  0.82719033  0.41396701  0.06779099  1
  H+  H363  1  0.68209457  0.33069299  0.23731575  1
  H+  H364  1  0.74831238  0.88802860  0.01298461  1
  H+  H365  1  0.07366570  0.65446766  0.10590500  1
  H+  H366  1  0.88456914  0.06133425  0.91042350  1
  H+  H367  1  0.20461489  0.32284722  0.61017461  1
  H+  H368  1  0.83164599  0.92281724  0.39302110  1
  H+  H369  1  0.07037552  0.15464111  0.09707330  1
  H+  H370  1  0.86871500  0.05679712  0.58830580  1
  H+  H371  1  0.91278769  0.58054849  0.55924425  1
  H+  H372  1  0.62690330  0.04999341  0.60958955  1
  H+  H373  1  0.37774558  0.77688541  0.32680094  1
  H+  H374  1  0.67210926  0.84859395  0.26037180  1
  H+  H375  1  0.16103576  0.52791291  0.16341209  1
  H+  H376  1  0.42705877  0.34179488  0.93725061  1
  H+  H377  1  0.54463229  0.89523360  0.73858454  1
  H+  H378  1  0.15761788  0.19194132  0.76107588  1
  H+  H379  1  0.32959264  0.67595027  0.06833072  1
  H+  H380  1  0.86213381  0.67161328  0.37945240  1
  H+  H381  1  0.24395407  0.37728834  0.84481514  1
  H+  H382  1  0.04636840  0.02744787  0.71070796  1
  H+  H383  1  0.23231356  0.86098200  0.50142673  1
  O2-  O384  1  0.06842164  0.14948041  0.14221446  1
  O2-  O385  1  0.10060295  0.17906739  0.46231250  1
  O2-  O386  1  0.19003127  0.20423268  0.79896623  1
  O2-  O387  1  0.13825116  0.43301555  0.12998907  1
  O2-  O388  1  0.10733903  0.45358648  0.46906002  1
  O2-  O389  1  0.08613078  0.41289888  0.82686818  1
  O2-  O390  1  0.08052067  0.65846482  0.15112762  1
  O2-  O391  1  0.08720285  0.67053346  0.48199840  1
  O2-  O392  1  0.08449205  0.66032969  0.80871867  1
  O2-  O393  1  0.10244414  0.91200013  0.12576926  1
  O2-  O394  1  0.09614718  0.91490439  0.49080386  1
  O2-  O395  1  0.07069547  0.91291866  0.81567012  1
  O2-  O396  1  0.32050714  0.16095782  0.14455711  1
  O2-  O397  1  0.33385552  0.17799418  0.46873263  1
  O2-  O398  1  0.33693495  0.19060435  0.80222652  1
  O2-  O399  1  0.28751381  0.43671747  0.12860689  1
  O2-  O400  1  0.35036397  0.42996253  0.47188474  1
  O2-  O401  1  0.35216864  0.43537296  0.82640377  1
  O2-  O402  1  0.33705366  0.67483447  0.13784970  1
  O2-  O403  1  0.33058209  0.74914984  0.48581485  1
  O2-  O404  1  0.33057036  0.66748043  0.81372509  1
  O2-  O405  1  0.33907507  0.92438278  0.14338905  1
  O2-  O406  1  0.33065695  0.90878972  0.47169501  1
  O2-  O407  1  0.33588357  0.93045396  0.81596276  1
  O2-  O408  1  0.57379145  0.16653030  0.14295084  1
  O2-  O409  1  0.57365449  0.15038950  0.48119270  1
  O2-  O410  1  0.59230276  0.18505970  0.81516464  1
  O2-  O411  1  0.60030517  0.42621450  0.13942079  1
  O2-  O412  1  0.58634217  0.42456903  0.48185482  1
  O2-  O413  1  0.59869093  0.40958109  0.82536443  1
  O2-  O414  1  0.58612404  0.66117690  0.15040642  1
  O2-  O415  1  0.58463640  0.66129790  0.47724804  1
  O2-  O416  1  0.57364350  0.62205345  0.81460231  1
  O2-  O417  1  0.57880404  0.90477901  0.13437860  1
  O2-  O418  1  0.54831700  0.87287611  0.47398947  1
  O2-  O419  1  0.56729177  0.90896876  0.82274821  1
  O2-  O420  1  0.82975632  0.16991767  0.13327764  1
  O2-  O421  1  0.85361468  0.18807965  0.48171844  1
  O2-  O422  1  0.79692427  0.15107050  0.83241775  1
  O2-  O423  1  0.83650637  0.42797350  0.14651952  1
  O2-  O424  1  0.83035497  0.42124252  0.46076178  1
  O2-  O425  1  0.84136439  0.41512384  0.81031235  1
  O2-  O426  1  0.82151764  0.65597586  0.14493207  1
  O2-  O427  1  0.85026278  0.67942782  0.46273997  1
  O2-  O428  1  0.83943383  0.66269239  0.81509130  1
  O2-  O429  1  0.81213485  0.91115035  0.14923721  1
  O2-  O430  1  0.82289663  0.91460154  0.47305784  1
  O2-  O431  1  0.80646868  0.89032240  0.82745022  1
  O2-  O432  1  0.15101006  0.06805067  0.18061955  1
  O2-  O433  1  0.17140921  0.09517668  0.51346412  1
  O2-  O434  1  0.17978398  0.07183616  0.86194757  1
  O2-  O435  1  0.07942500  0.29533774  0.20143594  1
  O2-  O436  1  0.18666826  0.35559895  0.49429373  1
  O2-  O437  1  0.18248817  0.33415778  0.85287248  1
  O2-  O438  1  0.18614136  0.58733089  0.18037821  1
  O2-  O439  1  0.18564392  0.61124900  0.52273313  1
  O2-  O440  1  0.16501149  0.58089006  0.85995007  1
  O2-  O441  1  0.17741987  0.82875070  0.18152524  1
  O2-  O442  1  0.17661427  0.83089018  0.52463036  1
  O2-  O443  1  0.15859572  0.82831549  0.84497880  1
  O2-  O444  1  0.41135543  0.08974066  0.19126927  1
  O2-  O445  1  0.39996979  0.07857108  0.51339349  1
  O2-  O446  1  0.43266977  0.10707648  0.85992362  1
  O2-  O447  1  0.48257690  0.30434906  0.22167871  1
  O2-  O448  1  0.42264650  0.34323805  0.49480881  1
  O2-  O449  1  0.43410085  0.34740815  0.85910094  1
  O2-  O450  1  0.41561525  0.58956457  0.17930749  1
  O2-  O451  1  0.42905864  0.58953960  0.53005791  1
  O2-  O452  1  0.42018954  0.59604897  0.86528125  1
  O2-  O453  1  0.42053433  0.83929585  0.18133380  1
  O2-  O454  1  0.40304490  0.75272270  0.51673065  1
  O2-  O455  1  0.40230402  0.83026442  0.85792152  1
  O2-  O456  1  0.66292098  0.06432128  0.17892454  1
  O2-  O457  1  0.61817285  0.02540403  0.52742948  1
  O2-  O458  1  0.65362665  0.06146025  0.89774479  1
  O2-  O459  1  0.67032809  0.33728581  0.19253890  1
  O2-  O460  1  0.67212700  0.33882655  0.51512644  1
  O2-  O461  1  0.67225361  0.32758007  0.85914133  1
  O2-  O462  1  0.66564347  0.57842723  0.17659168  1
  O2-  O463  1  0.68025547  0.59743567  0.50584097  1
  O2-  O464  1  0.67561664  0.57119136  0.86038409  1
  O2-  O465  1  0.65716287  0.83017711  0.19335260  1
  O2-  O466  1  0.65537312  0.82358098  0.51591440  1
  O2-  O467  1  0.64425541  0.82038260  0.86767256  1
  O2-  O468  1  0.90306143  0.08056197  0.18137780  1
  O2-  O469  1  0.88183773  0.07050199  0.54295903  1
  O2-  O470  1  0.87065827  0.05538000  0.86519671  1
  O2-  O471  1  0.91114418  0.34435148  0.17847002  1
  O2-  O472  1  0.93785613  0.36494436  0.50275053  1
  O2-  O473  1  0.91128289  0.32060501  0.85955714  1
  O2-  O474  1  0.90479458  0.58033355  0.19752411  1
  O2-  O475  1  0.91654569  0.58609204  0.51412343  1
  O2-  O476  1  0.92174148  0.57765320  0.85568720  1
  O2-  O477  1  0.84982344  0.80314257  0.20402463  1
  O2-  O478  1  0.91581643  0.84136677  0.51088881  1
  O2-  O479  1  0.90852365  0.82453346  0.86516880  1
  O2-  O480  1  0.15152746  0.07307393  0.30286047  1
  O2-  O481  1  0.20185849  0.05587074  0.63206552  1
  O2-  O482  1  0.18095284  0.08828962  0.98547968  1
  O2-  O483  1  0.16839372  0.34847853  0.31348858  1
  O2-  O484  1  0.11656059  0.28803641  0.72040104  1
  O2-  O485  1  0.15819296  0.32005028  0.97548745  1
  O2-  O486  1  0.15020228  0.55767921  0.33069336  1
  O2-  O487  1  0.18662673  0.58907046  0.63980554  1
  O2-  O488  1  0.16736122  0.57871044  0.98379315  1
  O2-  O489  1  0.15205723  0.82262973  0.30377568  1
  O2-  O490  1  0.23300473  0.80778760  0.63303838  1
  O2-  O491  1  0.17152769  0.81247863  0.96361176  1
  O2-  O492  1  0.42024213  0.10684173  0.30967630  1
  O2-  O493  1  0.42678956  0.06792882  0.64055317  1
  O2-  O494  1  0.45566196  0.11829877  0.98792728  1
  O2-  O495  1  0.40587688  0.31826540  0.32269028  1
  O2-  O496  1  0.42245193  0.35839179  0.63140438  1
  O2-  O497  1  0.42657257  0.34451403  0.98267311  1
  O2-  O498  1  0.41991646  0.57998765  0.29761954  1
  O2-  O499  1  0.42506379  0.60074274  0.66123792  1
  O2-  O500  1  0.41452842  0.58602351  0.98711658  1
  O2-  O501  1  0.41170819  0.83232017  0.30462156  1
  O2-  O502  1  0.39070541  0.80423630  0.62937460  1
  O2-  O503  1  0.39305643  0.81568048  0.97535301  1
  O2-  O504  1  0.71091098  0.16865226  0.31233713  1
  O2-  O505  1  0.62714522  0.05757760  0.65423555  1
  O2-  O506  1  0.69384188  0.03677948  0.94600365  1
  O2-  O507  1  0.69779651  0.30823775  0.30622356  1
  O2-  O508  1  0.67709002  0.33292479  0.64280894  1
  O2-  O509  1  0.65785761  0.32581813  0.97837985  1
  O2-  O510  1  0.67583257  0.59948307  0.31730500  1
  O2-  O511  1  0.64275825  0.56671102  0.65793524  1
  O2-  O512  1  0.68497918  0.58853889  0.97454274  1
  O2-  O513  1  0.68221732  0.85813322  0.30719757  1
  O2-  O514  1  0.64104382  0.83053746  0.63365844  1
  O2-  O515  1  0.64283151  0.84664020  0.99254826  1
  O2-  O516  1  0.91695887  0.08535362  0.30624787  1
  O2-  O517  1  0.87288260  0.04564835  0.66048550  1
  O2-  O518  1  0.90787962  0.07305357  0.98181944  1
  O2-  O519  1  0.94329141  0.35653265  0.30055707  1
  O2-  O520  1  0.96103597  0.41968243  0.61952416  1
  O2-  O521  1  0.91283773  0.33244141  0.98259104  1
  O2-  O522  1  0.88519177  0.55789537  0.26259184  1
  O2-  O523  1  0.91945044  0.58583858  0.64100833  1
  O2-  O524  1  0.91319307  0.57565765  0.98158252  1
  O2-  O525  1  0.96914979  0.86420871  0.34614022  1
  O2-  O526  1  0.93657986  0.84419969  0.64193689  1
  O2-  O527  1  0.89105997  0.81758271  0.99304902  1
  O2-  O528  1  0.07502799  0.15525916  0.01654791  1
  O2-  O529  1  0.08693295  0.17534637  0.33837640  1
  O2-  O530  1  0.03287087  0.11715307  0.68955618  1
  O2-  O531  1  0.08229320  0.41197357  0.01719627  1
  O2-  O532  1  0.11681264  0.46854875  0.35065815  1
  O2-  O533  1  0.07681881  0.41556802  0.70770576  1
  O2-  O534  1  0.07774560  0.65576109  0.02656979  1
  O2-  O535  1  0.08015716  0.66701319  0.35574204  1
  O2-  O536  1  0.09450699  0.65757605  0.68568569  1
  O2-  O537  1  0.11745872  0.92186098  0.01135766  1
  O2-  O538  1  0.04473994  0.89959624  0.30597572  1
  O2-  O539  1  0.06049259  0.98108275  0.70485678  1
  O2-  O540  1  0.34351098  0.17713100  0.02494087  1
  O2-  O541  1  0.31376330  0.15361818  0.34864354  1
  O2-  O542  1  0.35643107  0.18138887  0.68207347  1
  O2-  O543  1  0.32443537  0.41333379  0.01149538  1
  O2-  O544  1  0.33769657  0.41944351  0.34625974  1
  O2-  O545  1  0.36718575  0.45253113  0.70720961  1
  O2-  O546  1  0.32688869  0.67406893  0.02119904  1
  O2-  O547  1  0.32026410  0.68787361  0.37637327  1
  O2-  O548  1  0.32846010  0.65565104  0.68933785  1
  O2-  O549  1  0.40974865  0.95527262  0.03331043  1
  O2-  O550  1  0.31572613  0.90856382  0.35370596  1
  O2-  O551  1  0.29803494  0.95287492  0.69879259  1
  O2-  O552  1  0.54276350  0.15875143  0.01586476  1
  O2-  O553  1  0.55408727  0.19970465  0.36512374  1
  O2-  O554  1  0.58645030  0.17220841  0.69531486  1
  O2-  O555  1  0.59563494  0.42823987  0.01801456  1
  O2-  O556  1  0.58508984  0.43012608  0.35262500  1
  O2-  O557  1  0.59098533  0.39952834  0.70851458  1
  O2-  O558  1  0.57364179  0.64198417  0.03287159  1
  O2-  O559  1  0.58336622  0.66582342  0.36020663  1
  O2-  O560  1  0.58674246  0.67154877  0.68992825  1
  O2-  O561  1  0.59615745  0.89211434  0.00816955  1
  O2-  O562  1  0.57970178  0.90737091  0.35856181  1
  O2-  O563  1  0.54411196  0.89710271  0.69357913  1
  O2-  O564  1  0.82517636  0.16122532  0.01075986  1
  O2-  O565  1  0.86064347  0.18736750  0.35003881  1
  O2-  O566  1  0.78210755  0.10009920  0.71214440  1
  O2-  O567  1  0.82203895  0.40806799  0.02242256  1
  O2-  O568  1  0.76524129  0.38368791  0.33996662  1
  O2-  O569  1  0.83937616  0.42437252  0.68612016  1
  O2-  O570  1  0.83074697  0.65818208  0.02535296  1
  O2-  O571  1  0.86510710  0.67898748  0.33459145  1
  O2-  O572  1  0.81563236  0.65477566  0.68705390  1
  O2-  O573  1  0.80926115  0.90958419  0.02572353  1
  O2-  O574  1  0.83361101  0.92386686  0.34754804  1
  O2-  O575  1  0.82176565  0.89178490  0.70232916  1
