# generated using pymatgen
data_H2O
_symmetry_space_group_name_H-M   'P 1'
_cell_length_a   17.99181308
_cell_length_b   17.98217684
_cell_length_c   21.99475066
_cell_angle_alpha   90.00799515
_cell_angle_beta   89.98403545
_cell_angle_gamma   120.00165527
_symmetry_Int_Tables_number   1
_chemical_formula_structural   H2O
_chemical_formula_sum   'H384 O192'
_cell_volume   6162.53797660
_cell_formula_units_Z   192
loop_
 _symmetry_equiv_pos_site_id
 _symmetry_equiv_pos_as_xyz
  1  'x, y, z'
loop_
 _atom_type_symbol
 _atom_type_oxidation_number
  H+  1.0
  O2-  -2.0
loop_
 _atom_site_type_symbol
 _atom_site_label
 _atom_site_symmetry_multiplicity
 _atom_site_fract_x
 _atom_site_fract_y
 _atom_site_fract_z
 _atom_site_occupancy
  H+  H0  1  0.14952690  0.77992665  0.32156861  1
  H+  H1  1  0.85124189  0.63521938  1.00365369  1
  H+  H2  1  0.47335339  0.61537292  0.99359590  1
  H+  H3  1  0.83585076  0.16467640  0.72379412  1
  H+  H4  1  0.27278974  0.88079069  0.67332733  1
  H+  H5  1  0.90168399  1.03254963  0.66058472  1
  H+  H6  1  0.18289688  0.84451088  0.25496194  1
  H+  H7  1  0.63721790  0.27769291  0.49943811  1
  H+  H8  1  0.71947262  0.87015231  0.65289292  1
  H+  H9  1  0.59863414  0.13127779  0.66877817  1
  H+  H10  1  0.78987929  0.77621661  0.78668921  1
  H+  H11  1  0.97512290  0.61406413  0.50042240  1
  H+  H12  1  0.40329323  0.75750701  0.31414185  1
  H+  H13  1  0.46724932  0.36445987  0.65373356  1
  H+  H14  1  0.72552299  0.60527986  1.00241446  1
  H+  H15  1  0.11155733  0.16519563  0.77436443  1
  H+  H16  1  0.13345697  0.20365406  0.49511202  1
  H+  H17  1  0.63439722  0.23091628  0.15179551  1
  H+  H18  1  0.63756168  0.11541281  0.32171385  1
  H+  H19  1  0.37272393  0.83960106  0.51002067  1
  H+  H20  1  0.83633464  0.41296118  0.39284998  1
  H+  H21  1  0.93813580  0.85705608  0.59592942  1
  H+  H22  1  0.71861842  0.10650270  0.50832625  1
  H+  H23  1  0.62738425  0.85797823  0.50257430  1
  H+  H24  1  0.85794788  1.00965824  0.81678929  1
  H+  H25  1  0.29992143  0.18487121  0.17997242  1
  H+  H26  1  0.99105122  0.59222622  0.84116212  1
  H+  H27  1  1.02674588  0.64745609  0.33506680  1
  H+  H28  1  0.88221879  0.85151305  0.32784658  1
  H+  H29  1  0.97272756  0.86849513  0.50368749  1
  H+  H30  1  0.10622639  0.06299198  0.69015652  1
  H+  H31  1  0.59161183  0.56444527  0.86098883  1
  H+  H32  1  0.13330910  0.77936446  0.50659955  1
  H+  H33  1  0.14896548  0.14285488  0.83435768  1
  H+  H34  1  0.64447107  0.85987224  0.99904661  1
  H+  H35  1  0.88441628  0.61099430  0.50305231  1
  H+  H36  1  0.61373018  0.63720932  0.33958305  1
  H+  H37  1  0.87698556  0.10690455  0.51497374  1
  H+  H38  1  0.13958794  0.96675951  0.66305811  1
  H+  H39  1  0.13659708  0.84942970  0.66583784  1
  H+  H40  1  0.03806528  0.89611717  0.66666071  1
  H+  H41  1  0.62305654  0.39918003  0.48167909  1
  H+  H42  1  0.11085715  0.63848310  0.49049000  1
  H+  H43  1  0.71936992  0.36103878  0.65576732  1
  H+  H44  1  0.89928226  0.01770564  0.80252574  1
  H+  H45  1  0.82779318  0.42451799  0.05335024  1
  H+  H46  1  0.76541462  0.88091226  0.49446290  1
  H+  H47  1  0.19113408  0.34095731  0.35029140  1
  H+  H48  1  0.59040933  0.69181306  0.81864224  1
  H+  H49  1  0.40497586  0.53292267  0.32771553  1
  H+  H50  1  0.61632811  0.64153587  0.16895172  1
  H+  H51  1  0.18026082  0.63868528  1.00443429  1
  H+  H52  1  0.11613880  0.64192077  0.83039558  1
  H+  H53  1  -0.02748696  0.35742723  0.65900879  1
  H+  H54  1  0.97612621  0.60904580  0.65554700  1
  H+  H55  1  0.38060420  0.60273036  0.50850924  1
  H+  H56  1  0.26830468  0.63171461  0.66814282  1
  H+  H57  1  0.12832760  0.52171959  0.33274975  1
  H+  H58  1  0.77899170  0.38037626  0.33237397  1
  H+  H59  1  0.72168263  0.35934353  -0.01438954  1
  H+  H60  1  0.86953177  0.51105356  0.98797659  1
  H+  H61  1  1.07781293  0.40851054  0.43918620  1
  H+  H62  1  0.07240327  0.64580521  0.00150753  1
  H+  H63  1  0.45065321  0.22582265  0.18579845  1
  H+  H64  1  0.26975156  0.62534366  0.15437701  1
  H+  H65  1  0.85319861  0.72593391  1.00680055  1
  H+  H66  1  0.40907601  0.40574436  0.33472203  1
  H+  H67  1  0.35673297  0.71163563  0.49643761  1
  H+  H68  1  0.14116466  0.49447555  0.18013868  1
  H+  H69  1  0.54683297  0.38413126  0.16405855  1
  H+  H70  1  0.86373721  0.96964355  0.34360032  1
  H+  H71  1  0.10869270  0.37337094  0.49469955  1
  H+  H72  1  0.86102019  0.47619233  0.66901720  1
  H+  H73  1  0.35649209  0.97599976  0.67264977  1
  H+  H74  1  0.61789150  0.38160793  0.00579923  1
  H+  H75  1  0.84855230  0.62046466  0.86347158  1
  H+  H76  1  0.10594196  0.96265168  0.34593134  1
  H+  H77  1  0.22590276  0.89088022  0.32636038  1
  H+  H78  1  0.96360586  0.32536035  0.96388930  1
  H+  H79  1  0.89128820  0.52274431  0.32418832  1
  H+  H80  1  0.26798409  0.14311659  1.01402674  1
  H+  H81  1  0.66428093  0.83103255  0.25559728  1
  H+  H82  1  0.39857923  0.86324006  0.83873000  1
  H+  H83  1  0.10463891  0.07735203  0.17675869  1
  H+  H84  1  0.96669490  0.95748496  0.87884641  1
  H+  H85  1  0.38648259  0.12440640  1.00740404  1
  H+  H86  1  0.57941707  0.66594959  0.43393662  1
  H+  H87  1  0.08575979  0.67397929  0.43166791  1
  H+  H88  1  0.63608962  1.02334032  0.16891438  1
  H+  H89  1  0.58269285  0.16337667  0.76669479  1
  H+  H90  1  0.35646417  0.17014958  0.38748430  1
  H+  H91  1  0.60760367  0.88448488  0.16027972  1
  H+  H92  1  0.63898213  0.77134318  0.17954843  1
  H+  H93  1  0.63576124  0.86618084  0.32547897  1
  H+  H94  1  0.00529469  0.40170816  0.81643006  1
  H+  H95  1  0.52845228  0.64498281  0.16971639  1
  H+  H96  1  0.12968613  0.68895297  0.16906999  1
  H+  H97  1  0.37892214  0.60466123  0.66110897  1
  H+  H98  1  0.51845916  0.88222309  0.48831212  1
  H+  H99  1  0.85186559  0.71257508  0.33671002  1
  H+  H100  1  0.11199581  0.22729739  1.01059535  1
  H+  H101  1  0.85385286  0.22090245  0.49995238  1
  H+  H102  1  0.56036306  0.98181054  0.85492920  1
  H+  H103  1  0.85534264  0.12683920  0.34880123  1
  H+  H104  1  0.11849272  0.76586375  0.84924286  1
  H+  H105  1  0.55381025  0.42494380  0.82080458  1
  H+  H106  1  0.86754789  0.35258508  0.16342788  1
  H+  H107  1  0.52700176  0.64221545  0.33657704  1
  H+  H108  1  0.64362389  0.74680585  0.66258759  1
  H+  H109  1  0.64398517  0.64449066  0.66328095  1
  H+  H110  1  0.71599579  0.36377392  0.83604697  1
  H+  H111  1  0.79198841  0.15833635  0.82267058  1
  H+  H112  1  0.01242443  0.38363115  0.34600451  1
  H+  H113  1  0.21756201  0.87218872  0.50883857  1
  H+  H114  1  0.85816943  0.73506202  0.16114621  1
  H+  H115  1  0.93926630  0.16816784  0.20971968  1
  H+  H116  1  0.21860651  0.60447807  0.50513449  1
  H+  H117  1  0.08022337  0.14473574  0.40713082  1
  H+  H118  1  1.03415668  0.35106947  0.17276326  1
  H+  H119  1  0.72773040  0.36399018  0.50029454  1
  H+  H120  1  0.12359664  0.56926291  0.16885411  1
  H+  H121  1  0.44832381  0.02015752  0.29083749  1
  H+  H122  1  0.77551026  0.88126563  0.34091936  1
  H+  H123  1  0.60651561  0.97223741  0.49090096  1
  H+  H124  1  0.36811097  0.48820222  0.66633990  1
  H+  H125  1  0.61465833  0.13280001  0.49063717  1
  H+  H126  1  0.38022025  0.27987862  1.01073103  1
  H+  H127  1  0.62293797  -0.02029267  0.33412329  1
  H+  H128  1  0.59917884  -0.01529707  0.84000367  1
  H+  H129  1  0.22734388  0.35907957  0.65369743  1
  H+  H130  1  0.13181725  0.53183229  0.84913295  1
  H+  H131  1  0.32986699  0.42291134  0.73240030  1
  H+  H132  1  0.60955930  0.22004967  -0.00156083  1
  H+  H133  1  0.60160805  0.22138537  0.66758109  1
  H+  H134  1  0.36742962  0.94677152  0.46410626  1
  H+  H135  1  0.44986037  0.15068100  0.52732169  1
  H+  H136  1  0.66428677  0.33349353  0.59429154  1
  H+  H137  1  0.09666692  0.20614112  0.34929440  1
  H+  H138  1  0.31027701  0.16065971  0.07877605  1
  H+  H139  1  0.14008778  0.74621563  0.00995647  1
  H+  H140  1  0.41729232  0.90407826  0.35102202  1
  H+  H141  1  0.37651319  0.10913652  0.90874876  1
  H+  H142  1  0.31388462  0.22317701  0.40547059  1
  H+  H143  1  0.27054001  0.63184900  0.34166946  1
  H+  H144  1  0.13137941  0.85749531  1.00513024  1
  H+  H145  1  0.25855169  0.10504951  0.86713564  1
  H+  H146  1  0.35476245  0.10183617  0.18276166  1
  H+  H147  1  0.68593066  0.59153431  0.84273083  1
  H+  H148  1  0.09958759  0.38350560  0.34387830  1
  H+  H149  1  0.49951034  0.82442386  0.82002739  1
  H+  H150  1  0.81583240  0.89958807  0.72889448  1
  H+  H151  1  0.34725230  0.48243912  0.81679334  1
  H+  H152  1  0.83835042  0.34141253  0.19048372  1
  H+  H153  1  0.37873258  0.76762896  0.65898228  1
  H+  H154  1  0.19012591  0.55514983  1.00438157  1
  H+  H155  1  0.84697821  0.12287156  0.14638134  1
  H+  H156  1  0.62374992  0.48356245  0.16222592  1
  H+  H157  1  1.01224285  0.87927288  1.02471317  1
  H+  H158  1  0.39896783  0.80615172  0.89605795  1
  H+  H159  1  0.14892832  0.26614944  0.84390265  1
  H+  H160  1  0.11099753  0.71565749  0.67499013  1
  H+  H161  1  0.45766279  0.11232129  0.67287513  1
  H+  H162  1  0.35918731  0.63024875  0.34319809  1
  H+  H163  1  0.88526638  0.27472466  0.81990929  1
  H+  H164  1  0.12970244  1.04957605  0.48580962  1
  H+  H165  1  0.27958549  0.90089467  0.00614573  1
  H+  H166  1  0.97220337  0.35582716  0.50914638  1
  H+  H167  1  0.16073714  0.57783140  0.59781545  1
  H+  H168  1  0.59369311  0.67508939  0.72144738  1
  H+  H169  1  0.39202514  0.62284194  0.17438574  1
  H+  H170  1  0.86276422  0.38450248  0.49117188  1
  H+  H171  1  0.88016629  0.86003234  0.50714738  1
  H+  H172  1  0.63628012  0.85196453  0.83657200  1
  H+  H173  1  0.89699304  0.24413441  0.18091866  1
  H+  H174  1  0.60837240  0.47451234  0.66254685  1
  H+  H175  1  0.35958511  0.48681465  0.00862352  1
  H+  H176  1  0.34183838  1.01349419  0.33672062  1
  H+  H177  1  0.72776574  0.86703970  0.18052217  1
  H+  H178  1  0.88673096  0.87360938  0.17308536  1
  H+  H179  1  0.64300350  0.11686908  0.16716600  1
  H+  H180  1  0.29120847  0.97255062  0.39837750  1
  H+  H181  1  0.21954121  0.09268430  0.16716489  1
  H+  H182  1  0.47141430  0.60662234  0.50802783  1
  H+  H183  1  0.36780484  0.90108220  0.16193457  1
  H+  H184  1  0.73849270  0.61473421  0.75295398  1
  H+  H185  1  0.72312193  0.92476937  0.86438264  1
  H+  H186  1  0.86095619  0.72551168  0.49323228  1
  H+  H187  1  0.25821594  0.15940231  0.68119016  1
  H+  H188  1  0.26765786  0.38608787  0.81589018  1
  H+  H189  1  0.22784855  0.36680998  0.99632737  1
  H+  H190  1  0.13473653  0.51465530  0.65492681  1
  H+  H191  1  0.10807451  0.62531070  0.67405006  1
  H+  H192  1  0.13514384  0.86187689  0.84851757  1
  H+  H193  1  -0.02632434  0.11446669  -0.00020694  1
  H+  H194  1  0.63319518  0.49567060  1.00598195  1
  H+  H195  1  0.51264801  0.87660898  0.67068421  1
  H+  H196  1  0.63504288  0.52406679  0.49963221  1
  H+  H197  1  0.94683340  0.60406831  1.00190263  1
  H+  H198  1  0.89822138  0.87619221  0.84292045  1
  H+  H199  1  0.51836881  0.13521229  0.00334943  1
  H+  H200  1  1.04487681  0.91200771  0.82866140  1
  H+  H201  1  0.91729966  0.58594653  0.26675643  1
  H+  H202  1  0.11289771  0.37492192  0.66591853  1
  H+  H203  1  0.14743287  0.34821809  0.18534211  1
  H+  H204  1  0.98646201  0.12322289  0.18110933  1
  H+  H205  1  0.31947568  0.39551161  0.32562662  1
  H+  H206  1  0.88794364  0.62757415  0.17494450  1
  H+  H207  1  0.72271604  0.61504042  0.50364214  1
  H+  H208  1  0.88660034  0.48804506  0.83583126  1
  H+  H209  1  0.76207564  0.12798979  -0.00215846  1
  H+  H210  1  0.50723646  0.11575028  0.31898578  1
  H+  H211  1  0.88398825  0.86564123  0.00679659  1
  H+  H212  1  0.66720770  0.15059698  0.83829234  1
  H+  H213  1  0.45032892  0.60776844  0.83286379  1
  H+  H214  1  0.14372536  0.26653243  0.65781708  1
  H+  H215  1  0.52906347  0.12553835  0.46561184  1
  H+  H216  1  0.92792165  0.08650065  0.59848260  1
  H+  H217  1  0.96911406  0.09924850  0.34067423  1
  H+  H218  1  0.86343853  0.47390231  0.48863225  1
  H+  H219  1  0.56663220  0.44149144  0.32436550  1
  H+  H220  1  0.47196822  0.36425499  1.00234359  1
  H+  H221  1  0.60775323  0.71891501  1.01060733  1
  H+  H222  1  0.86499613  -0.01991113  1.01188097  1
  H+  H223  1  0.10908090  0.92786336  0.12593780  1
  H+  H224  1  0.39121592  0.53419861  0.17524942  1
  H+  H225  1  0.33942805  0.14634816  0.68484353  1
  H+  H226  1  0.23787747  0.35487434  0.18697328  1
  H+  H227  1  1.03327542  0.13330947  0.67008835  1
  H+  H228  1  0.21896703  0.10653255  0.32671866  1
  H+  H229  1  0.36771359  0.38933327  0.66878897  1
  H+  H230  1  0.35283351  0.72266623  0.82127658  1
  H+  H231  1  0.85560578  0.62585939  0.33913644  1
  H+  H232  1  0.62779439  0.01716617  0.66281144  1
  H+  H233  1  0.25185834  0.16393227  0.52572230  1
  H+  H234  1  0.37629753  0.40696764  0.15507694  1
  H+  H235  1  1.00962538  0.15457649  0.84928322  1
  H+  H236  1  0.87937803  0.01957151  0.51306415  1
  H+  H237  1  0.37419049  0.27911738  0.66433873  1
  H+  H238  1  0.42277714  0.27976149  0.14605236  1
  H+  H239  1  0.51991689  0.88613457  0.15343121  1
  H+  H240  1  0.88127721  0.27030180  0.65916145  1
  H+  H241  1  0.34759039  0.01182298  0.49855112  1
  H+  H242  1  0.63977065  0.25599701  0.31759836  1
  H+  H243  1  0.40562150  0.27268221  0.84642664  1
  H+  H244  1  0.63254493  0.76896150  0.32456503  1
  H+  H245  1  0.71710605  0.10516645  0.65817654  1
  H+  H246  1  0.10868524  0.90575110  0.50098326  1
  H+  H247  1  0.88682321  0.16422611  0.82150451  1
  H+  H248  1  0.35570713  0.13300766  0.53962887  1
  H+  H249  1  0.76135518  0.12806000  0.15345479  1
  H+  H250  1  0.76187909  0.83875471  0.81881322  1
  H+  H251  1  0.85351743  0.37789268  0.81872560  1
  H+  H252  1  0.60636234  0.38455331  0.66088737  1
  H+  H253  1  0.65447999  0.07387535  0.56542022  1
  H+  H254  1  0.72770494  0.61782141  0.17801430  1
  H+  H255  1  0.12840860  0.10036362  0.33043550  1
  H+  H256  1  0.77671521  0.88861533  0.01442297  1
  H+  H257  1  0.86025197  0.38667322  0.67305006  1
  H+  H258  1  0.38336559  0.78098709  0.16000990  1
  H+  H259  1  0.14052607  0.80915363  0.17062460  1
  H+  H260  1  0.88918295  0.66173297  0.85507551  1
  H+  H261  1  0.23701483  0.88869516  0.17469317  1
  H+  H262  1  0.17059889  0.08032983  0.94078001  1
  H+  H263  1  0.88393134  0.35323452  0.32493272  1
  H+  H264  1  0.86129157  0.38508024  -0.00186111  1
  H+  H265  1  0.87176230  0.64001897  0.65078216  1
  H+  H266  1  0.54076431  0.73127462  0.78683009  1
  H+  H267  1  0.62812600  0.10494201  0.98945298  1
  H+  H268  1  0.97807023  0.63101251  0.17203058  1
  H+  H269  1  0.86990615  0.25497608  -0.01943508  1
  H+  H270  1  0.35737753  0.46796633  0.49569272  1
  H+  H271  1  0.36409035  0.60866887  0.83943489  1
  H+  H272  1  0.57277714  0.66211276  0.06936348  1
  H+  H273  1  1.01721704  0.87542179  0.34747104  1
  H+  H274  1  0.52933462  0.86029664  0.00698462  1
  H+  H275  1  0.13377221  0.39983760  0.01236609  1
  H+  H276  1  0.91170568  0.79532292  0.65032174  1
  H+  H277  1  0.62654899  0.76736842  0.50343942  1
  H+  H278  1  0.60887250  0.63435670  0.49229301  1
  H+  H279  1  0.12241245  0.21557744  0.16738486  1
  H+  H280  1  0.65184340  0.36700365  0.17111617  1
  H+  H281  1  0.60746008  0.22247942  0.82492328  1
  H+  H282  1  0.38380298  0.03491307  0.99702812  1
  H+  H283  1  0.38817825  0.90816230  0.37374810  1
  H+  H284  1  0.71937649  0.59441289  0.33244391  1
  H+  H285  1  0.85749441  0.50136966  0.14147819  1
  H+  H286  1  0.73278210  0.61641156  0.64120065  1
  H+  H287  1  0.66594896  0.57751600  0.23636718  1
  H+  H288  1  0.90067454  0.32446178  0.88375014  1
  H+  H289  1  0.82234298  0.16338962  0.05705432  1
  H+  H290  1  0.10203800  0.92862637  0.76891469  1
  H+  H291  1  0.13464278  0.04702962  0.23510671  1
  H+  H292  1  0.37160363  0.99280116  0.16121968  1
  H+  H293  1  0.12824274  0.34182969  0.84123050  1
  H+  H294  1  0.41025702  0.58730047  0.93414013  1
  H+  H295  1  0.44844382  0.33058973  0.26419829  1
  H+  H296  1  0.17762130  0.59445512  0.90729119  1
  H+  H297  1  0.41203081  0.82237301  0.56895743  1
  H+  H298  1  0.94344098  0.12671928  0.90406593  1
  H+  H299  1  0.83104497  0.42205712  0.76173107  1
  H+  H300  1  0.16721055  0.33437464  0.93745957  1
  H+  H301  1  0.65697504  0.33251844  0.92893965  1
  H+  H302  1  0.66143749  0.58466411  0.58845099  1
  H+  H303  1  0.67715571  0.83147996  0.94136135  1
  H+  H304  1  0.16351763  0.82372271  0.60394080  1
  H+  H305  1  0.58706802  0.91152909  0.06288603  1
  H+  H306  1  0.49432861  0.84408491  0.31156780  1
  H+  H307  1  0.91111472  0.33157252  0.56730218  1
  H+  H308  1  0.86632446  0.13825326  0.66369578  1
  H+  H309  1  0.77183791  0.40899973  0.14307461  1
  H+  H310  1  0.91501489  0.82703086  0.26792911  1
  H+  H311  1  0.16544719  0.03221474  0.84741583  1
  H+  H312  1  0.38216886  0.30093345  0.56640099  1
  H+  H313  1  0.91985911  0.58002689  0.59328674  1
  H+  H314  1  0.59531356  0.41573718  0.06983111  1
  H+  H315  1  0.62222708  0.35405066  0.83193655  1
  H+  H316  1  0.82409460  0.15979619  0.44148959  1
  H+  H317  1  0.59584992  0.17293285  0.38130367  1
  H+  H318  1  0.34669034  0.05757502  0.84823428  1
  H+  H319  1  0.81259066  0.65336988  0.80193884  1
  H+  H320  1  0.41140711  0.57624639  0.60190878  1
  H+  H321  1  0.06377436  0.42950948  0.02015954  1
  H+  H322  1  0.59042416  0.91751730  0.39377758  1
  H+  H323  1  0.56487824  0.39643477  0.75467475  1
  H+  H324  1  0.08429266  0.41018033  0.72369902  1
  H+  H325  1  0.08447972  0.16326519  0.10470457  1
  H+  H326  1  0.88245593  0.11095768  0.99412029  1
  H+  H327  1  0.33300655  0.42803585  0.10017540  1
  H+  H328  1  0.42421995  0.82750902  0.22168416  1
  H+  H329  1  0.66056457  0.82862502  0.59108994  1
  H+  H330  1  0.92229893  0.84801955  0.94691890  1
  H+  H331  1  0.13401021  0.02354246  1.00239875  1
  H+  H332  1  0.69465717  0.11672004  0.89725901  1
  H+  H333  1  0.65773714  0.56490198  0.94376458  1
  H+  H334  1  0.55642871  0.85716756  0.75835026  1
  H+  H335  1  0.92377791  0.56034363  0.90259481  1
  H+  H336  1  0.09393924  0.39960231  0.11290961  1
  H+  H337  1  0.41998798  0.09661650  0.23176133  1
  H+  H338  1  0.33158369  0.66008516  0.09657927  1
  H+  H339  1  0.79039625  0.96999810  0.72087614  1
  H+  H340  1  0.11380293  0.64438766  0.33631204  1
  H+  H341  1  0.82861111  0.91093446  0.43719341  1
  H+  H342  1  0.68289650  0.33227940  0.22711344  1
  H+  H343  1  0.63096331  0.01659050  0.98637125  1
  H+  H344  1  0.61455901  0.44640361  0.42289449  1
  H+  H345  1  0.36191879  0.92509708  0.75707032  1
  H+  H346  1  0.82841706  0.66313489  0.43476592  1
  H+  H347  1  0.33696194  0.93208952  0.06498512  1
  H+  H348  1  0.85796016  0.98626150  0.16800333  1
  H+  H349  1  0.31199194  0.70327492  -0.02739039  1
  H+  H350  1  0.04638913  0.48318630  0.77506080  1
  H+  H351  1  0.83166058  0.92872751  0.10742823  1
  H+  H352  1  0.26243749  0.63615388  0.82438970  1
  H+  H353  1  0.41939090  0.29622037  0.33081691  1
  H+  H354  1  0.38262125  0.85986658  0.65644360  1
  H+  H355  1  0.16271649  0.57503708  0.27151581  1
  H+  H356  1  0.07850864  0.65954840  0.76802288  1
  H+  H357  1  0.39503981  0.08835842  0.61710137  1
  H+  H358  1  0.15583079  0.82953911  0.94081491  1
  H+  H359  1  0.42344170  0.59346659  0.26938782  1
  H+  H360  1  0.11013466  0.13720119  0.00939232  1
  H+  H361  1  0.59791187  0.16764442  0.09424286  1
  H+  H362  1  0.60065048  0.87536682  0.66655914  1
  H+  H363  1  0.76767432  0.12938929  0.34330240  1
  H+  H364  1  0.07701559  0.92188780  0.43723653  1
  H+  H365  1  0.88139636  0.26312694  0.33656454  1
  H+  H366  1  0.32709685  0.65552383  0.43569549  1
  H+  H367  1  0.12946212  0.51637272  0.50683188  1
  H+  H368  1  0.91658062  0.07959850  0.27885027  1
  H+  H369  1  0.84743385  0.68572447  0.70236240  1
  H+  H370  1  0.42340573  0.69479640  0.98883329  1
  H+  H371  1  0.64837707  0.35243124  0.31812388  1
  H+  H372  1  0.16245294  0.32011498  0.27976431  1
  H+  H373  1  0.16499443  0.31374834  0.55807238  1
  H+  H374  1  0.67018124  0.08188679  0.26521457  1
  H+  H375  1  0.36380826  0.39881530  0.01186377  1
  H+  H376  1  0.34221779  0.41446612  0.43535700  1
  H+  H377  1  0.22486412  0.34752287  0.49947933  1
  H+  H378  1  0.39180863  0.31052955  0.90568418  1
  H+  H379  1  0.32448132  0.66223321  0.72880528  1
  H+  H380  1  0.93197696  0.29146980  0.24593958  1
  H+  H381  1  0.82713337  0.67108605  0.10405313  1
  H+  H382  1  0.09923387  0.68980914  0.10138301  1
  H+  H383  1  0.96840731  0.86428790  0.15863950  1
  O2-  O384  1  0.08320219  0.15767925  0.15017462  1
  O2-  O385  1  0.10202070  0.14171006  0.48060928  1
  O2-  O386  1  0.11446396  0.16895802  0.81914865  1
  O2-  O387  1  0.09377353  0.39375786  0.15786966  1
  O2-  O388  1  0.07947134  0.40644185  0.48455235  1
  O2-  O389  1  0.06214348  0.44726167  0.79879400  1
  O2-  O390  1  0.08837326  0.69674831  0.14532904  1
  O2-  O391  1  0.08314412  0.67192459  0.47692663  1
  O2-  O392  1  0.07498576  0.65906090  0.81378413  1
  O2-  O393  1  0.05762173  0.88248359  0.10539780  1
  O2-  O394  1  0.07950195  0.93456739  0.48272113  1
  O2-  O395  1  0.10373826  0.93156963  0.81397854  1
  O2-  O396  1  0.28262456  0.13393494  0.15507314  1
  O2-  O397  1  0.30465360  0.18211547  0.55126355  1
  O2-  O398  1  0.35255347  0.10978286  0.86828118  1
  O2-  O399  1  0.33690205  0.42802403  0.14651423  1
  O2-  O400  1  0.32595401  0.40906347  0.47834083  1
  O2-  O401  1  0.32063532  0.42703774  0.79392582  1
  O2-  O402  1  0.33033422  0.66253187  0.14092629  1
  O2-  O403  1  0.32459545  0.65152684  0.48132766  1
  O2-  O404  1  0.32102195  0.66148644  0.80627702  1
  O2-  O405  1  0.33669602  0.93159559  0.14913721  1
  O2-  O406  1  0.32028282  0.95571298  0.47593612  1
  O2-  O407  1  0.38373695  0.93906440  0.80039276  1
  O2-  O408  1  0.60608481  0.16986097  0.13898570  1
  O2-  O409  1  0.58945668  0.16680844  0.47223843  1
  O2-  O410  1  0.59091285  0.16389559  0.81115001  1
  O2-  O411  1  0.60160565  0.42468177  0.14423872  1
  O2-  O412  1  0.59900041  0.43464993  0.46615639  1
  O2-  O413  1  0.55860937  0.38073512  0.79846634  1
  O2-  O414  1  0.58956829  0.67603026  0.15554699  1
  O2-  O415  1  0.57726355  0.66463941  0.47904655  1
  O2-  O416  1  0.54786574  0.67840433  0.78671364  1
  O2-  O417  1  0.58186758  0.91532302  0.14030443  1
  O2-  O418  1  0.57855076  0.91266651  0.47320794  1
  O2-  O419  1  0.54762158  0.82369308  0.79704130  1
  O2-  O420  1  0.82157053  0.15802331  0.13446264  1
  O2-  O421  1  0.82144888  0.15940702  0.48689787  1
  O2-  O422  1  0.84860302  0.18001493  0.79856973  1
  O2-  O423  1  0.81574475  0.45364894  0.11559223  1
  O2-  O424  1  0.83246207  0.41345649  0.47351948  1
  O2-  O425  1  0.83126180  0.41888127  0.80806424  1
  O2-  O426  1  0.82819936  0.67283405  0.14919549  1
  O2-  O427  1  0.82913869  0.66380675  0.48015341  1
  O2-  O428  1  0.76569575  0.65956167  0.78393198  1
  O2-  O429  1  0.82841687  0.92652803  0.15339825  1
  O2-  O430  1  0.82699999  0.91133928  0.48249887  1
  O2-  O431  1  0.80807513  0.83683364  0.79470324  1
  O2-  O432  1  0.12709354  0.03938226  0.19016820  1
  O2-  O433  1  0.16603607  0.11386894  0.48100269  1
  O2-  O434  1  0.19553959  0.08925141  0.86793390  1
  O2-  O435  1  0.17889261  0.32042594  0.20358270  1
  O2-  O436  1  0.16334766  0.30952066  0.51297492  1
  O2-  O437  1  0.16907318  0.32692605  0.85835875  1
  O2-  O438  1  0.16628528  0.55825109  0.18765046  1
  O2-  O439  1  0.15782571  0.57788962  0.51969260  1
  O2-  O440  1  0.16667128  0.59250535  0.86262537  1
  O2-  O441  1  0.17744872  0.86328453  0.19273221  1
  O2-  O442  1  0.15952037  0.83709067  0.52630058  1
  O2-  O443  1  0.14390460  0.82004126  0.87218709  1
  O2-  O444  1  0.41246576  0.10863672  0.18842890  1
  O2-  O445  1  0.39236813  0.10431091  0.53729964  1
  O2-  O446  1  0.32288808  -0.04936704  0.83003772  1
  O2-  O447  1  0.45061932  0.28170593  0.18461041  1
  O2-  O448  1  0.36481276  0.26800293  0.52730751  1
  O2-  O449  1  0.37968742  0.30532144  0.86200965  1
  O2-  O450  1  0.42224762  0.59382900  0.19172270  1
  O2-  O451  1  0.41223938  0.57469929  0.52523408  1
  O2-  O452  1  0.39503871  0.57840938  0.85466372  1
  O2-  O453  1  0.41629050  0.83907723  0.17773006  1
  O2-  O454  1  0.41190635  0.81986982  0.52257380  1
  O2-  O455  1  0.41160422  0.81773817  0.85182459  1
  O2-  O456  1  0.67033964  0.08283378  0.18478351  1
  O2-  O457  1  0.65582824  0.07469461  0.51988686  1
  O2-  O458  1  0.71658696  0.14872837  0.85885519  1
  O2-  O459  1  0.68284086  0.33615611  0.18148344  1
  O2-  O460  1  0.66713793  0.33710705  0.51553731  1
  O2-  O461  1  0.65790538  0.33311077  0.85359206  1
  O2-  O462  1  0.66604011  0.58381048  0.19148909  1
  O2-  O463  1  0.66151785  0.58455685  0.51792329  1
  O2-  O464  1  0.63767053  0.55229786  0.86925768  1
  O2-  O465  1  0.66729482  0.83280450  0.19691254  1
  O2-  O466  1  0.65732372  0.82807965  0.51926182  1
  O2-  O467  1  0.69080215  0.86274731  0.85786130  1
  O2-  O468  1  0.93041572  0.10972293  0.20081760  1
  O2-  O469  1  0.90891012  0.07867316  0.52979531  1
  O2-  O470  1  0.96299754  0.16170500  0.86650862  1
  O2-  O471  1  0.94841562  0.27211652  0.20792997  1
  O2-  O472  1  0.91076164  0.32921169  0.52188543  1
  O2-  O473  1  0.90685155  0.33454813  0.83889151  1
  O2-  O474  1  0.91867654  0.59651876  0.18744911  1
  O2-  O475  1  0.91536629  0.58060270  0.51679596  1
  O2-  O476  1  0.93878877  0.54277061  0.86329244  1
  O2-  O477  1  0.91539830  0.84012382  0.18335647  1
  O2-  O478  1  0.91353726  0.83200486  0.52062745  1
  O2-  O479  1  0.94846851  0.89730496  0.87105002  1
  O2-  O480  1  0.15934694  0.07197276  0.31291321  1
  O2-  O481  1  0.13491150  0.11582888  0.66582082  1
  O2-  O482  1  0.16167599  0.08249039  0.98621398  1
  O2-  O483  1  0.14177970  0.31436038  0.32312457  1
  O2-  O484  1  0.16676986  0.32529345  0.64024787  1
  O2-  O485  1  0.16635643  0.33715158  0.98290528  1
  O2-  O486  1  0.16152384  0.58166381  0.31609406  1
  O2-  O487  1  0.16206780  0.57658363  0.64350021  1
  O2-  O488  1  0.20973372  0.61087857  0.98377208  1
  O2-  O489  1  0.19486442  0.83422470  0.30103114  1
  O2-  O490  1  0.16562819  0.81888625  0.64932073  1
  O2-  O491  1  0.16379095  0.83176677  0.98730034  1
  O2-  O492  1  0.44226606  0.06931298  0.30219782  1
  O2-  O493  1  0.39531544  0.08203563  0.66183840  1
  O2-  O494  1  0.41462003  0.09774579  0.98467098  1
  O2-  O495  1  0.45442537  0.34961221  0.30684460  1
  O2-  O496  1  0.40496332  0.33802421  0.64369807  1
  O2-  O497  1  0.41026125  0.33967238  0.99389858  1
  O2-  O498  1  0.42692545  0.59365065  0.31493521  1
  O2-  O499  1  0.40887358  0.57330805  0.64764133  1
  O2-  O500  1  0.41237370  0.59398328  0.97922957  1
  O2-  O501  1  0.44750421  0.80013978  0.28649149  1
  O2-  O502  1  0.41163519  0.82754117  0.64202264  1
  O2-  O503  1  0.42819604  0.75008218  1.00396266  1
  O2-  O504  1  0.66724095  0.08027851  0.31059330  1
  O2-  O505  1  0.65598575  0.07557733  0.64470105  1
  O2-  O506  1  0.66226622  0.07797584  0.97470336  1
  O2-  O507  1  0.67778635  0.32274535  0.30349506  1
  O2-  O508  1  0.65979778  0.33182355  0.63979282  1
  O2-  O509  1  0.65964237  0.33201927  0.97482927  1
  O2-  O510  1  0.65681107  0.56389614  0.31806721  1
  O2-  O511  1  0.66914586  0.58888463  0.63517904  1
  O2-  O512  1  0.66368763  0.56407628  0.98917352  1
  O2-  O513  1  0.66270510  0.83046791  0.30764573  1
  O2-  O514  1  0.66083223  0.82732674  0.63764603  1
  O2-  O515  1  0.67627112  0.82929313  0.98620128  1
  O2-  O516  1  0.90913874  0.07185646  0.32368456  1
  O2-  O517  1  0.93662486  0.09159278  0.64515274  1
  O2-  O518  1  0.91499934  0.08162366  0.98167395  1
  O2-  O519  1  0.91508145  0.32084628  0.31659331  1
  O2-  O520  1  0.91111093  0.33246623  0.64699606  1
  O2-  O521  1  0.90512748  0.31521216  0.96242489  1
  O2-  O522  1  0.91904746  0.58476110  0.31220561  1
  O2-  O523  1  0.91626615  0.58120436  0.63904970  1
  O2-  O524  1  0.89792105  0.57458088  0.97458224  1
  O2-  O525  1  0.90965040  0.81862433  0.31256252  1
  O2-  O526  1  0.94473597  0.85712451  0.64127247  1
  O2-  O527  1  0.91249851  0.83344662  0.99083828  1
  O2-  O528  1  0.08055800  0.16737116  0.02639342  1
  O2-  O529  1  0.07159851  0.14527863  0.36180242  1
  O2-  O530  1  0.09374697  0.16364348  0.68974973  1
  O2-  O531  1  0.11899180  0.43979057  0.03552381  1
  O2-  O532  1  0.07411623  0.41722899  0.36000451  1
  O2-  O533  1  0.08273585  0.40670055  0.67890242  1
  O2-  O534  1  0.12073591  0.68400434  0.02706165  1
  O2-  O535  1  0.08810215  0.68009724  0.34898152  1
  O2-  O536  1  0.07765369  0.65498921  0.69051961  1
  O2-  O537  1  0.07296666  0.90896518  0.04082370  1
  O2-  O538  1  0.07529173  0.90563147  0.36575912  1
  O2-  O539  1  0.09729514  0.91843155  0.68694841  1
  O2-  O540  1  0.32461659  0.17468796  0.03506090  1
  O2-  O541  1  0.33346531  0.20455026  0.37016927  1
  O2-  O542  1  0.31849139  0.18650238  0.69410820  1
  O2-  O543  1  0.33068829  0.42726902  0.02590065  1
  O2-  O544  1  0.37164195  0.42885435  0.34928071  1
  O2-  O545  1  0.33604689  0.42212206  0.68300872  1
  O2-  O546  1  0.36551318  0.75945794  -0.03321125  1
  O2-  O547  1  0.33014979  0.66163635  0.35812698  1
  O2-  O548  1  0.32887808  0.66335524  0.68331220  1
  O2-  O549  1  0.33947934  0.93563573  0.02014350  1
  O2-  O550  1  0.28299890  0.97879883  0.35465545  1
  O2-  O551  1  0.33534707  0.91390986  0.68311618  1
  O2-  O552  1  0.58092804  0.16033063  0.01409380  1
  O2-  O553  1  0.59278648  0.16889388  0.33687701  1
  O2-  O554  1  0.56907130  0.16187460  0.68373539  1
  O2-  O555  1  0.59150653  0.41600208  0.02389986  1
  O2-  O556  1  0.62700564  0.47482830  0.33898185  1
  O2-  O557  1  0.57511143  0.41412588  0.67610122  1
  O2-  O558  1  0.56889156  0.65938217  0.02463296  1
  O2-  O559  1  0.58885456  0.67346304  0.35121086  1
  O2-  O560  1  0.63564703  0.69195862  0.68665138  1
  O2-  O561  1  0.58794612  0.90635514  0.01744954  1
  O2-  O562  1  0.59788197  0.91792807  0.34867470  1
  O2-  O563  1  0.57214760  0.90273950  0.68829110  1
  O2-  O564  1  0.82417137  0.16146476  0.01151306  1
  O2-  O565  1  0.82642759  0.15900159  0.36229030  1
  O2-  O566  1  0.83024995  0.16224765  0.67812560  1
  O2-  O567  1  0.82966632  0.41556918  0.00706095  1
  O2-  O568  1  0.83987689  0.41405817  0.34747819  1
  O2-  O569  1  0.83004557  0.41760056  0.68762630  1
  O2-  O570  1  0.82220508  0.66476077  0.02161692  1
  O2-  O571  1  0.82128089  0.65258008  0.35332800  1
  O2-  O572  1  0.84049882  0.67316808  0.65891235  1
  O2-  O573  1  0.83674436  0.92147446  0.03125779  1
  O2-  O574  1  0.83411233  0.90770721  0.35733952  1
  O2-  O575  1  0.80674643  0.93424742  0.69747809  1
