# generated using pymatgen
data_H2O
_symmetry_space_group_name_H-M   'P 1'
_cell_length_a   17.98726243
_cell_length_b   17.98830089
_cell_length_c   21.99915263
_cell_angle_alpha   89.98686949
_cell_angle_beta   90.01637880
_cell_angle_gamma   119.99369525
_symmetry_Int_Tables_number   1
_chemical_formula_structural   H2O
_chemical_formula_sum   'H384 O192'
_cell_volume   6164.80532180
_cell_formula_units_Z   192
loop_
 _symmetry_equiv_pos_site_id
 _symmetry_equiv_pos_as_xyz
  1  'x, y, z'
loop_
 _atom_type_symbol
 _atom_type_oxidation_number
  H+  1.0
  O2-  -2.0
loop_
 _atom_site_type_symbol
 _atom_site_label
 _atom_site_symmetry_multiplicity
 _atom_site_fract_x
 _atom_site_fract_y
 _atom_site_fract_z
 _atom_site_occupancy
  H+  H0  1  0.63302431  0.77458188  0.84162158  1
  H+  H1  1  0.89134516  0.86106515  0.16246433  1
  H+  H2  1  0.69192311  0.13231778  0.21440858  1
  H+  H3  1  0.65718429  0.28217090  0.97574068  1
  H+  H4  1  0.38878431  0.61624150  0.50848551  1
  H+  H5  1  0.28797444  0.42511259  0.35113740  1
  H+  H6  1  0.61307739  0.72691502  0.49114711  1
  H+  H7  1  0.02108076  0.64060301  0.67852257  1
  H+  H8  1  0.16223450  0.82784379  0.93090649  1
  H+  H9  1  0.11522864  0.38025660  0.48633861  1
  H+  H10  1  0.32833401  0.21907453  0.99975838  1
  H+  H11  1  0.66627981  0.58196108  0.26760254  1
  H+  H12  1  0.44687960  0.10245339  0.14821000  1
  H+  H13  1  0.36930381  0.22520046  0.82205329  1
  H+  H14  1  0.36990571  -0.01302714  0.83212595  1
  H+  H15  1  0.13579333  0.85493155  0.16895608  1
  H+  H16  1  0.50499486  0.64308772  0.99893538  1
  H+  H17  1  0.01598073  0.64257129  0.00505449  1
  H+  H18  1  0.81122659  0.15461929  0.16223249  1
  H+  H19  1  0.60295132  0.30743534  0.67109609  1
  H+  H20  1  0.84129880  0.59824060  0.35208355  1
  H+  H21  1  0.61722451  -0.02324457  0.49340771  1
  H+  H22  1  0.77904214  0.14866793  0.34460695  1
  H+  H23  1  0.13716635  0.87631433  0.84322759  1
  H+  H24  1  0.42233364  0.57108683  0.22682691  1
  H+  H25  1  0.35014211  0.46879734  0.15752703  1
  H+  H26  1  0.90374104  0.36966794  0.16164792  1
  H+  H27  1  0.12025090  0.72527648  0.15598278  1
  H+  H28  1  0.94762369  0.89441706  0.24807263  1
  H+  H29  1  0.77377830  0.63365463  -0.00000344  1
  H+  H30  1  0.41035384  0.63185801  1.00444659  1
  H+  H31  1  0.88187625  0.92133903  0.32191144  1
  H+  H32  1  0.89630229  0.37104702  0.85857599  1
  H+  H33  1  0.87308937  0.73861088  0.82471603  1
  H+  H34  1  0.89553024  0.73950493  0.30068293  1
  H+  H35  1  0.88797312  0.77557192  0.65816930  1
  H+  H36  1  0.65590241  0.27467647  0.17382101  1
  H+  H37  1  0.11463651  0.38033266  0.68875433  1
  H+  H38  1  0.64775513  0.35813982  0.16817770  1
  H+  H39  1  0.46827727  0.83600303  0.16436570  1
  H+  H40  1  0.12806727  0.52009985  0.82350691  1
  H+  H41  1  0.10847053  0.97273625  0.49578045  1
  H+  H42  1  0.36041600  0.73687266  0.81925529  1
  H+  H43  1  0.45138033  0.35991861  0.31859183  1
  H+  H44  1  0.11537497  0.08304398  0.18501808  1
  H+  H45  1  0.72724230  0.86382489  0.49934165  1
  H+  H46  1  0.11075392  0.88778912  0.67870872  1
  H+  H47  1  0.89606628  0.75742662  0.33164173  1
  H+  H48  1  0.02348092  0.88836864  0.67615824  1
  H+  H49  1  0.36277040  0.47998291  0.67778889  1
  H+  H50  1  0.63497964  0.86286893  0.83107165  1
  H+  H51  1  0.88375789  0.77137122  0.50392082  1
  H+  H52  1  0.60913893  0.97179263  0.81644929  1
  H+  H53  1  0.99368899  0.11186534  0.33490689  1
  H+  H54  1  0.58945723  0.14161449  0.19877025  1
  H+  H55  1  0.98444440  0.12876129  0.81543162  1
  H+  H56  1  0.86687353  0.46666856  0.48794929  1
  H+  H57  1  0.06443150  0.22385482  0.81996094  1
  H+  H58  1  0.79117460  0.39224901  0.16025601  1
  H+  H59  1  0.28149024  0.92960887  0.49137335  1
  H+  H60  1  0.13842388  0.51842908  0.14757490  1
  H+  H61  1  -0.02140849  0.85822183  0.16507221  1
  H+  H62  1  0.14956535  0.52601876  0.31658532  1
  H+  H63  1  0.36217773  0.88874479  -0.00362250  1
  H+  H64  1  0.39005096  0.77233833  0.65902755  1
  H+  H65  1  0.88757973  0.12158270  0.32533996  1
  H+  H66  1  0.15936020  0.57925859  0.76586165  1
  H+  H67  1  0.11928156  0.63475233  0.14859285  1
  H+  H68  1  0.45396905  0.08116554  0.57767818  1
  H+  H69  1  0.02052889  0.64662080  0.82993686  1
  H+  H70  1  0.38836803  0.52110579  0.85260663  1
  H+  H71  1  0.41686851  0.83207719  0.56771380  1
  H+  H72  1  0.04087024  0.48996206  0.37482781  1
  H+  H73  1  0.88114891  0.76764237  -0.00894357  1
  H+  H74  1  0.09451282  0.23286310  0.66975489  1
  H+  H75  1  0.63553376  0.61177075  0.32699353  1
  H+  H76  1  0.51590625  0.22473432  0.07534469  1
  H+  H77  1  0.63719340  0.65943339  0.00529298  1
  H+  H78  1  0.38776442  0.87228279  0.83946163  1
  H+  H79  1  0.63855850  0.86374807  0.32519510  1
  H+  H80  1  0.63316003  0.19039179  0.87286673  1
  H+  H81  1  0.11062114  0.71761926  0.48081252  1
  H+  H82  1  0.72590046  0.85546158  0.17042645  1
  H+  H83  1  0.79100572  0.39799429  1.00498838  1
  H+  H84  1  0.39339644  0.60417387  0.31327947  1
  H+  H85  1  0.92679500  0.58281003  0.26756544  1
  H+  H86  1  0.15129129  0.52497574  1.01905324  1
  H+  H87  1  0.86199288  0.21958110  0.69877423  1
  H+  H88  1  0.27172599  0.62152502  0.15430416  1
  H+  H89  1  0.35285617  0.22303536  0.15430374  1
  H+  H90  1  1.02030374  0.38096017  0.84535782  1
  H+  H91  1  0.20771072  0.34207743  0.16241884  1
  H+  H92  1  1.00429802  0.92584862  0.31045874  1
  H+  H93  1  0.52504878  0.78359769  0.09866624  1
  H+  H94  1  0.16669698  0.09502591  0.55969999  1
  H+  H95  1  1.03172838  0.38848187  0.12896849  1
  H+  H96  1  0.58692156  0.37730588  0.31369736  1
  H+  H97  1  0.34025099  0.91416297  0.22679326  1
  H+  H98  1  0.33856187  0.10182874  0.99294935  1
  H+  H99  1  0.96706285  0.10340428  0.65267675  1
  H+  H100  1  0.77924098  0.64245269  0.67804734  1
  H+  H101  1  0.37927653  0.35903899  0.83958945  1
  H+  H102  1  0.65004496  0.36502203  -0.00973834  1
  H+  H103  1  0.77435542  0.38933989  0.83130434  1
  H+  H104  1  0.11571496  0.73859566  0.00012570  1
  H+  H105  1  0.60615740  0.39011505  0.82284399  1
  H+  H106  1  0.83948524  0.96296903  -0.00569267  1
  H+  H107  1  0.52545546  0.35534460  0.16443643  1
  H+  H108  1  0.59335889  0.96761089  0.20060805  1
  H+  H109  1  0.98805981  0.61620642  0.17360212  1
  H+  H110  1  0.63846083  0.77450711  0.32680157  1
  H+  H111  1  0.35887821  0.88543163  0.33742148  1
  H+  H112  1  1.02349786  0.11825498  0.14789482  1
  H+  H113  1  0.12157822  0.85655761  0.49179465  1
  H+  H114  1  0.88807401  0.61833697  0.99414010  1
  H+  H115  1  0.47651799  0.61359337  0.50616462  1
  H+  H116  1  0.86545442  0.63539476  0.50219716  1
  H+  H117  1  0.61086368  0.14994672  0.16786243  1
  H+  H118  1  0.84973734  0.13013708  0.79357148  1
  H+  H119  1  0.35824477  0.71167593  0.16597648  1
  H+  H120  1  0.12657694  0.51339572  0.68466363  1
  H+  H121  1  0.58922593  0.46654805  0.31208426  1
  H+  H122  1  0.13670842  0.77157193  0.66036295  1
  H+  H123  1  0.37922655  0.14208248  0.82262570  1
  H+  H124  1  0.02254854  0.88300036  0.00691341  1
  H+  H125  1  0.63072482  0.53351029  -0.00110156  1
  H+  H126  1  0.36526238  0.73216578  0.49919057  1
  H+  H127  1  0.20210291  0.30323953  0.32631123  1
  H+  H128  1  0.83906356  0.40954644  0.39544751  1
  H+  H129  1  0.50906283  0.40227409  0.67571181  1
  H+  H130  1  0.87275548  0.64879687  0.82541924  1
  H+  H131  1  0.63167868  0.27701922  0.83426056  1
  H+  H132  1  0.10284766  0.98459329  0.83248683  1
  H+  H133  1  0.11319071  0.20523777  0.14844179  1
  H+  H134  1  0.84792539  0.42653780  0.09972346  1
  H+  H135  1  0.61366598  0.63830051  0.49410309  1
  H+  H136  1  0.51794821  0.88487298  0.81960313  1
  H+  H137  1  0.27389818  0.14562024  0.49978833  1
  H+  H138  1  0.19854959  0.54262299  0.95765323  1
  H+  H139  1  0.62055613  0.52264409  0.84867905  1
  H+  H140  1  0.12946780  0.36554544  1.01720224  1
  H+  H141  1  0.65651638  0.63704810  0.66680958  1
  H+  H142  1  0.92322914  0.33104567  0.57616254  1
  H+  H143  1  0.23234216  0.36115036  0.49400698  1
  H+  H144  1  0.52758017  0.63615807  0.33662599  1
  H+  H145  1  0.38997804  0.85538212  0.17493502  1
  H+  H146  1  0.58052269  0.91121119  0.40025834  1
  H+  H147  1  0.38872954  0.60296163  0.17032365  1
  H+  H148  1  0.38416863  0.37141798  0.51201308  1
  H+  H149  1  1.01756927  0.13189709  0.48623211  1
  H+  H150  1  0.42673654  0.69742772  0.37041377  1
  H+  H151  1  0.09953525  0.11130684  0.84022732  1
  H+  H152  1  0.87699253  0.02559446  0.32370524  1
  H+  H153  1  0.72147458  0.36173095  0.33013363  1
  H+  H154  1  0.32926042  0.93263264  0.38658448  1
  H+  H155  1  0.90148672  0.28275713  0.00476169  1
  H+  H156  1  0.86280022  0.62145825  0.15495924  1
  H+  H157  1  0.64819766  0.90334545  -0.00375027  1
  H+  H158  1  0.27200497  0.64821194  0.81268368  1
  H+  H159  1  0.46586960  0.00406081  0.55197738  1
  H+  H160  1  0.13645194  0.78674955  0.83860375  1
  H+  H161  1  0.22135917  0.85793029  0.32218326  1
  H+  H162  1  0.10847355  0.87910727  1.00453909  1
  H+  H163  1  0.27780609  0.90065504  0.83138525  1
  H+  H164  1  0.06646687  0.17232446  0.72794145  1
  H+  H165  1  0.36100547  0.23857221  0.51037289  1
  H+  H166  1  0.88157066  0.62017840  0.67905928  1
  H+  H167  1  0.22636117  0.85691313  0.17891737  1
  H+  H168  1  0.61062754  0.97761270  0.34710342  1
  H+  H169  1  0.87743315  0.48235991  0.69029404  1
  H+  H170  1  0.06847590  0.01494496  0.23706265  1
  H+  H171  1  0.89395917  0.27786063  0.31737198  1
  H+  H172  1  0.36120150  0.47926476  0.49498359  1
  H+  H173  1  -0.02076870  0.34711981  0.67348089  1
  H+  H174  1  0.18878195  0.84170748  0.45673820  1
  H+  H175  1  0.47525836  0.86047580  0.50816508  1
  H+  H176  1  0.39058088  0.27897249  0.66615298  1
  H+  H177  1  0.89834587  0.52058878  0.32665375  1
  H+  H178  1  0.59642999  0.22315607  0.33346320  1
  H+  H179  1  0.85840018  0.97192440  0.15274594  1
  H+  H180  1  0.77519473  0.38004092  0.48575579  1
  H+  H181  1  0.14001421  0.52468974  0.49644594  1
  H+  H182  1  0.86311748  0.38238027  0.33185222  1
  H+  H183  1  0.27865088  0.88376474  0.67603876  1
  H+  H184  1  0.32413183  0.14712830  0.35593985  1
  H+  H185  1  0.63521358  0.27285920  0.49195239  1
  H+  H186  1  0.63570471  0.60041016  0.17003318  1
  H+  H187  1  0.07783352  0.91808889  0.39757568  1
  H+  H188  1  0.48982925  0.86886717  0.98466546  1
  H+  H189  1  0.86395282  1.00933350  0.82524516  1
  H+  H190  1  0.72241982  0.10815617  0.81456099  1
  H+  H191  1  0.76247318  0.88023276  0.82124857  1
  H+  H192  1  0.66137174  0.09410943  0.40192009  1
  H+  H193  1  0.96682756  0.09254196  0.98030598  1
  H+  H194  1  0.41699766  0.50622238  1.01916167  1
  H+  H195  1  0.89543978  0.23989989  0.14677356  1
  H+  H196  1  0.85604299  0.88552147  0.82301214  1
  H+  H197  1  0.27149141  0.38861905  0.83745804  1
  H+  H198  1  0.10722272  0.64336504  0.82000658  1
  H+  H199  1  0.72720696  0.87296046  0.65271165  1
  H+  H200  1  0.45551413  0.39677962  0.20246235  1
  H+  H201  1  0.34076314  0.37684791  0.16015411  1
  H+  H202  1  0.61647525  0.88739947  0.49176821  1
  H+  H203  1  0.50633251  0.13373356  0.32242397  1
  H+  H204  1  0.63356397  0.51068940  0.17661136  1
  H+  H205  1  0.88728019  0.52679683  0.84423243  1
  H+  H206  1  0.01896890  0.63726846  0.33368576  1
  H+  H207  1  0.66768134  0.34664836  0.88744387  1
  H+  H208  1  0.39569153  0.51728837  0.32775825  1
  H+  H209  1  0.67508640  0.08830537  0.56591059  1
  H+  H210  1  0.62010942  0.61161926  0.85036583  1
  H+  H211  1  0.37545372  0.25364836  0.36420887  1
  H+  H212  1  0.60315296  0.38948496  0.49584190  1
  H+  H213  1  0.59333479  -0.01174274  0.17081794  1
  H+  H214  1  0.24984046  0.25918223  0.30131480  1
  H+  H215  1  0.78276838  0.14249807  0.49407069  1
  H+  H216  1  0.77899793  0.89086450  0.32993680  1
  H+  H217  1  0.10889984  0.89267089  0.33771739  1
  H+  H218  1  0.89980580  0.36069139  0.67454921  1
  H+  H219  1  0.76802496  0.29335416  0.60084678  1
  H+  H220  1  0.10604928  0.16899237  0.33050357  1
  H+  H221  1  0.16523515  0.27359802  0.87649985  1
  H+  H222  1  0.47367906  0.37066466  0.51582662  1
  H+  H223  1  0.51156814  0.63410927  0.83767840  1
  H+  H224  1  0.47051222  0.36303709  0.83953927  1
  H+  H225  1  0.38259882  0.74157133  0.33729233  1
  H+  H226  1  0.38816166  0.60837066  0.66280144  1
  H+  H227  1  0.36116597  -0.02194620  0.17240591  1
  H+  H228  1  0.42299596  0.10913829  1.01851203  1
  H+  H229  1  0.63679401  0.13820793  0.97422385  1
  H+  H230  1  0.64049853  0.75373216  0.67835088  1
  H+  H231  1  0.24217457  0.38379754  0.65809840  1
  H+  H232  1  0.64700497  0.11957797  0.50559627  1
  H+  H233  1  0.63712665  0.01855594  0.65829151  1
  H+  H234  1  0.90197149  0.11672442  0.16306673  1
  H+  H235  1  0.89681339  0.53242992  0.99709934  1
  H+  H236  1  0.78941834  0.14278701  -0.00333065  1
  H+  H237  1  0.90209679  0.52550282  0.17552071  1
  H+  H238  1  0.29136762  0.14930732  0.67274750  1
  H+  H239  1  0.07298510  0.43217922  0.40460743  1
  H+  H240  1  0.66859143  0.83708603  0.55986101  1
  H+  H241  1  0.66666966  0.82737537  0.23117999  1
  H+  H242  1  0.60511701  0.47843463  0.50261184  1
  H+  H243  1  0.63521825  0.53942134  0.66473977  1
  H+  H244  1  0.65619026  0.02842140  0.98024078  1
  H+  H245  1  0.10759667  0.95944119  0.16284077  1
  H+  H246  1  0.50841779  0.38115099  0.00865247  1
  H+  H247  1  0.41785815  0.14350974  0.65345437  1
  H+  H248  1  0.34450872  -0.03243299  1.00031351  1
  H+  H249  1  0.56098697  0.14762115  -0.05541130  1
  H+  H250  1  0.11005776  0.22131887  0.48001373  1
  H+  H251  1  0.49320641  0.12252951  0.85442054  1
  H+  H252  1  0.63560817  0.10818195  0.83220393  1
  H+  H253  1  0.88674278  1.01991536  0.49508494  1
  H+  H254  1  0.88869840  0.11088983  0.49893103  1
  H+  H255  1  0.59471445  0.31555752  0.63879109  1
  H+  H256  1  0.37001624  0.43390828  1.07133326  1
  H+  H257  1  0.69172544  0.80304413  0.00333741  1
  H+  H258  1  0.85954561  0.97106786  0.66605049  1
  H+  H259  1  0.72727355  0.10449386  0.66722256  1
  H+  H260  1  0.91130913  0.83230056  0.56266887  1
  H+  H261  1  0.14805477  0.14837608  0.65359603  1
  H+  H262  1  0.52679078  0.62708626  0.15568527  1
  H+  H263  1  0.12979071  0.60542921  0.68037178  1
  H+  H264  1  0.34700753  0.13202083  0.14981104  1
  H+  H265  1  0.77053891  0.61440464  0.15400588  1
  H+  H266  1  0.47964232  0.87026945  0.32540148  1
  H+  H267  1  0.62475334  0.13209698  0.68789850  1
  H+  H268  1  0.88776022  0.10793064  -0.01452228  1
  H+  H269  1  0.11482906  0.73883234  0.33187629  1
  H+  H270  1  0.37573431  1.00198925  0.48565649  1
  H+  H271  1  0.18458963  0.13580538  0.00273132  1
  H+  H272  1  0.98859204  0.37343721  1.01893297  1
  H+  H273  1  0.74870308  0.59023504  0.35317319  1
  H+  H274  1  0.24466075  0.60084374  0.30639002  1
  H+  H275  1  0.61722882  0.71489517  0.16325488  1
  H+  H276  1  0.52042551  0.88661824  0.66639874  1
  H+  H277  1  0.22779932  0.61584565  0.49877033  1
  H+  H278  1  0.13240808  0.10859919  0.49683109  1
  H+  H279  1  0.39474369  0.02365788  0.29857889  1
  H+  H280  1  0.97622640  0.87311694  0.83966236  1
  H+  H281  1  0.36958785  0.37360763  0.33796950  1
  H+  H282  1  0.72611208  0.61448495  0.51174605  1
  H+  H283  1  0.22558574  0.85339739  0.98983258  1
  H+  H284  1  0.11060336  0.38050303  0.84603930  1
  H+  H285  1  0.12004741  0.63028147  0.47961448  1
  H+  H286  1  0.01624031  0.88491731  0.49498635  1
  H+  H287  1  0.40115933  0.78185293  -0.00570400  1
  H+  H288  1  0.97605151  0.37203566  0.32055887  1
  H+  H289  1  0.16775700  0.56770246  0.21271140  1
  H+  H290  1  0.41932541  0.83766288  0.89544369  1
  H+  H291  1  0.93184938  0.34927035  0.91853935  1
  H+  H292  1  0.82095137  0.64108162  0.44200912  1
  H+  H293  1  0.82674662  0.91229064  0.72690602  1
  H+  H294  1  0.34848666  0.67432690  0.07146778  1
  H+  H295  1  0.95268533  0.57129901  0.55175715  1
  H+  H296  1  0.63560588  0.87040426  0.65278641  1
  H+  H297  1  0.84641283  0.16684481  0.05826199  1
  H+  H298  1  0.66745646  0.59258868  0.57056487  1
  H+  H299  1  0.08656578  0.66965122  0.39481644  1
  H+  H300  1  0.16767001  0.33861917  0.92556498  1
  H+  H301  1  0.42436001  0.58270237  0.91101922  1
  H+  H302  1  0.08831712  0.91039638  0.09671999  1
  H+  H303  1  0.88317705  0.86188743  0.65606353  1
  H+  H304  1  0.58396241  0.66707343  0.39842510  1
  H+  H305  1  0.41177792  0.34049439  0.60655261  1
  H+  H306  1  0.34308093  0.67459717  0.72991118  1
  H+  H307  1  0.38825226  0.32614651  0.24397038  1
  H+  H308  1  0.93788340  0.34049687  0.21803050  1
  H+  H309  1  0.62215734  0.11722056  0.34718661  1
  H+  H310  1  0.57195720  0.16099309  0.42682935  1
  H+  H311  1  0.57966977  0.91445410  0.72621377  1
  H+  H312  1  0.69416344  0.74101585  0.72868877  1
  H+  H313  1  0.57235639  0.42719112  0.76984475  1
  H+  H314  1  0.55316318  0.17083863  0.04426507  1
  H+  H315  1  0.19635376  0.42120053  0.61702245  1
  H+  H316  1  0.89144473  0.07246348  0.88293478  1
  H+  H317  1  0.67212248  0.33379026  0.26795275  1
  H+  H318  1  0.50829395  0.14668277  0.66282146  1
  H+  H319  1  0.42114092  0.83378310  0.26505858  1
  H+  H320  1  0.12008889  0.08938520  0.90515599  1
  H+  H321  1  0.50488457  0.45074263  0.04425703  1
  H+  H322  1  0.59626756  0.90848192  0.05151056  1
  H+  H323  1  0.08424131  0.67353850  0.06575691  1
  H+  H324  1  0.32449565  0.41696799  0.77425625  1
  H+  H325  1  0.16837115  0.28921322  0.22215699  1
  H+  H326  1  0.84472340  0.17860127  0.39898444  1
  H+  H327  1  0.86172821  0.88455098  0.48604490  1
  H+  H328  1  0.41604509  0.09097465  0.90554070  1
  H+  H329  1  0.33822971  0.91625484  0.73440625  1
  H+  H330  1  0.88982441  0.57304019  0.62199676  1
  H+  H331  1  0.35735001  0.38734309  0.68044553  1
  H+  H332  1  0.83110008  0.65512299  0.06016120  1
  H+  H333  1  0.56847819  0.40419165  0.10280393  1
  H+  H334  1  0.87936729  0.39661024  0.01275523  1
  H+  H335  1  -0.01345538  0.60593593  0.48787237  1
  H+  H336  1  0.08323269  0.14533886  0.06004347  1
  H+  H337  1  0.87307697  0.22956189  0.49787974  1
  H+  H338  1  0.69054672  0.26023057  0.64701017  1
  H+  H339  1  0.29155251  0.64304135  0.01211623  1
  H+  H340  1  0.87382255  0.85223094  0.99106649  1
  H+  H341  1  0.40739809  0.32318909  0.92805715  1
  H+  H342  1  0.35034804  0.17271514  0.73333949  1
  H+  H343  1  0.13090227  0.27700986  1.00826134  1
  H+  H344  1  0.84139446  0.67803247  0.73887258  1
  H+  H345  1  0.39388634  0.36298721  0.99003559  1
  H+  H346  1  0.92113561  0.08076047  0.22397163  1
  H+  H347  1  0.08175475  0.67718518  0.73622947  1
  H+  H348  1  0.41400764  0.57408696  0.60466474  1
  H+  H349  1  0.89233975  0.36003183  0.51524174  1
  H+  H350  1  0.35307919  0.19071748  0.43157698  1
  H+  H351  1  0.33906948  0.67496634  0.43876055  1
  H+  H352  1  0.57611692  0.66935761  0.77895756  1
  H+  H353  1  0.23189039  0.20644991  0.61772413  1
  H+  H354  1  0.91236337  0.07001290  0.59241862  1
  H+  H355  1  0.15822354  0.82499533  0.26344670  1
  H+  H356  1  0.53566915  0.12567951  0.49416830  1
  H+  H357  1  0.41132433  0.08088397  0.22572061  1
  H+  H358  1  0.23567893  0.07700959  0.28393041  1
  H+  H359  1  0.91907800  0.58962413  0.90159683  1
  H+  H360  1  0.65900417  0.58494182  0.93458365  1
  H+  H361  1  0.06350041  0.14148729  0.40026824  1
  H+  H362  1  0.28087822  0.63650197  0.67429973  1
  H+  H363  1  0.91325548  0.83756316  0.89722187  1
  H+  H364  1  0.17150150  0.32649191  0.55189093  1
  H+  H365  1  0.71783024  0.06620972  0.23493780  1
  H+  H366  1  0.81874008  0.91128276  0.09430248  1
  H+  H367  1  0.60921267  0.68562836  0.06642190  1
  H+  H368  1  0.59769942  0.40490122  0.67616279  1
  H+  H369  1  0.68550717  0.08144367  0.91720612  1
  H+  H370  1  0.07704513  0.39762323  0.75095538  1
  H+  H371  1  0.67655956  0.32871942  0.55039972  1
  H+  H372  1  0.32570765  0.07711337  0.29538964  1
  H+  H373  1  0.02741313  0.38143859  0.49832599  1
  H+  H374  1  0.38733183  0.86098091  0.66301076  1
  H+  H375  1  0.80261353  0.38692666  0.67685544  1
  H+  H376  1  0.60690104  0.17525931  0.74582721  1
  H+  H377  1  0.08256517  0.92489966  0.77256908  1
  H+  H378  1  0.16900780  0.83091410  0.60176390  1
  H+  H379  1  0.34097688  0.42654828  0.43186010  1
  H+  H380  1  0.59717567  0.83708724  0.14627275  1
  H+  H381  1  0.29863967  0.16438922  0.06112036  1
  H+  H382  1  0.84453396  0.41700283  0.77996506  1
  H+  H383  1  0.83512835  0.91644494  0.42534575  1
  O2-  O384  1  0.08354808  0.14386569  0.13260776  1
  O2-  O385  1  0.07699911  0.15968041  0.46687278  1
  O2-  O386  1  0.04715568  0.16757717  0.80259232  1
  O2-  O387  1  0.09217494  0.42168801  0.11397449  1
  O2-  O388  1  0.08382857  0.41156915  0.47680575  1
  O2-  O389  1  0.07990898  0.40589232  0.82534986  1
  O2-  O390  1  0.08864117  0.66648033  0.13689506  1
  O2-  O391  1  0.08529366  0.65853972  0.46301418  1
  O2-  O392  1  0.08041440  0.67989796  0.81311653  1
  O2-  O393  1  0.08732983  0.90290767  0.14249079  1
  O2-  O394  1  0.07718177  0.91261947  0.48010921  1
  O2-  O395  1  0.08119310  0.92423758  0.81829641  1
  O2-  O396  1  0.32268686  0.16761434  0.13382706  1
  O2-  O397  1  0.33680232  0.17972829  0.49181757  1
  O2-  O398  1  0.34843404  0.16837724  0.80257553  1
  O2-  O399  1  0.31672617  0.40946606  0.13997448  1
  O2-  O400  1  0.33284051  0.41929318  0.47834722  1
  O2-  O401  1  0.32967825  0.41502790  0.81935456  1
  O2-  O402  1  0.33582427  0.65378104  0.14734817  1
  O2-  O403  1  0.33504297  0.67038216  0.48347860  1
  O2-  O404  1  0.33276327  0.67918440  0.80011940  1
  O2-  O405  1  0.33668412  0.91266429  0.18247609  1
  O2-  O406  1  0.32358413  0.96553762  0.46083318  1
  O2-  O407  1  0.33798988  0.92674791  0.81645836  1
  O2-  O408  1  0.51232490  0.16893841  0.07568773  1
  O2-  O409  1  0.58890843  0.16533722  0.47059916  1
  O2-  O410  1  0.59395994  0.17286075  0.83840773  1
  O2-  O411  1  0.58116470  0.39482459  0.14620701  1
  O2-  O412  1  0.56887399  0.41776633  0.48940687  1
  O2-  O413  1  0.57212558  0.41930809  0.81463528  1
  O2-  O414  1  0.58859961  0.65713428  0.14327252  1
  O2-  O415  1  0.58179263  0.66602449  0.47676660  1
  O2-  O416  1  0.57433554  0.66777370  0.82363814  1
  O2-  O417  1  0.55211738  0.83883329  0.11955192  1
  O2-  O418  1  0.58550095  0.91755900  0.47682020  1
  O2-  O419  1  0.57724434  0.91120206  0.80181997  1
  O2-  O420  1  0.86244180  0.17729689  0.13534787  1
  O2-  O421  1  0.84258970  0.17217442  0.47748410  1
  O2-  O422  1  0.82333020  0.16421730  0.77830457  1
  O2-  O423  1  0.85128170  0.42370366  0.14529495  1
  O2-  O424  1  0.83774358  0.40520838  0.47566551  1
  O2-  O425  1  0.83776317  0.41942628  0.82474485  1
  O2-  O426  1  0.82411188  0.63400238  0.13071608  1
  O2-  O427  1  0.83362514  0.66233488  0.48596112  1
  O2-  O428  1  0.84647769  0.68010630  0.80632407  1
  O2-  O429  1  0.82372892  0.91094521  0.13918623  1
  O2-  O430  1  0.83278114  0.91628514  0.47075159  1
  O2-  O431  1  0.82403822  0.91225954  0.80442424  1
  O2-  O432  1  0.12221462  0.04371189  0.21314024  1
  O2-  O433  1  0.16366380  0.08166162  0.51543131  1
  O2-  O434  1  0.12799089  0.08407134  0.86131751  1
  O2-  O435  1  0.15307640  0.29753744  0.18099465  1
  O2-  O436  1  0.16946335  0.32522442  0.50699013  1
  O2-  O437  1  0.17102758  0.33038984  0.87924131  1
  O2-  O438  1  0.16741473  0.57643739  0.16782065  1
  O2-  O439  1  0.16440927  0.58620552  0.50649750  1
  O2-  O440  1  0.15440953  0.58135425  0.81105521  1
  O2-  O441  1  0.16335887  0.82274493  0.18783586  1
  O2-  O442  1  0.15562066  0.82498268  0.49445034  1
  O2-  O443  1  0.16815885  0.84548061  0.85668899  1
  O2-  O444  1  0.39502775  0.07386703  0.17314638  1
  O2-  O445  1  0.45745422  0.05101074  0.53847724  1
  O2-  O446  1  0.42827030  0.09054378  0.86172231  1
  O2-  O447  1  0.40456943  0.33985844  0.19975936  1
  O2-  O448  1  0.41195299  0.34111260  0.53164547  1
  O2-  O449  1  0.40956307  0.32833212  0.85400843  1
  O2-  O450  1  0.41977701  0.57136837  0.18122307  1
  O2-  O451  1  0.41623225  0.58246465  0.52170971  1
  O2-  O452  1  0.42098858  0.58150446  0.86609582  1
  O2-  O453  1  0.41461862  0.81868664  0.18776681  1
  O2-  O454  1  0.41494933  0.83054018  0.52212940  1
  O2-  O455  1  0.41809121  0.84003756  0.85023150  1
  O2-  O456  1  0.74178584  0.12649874  0.22423348  1
  O2-  O457  1  0.67709770  0.08908606  0.52027496  1
  O2-  O458  1  0.66923813  0.07723280  0.83946202  1
  O2-  O459  1  0.68351615  0.33500060  0.18586111  1
  O2-  O460  1  0.66812124  0.33368695  0.50660880  1
  O2-  O461  1  0.66333885  0.34185152  0.84264837  1
  O2-  O462  1  0.66536481  0.57151597  0.18888868  1
  O2-  O463  1  0.66515374  0.58846315  0.52515627  1
  O2-  O464  1  0.64880803  0.58063100  0.86711175  1
  O2-  O465  1  0.66526566  0.82041958  0.18594748  1
  O2-  O466  1  0.66659236  0.83420939  0.51415598  1
  O2-  O467  1  0.66914661  0.83789888  0.84749751  1
  O2-  O468  1  0.92138998  0.07687029  0.17917601  1
  O2-  O469  1  0.92012780  0.08041739  0.51087882  1
  O2-  O470  1  0.88943169  0.07227502  0.83785740  1
  O2-  O471  1  0.93724609  0.34072941  0.17278179  1
  O2-  O472  1  0.92409109  0.33144000  0.53063750  1
  O2-  O473  1  0.92954156  0.34438208  0.87347723  1
  O2-  O474  1  0.92973915  0.58513396  0.19236046  1
  O2-  O475  1  0.93109271  0.57459996  0.51181584  1
  O2-  O476  1  0.91827537  0.58885150  0.85627488  1
  O2-  O477  1  0.92340955  0.84017943  0.18651803  1
  O2-  O478  1  0.91206326  0.83284286  0.51686237  1
  O2-  O479  1  0.91402073  0.84108196  0.85189971  1
  O2-  O480  1  0.27416852  0.07680991  0.31527068  1
  O2-  O481  1  0.19518115  0.14691052  0.63017484  1
  O2-  O482  1  0.12259909  0.10721771  0.98826663  1
  O2-  O483  1  0.19320785  0.25484090  0.30103553  1
  O2-  O484  1  0.18591985  0.36685219  0.63441564  1
  O2-  O485  1  0.15871149  0.33762952  0.99576012  1
  O2-  O486  1  0.18713441  0.57361670  0.28909212  1
  O2-  O487  1  0.16413985  0.57655698  0.68669209  1
  O2-  O488  1  0.19055786  0.57330152  0.99120558  1
  O2-  O489  1  0.15900884  0.82465704  0.30951756  1
  O2-  O490  1  0.16816744  0.83271912  0.64608132  1
  O2-  O491  1  0.16236022  0.82184355  0.97661050  1
  O2-  O492  1  0.41734750  0.08219027  0.28279150  1
  O2-  O493  1  0.46129644  0.13290218  0.63360565  1
  O2-  O494  1  0.37993964  0.08075789  0.98605730  1
  O2-  O495  1  0.38590459  0.32882076  0.32059649  1
  O2-  O496  1  0.41224027  0.34040692  0.65251429  1
  O2-  O497  1  0.40706464  0.31908701  0.97398558  1
  O2-  O498  1  0.42695109  0.57609655  0.30377727  1
  O2-  O499  1  0.41167602  0.57089549  0.64965071  1
  O2-  O500  1  0.44305143  0.60322415  0.99063439  1
  O2-  O501  1  0.41879677  0.83807731  0.31042358  1
  O2-  O502  1  0.41962535  0.83353171  0.64461338  1
  O2-  O503  1  0.42797933  0.84001973  0.97496660  1
  O2-  O504  1  0.65988268  0.09149955  0.35756418  1
  O2-  O505  1  0.67147154  0.08111671  0.64581023  1
  O2-  O506  1  0.68631901  0.08775351  0.96269157  1
  O2-  O507  1  0.66275665  0.33147103  0.31246012  1
  O2-  O508  1  0.73067160  0.31000501  0.62147975  1
  O2-  O509  1  0.68600173  0.34590460  0.97045041  1
  O2-  O510  1  0.65956464  0.57549113  0.31266931  1
  O2-  O511  1  0.67540408  0.59801971  0.64865424  1
  O2-  O512  1  0.66798087  0.59105433  0.98155491  1
  O2-  O513  1  0.66892380  0.83416965  0.30938932  1
  O2-  O514  1  0.66657360  0.84087548  0.63665619  1
  O2-  O515  1  0.72229394  0.86445712  0.98800585  1
  O2-  O516  1  0.91464385  0.08797560  0.30974716  1
  O2-  O517  1  0.90816926  0.06680212  0.63729539  1
  O2-  O518  1  0.90600856  0.06782280  0.96810639  1
  O2-  O519  1  0.92046393  0.33642183  0.29918450  1
  O2-  O520  1  0.91895430  0.32158369  0.65738276  1
  O2-  O521  1  0.93032855  0.34595490  0.99795172  1
  O2-  O522  1  0.92845260  0.58232232  0.31356500  1
  O2-  O523  1  0.90901811  0.58417394  0.66406561  1
  O2-  O524  1  0.92502241  0.59260482  0.98100983  1
  O2-  O525  1  0.96572720  0.93664205  0.28345523  1
  O2-  O526  1  0.91565230  0.83423229  0.63984204  1
  O2-  O527  1  0.90966857  0.82861952  0.97650299  1
  O2-  O528  1  0.08367620  0.15538574  0.01380727  1
  O2-  O529  1  0.05527263  0.12526539  0.35424147  1
  O2-  O530  1  0.07551150  0.17404893  0.68262986  1
  O2-  O531  1  0.08582157  0.42300036  0.04686751  1
  O2-  O532  1  0.06208302  0.45131317  0.36403087  1
  O2-  O533  1  0.07632103  0.40015993  0.70492652  1
  O2-  O534  1  0.07951102  0.67496010  0.01929152  1
  O2-  O535  1  0.08289678  0.67389433  0.34809150  1
  O2-  O536  1  0.08243395  0.67031870  0.69072060  1
  O2-  O537  1  0.08169381  0.91006790  0.02306220  1
  O2-  O538  1  0.08041405  0.92349688  0.35281536  1
  O2-  O539  1  0.08099735  0.91685572  0.69537419  1
  O2-  O540  1  0.28662490  0.16094807  0.01604070  1
  O2-  O541  1  0.36882350  0.19899610  0.38304711  1
  O2-  O542  1  0.35146768  0.17852910  0.68644246  1
  O2-  O543  1  0.40998157  0.45117694  0.03586050  1
  O2-  O544  1  0.34491927  0.43511091  0.36119598  1
  O2-  O545  1  0.32674308  0.41803393  0.69421195  1
  O2-  O546  1  0.35274867  0.68008974  0.02611080  1
  O2-  O547  1  0.37018530  0.68494157  0.35633589  1
  O2-  O548  1  0.34300028  0.66912009  0.68340042  1
  O2-  O549  1  0.32137436  0.90644642  0.01116318  1
  O2-  O550  1  0.32416210  0.91390038  0.34326700  1
  O2-  O551  1  0.33893014  0.90986772  0.68966709  1
  O2-  O552  1  0.60423790  0.17148286  -0.02304292  1
  O2-  O553  1  0.56227676  0.16215933  0.34696611  1
  O2-  O554  1  0.60969816  0.17594889  0.70093368  1
  O2-  O555  1  0.54668009  0.42989747  0.03626115  1
  O2-  O556  1  0.55206696  0.40393245  0.30344745  1
  O2-  O557  1  0.57069545  0.43697487  0.69101727  1
  O2-  O558  1  0.61723138  0.69890470  0.02203168  1
  O2-  O559  1  0.58737366  0.67077682  0.35286218  1
  O2-  O560  1  0.64078678  0.70885551  0.70589034  1
  O2-  O561  1  0.60864440  0.92455275  0.00805115  1
  O2-  O562  1  0.58160561  0.91460769  0.35445038  1
  O2-  O563  1  0.58236551  0.91800288  0.68039743  1
  O2-  O564  1  0.84913676  0.17062319  0.01282343  1
  O2-  O565  1  0.84135748  0.17642686  0.35339214  1
  O2-  O566  1  0.82721458  0.15817594  0.71190500  1
  O2-  O567  1  0.84869202  0.42926124  0.02386296  1
  O2-  O568  1  0.83718862  0.41496062  0.35035825  1
  O2-  O569  1  0.85535460  0.42098380  0.70143343  1
  O2-  O570  1  0.83492598  0.66278179  0.01425643  1
  O2-  O571  1  0.79487520  0.59173761  0.37904749  1
  O2-  O572  1  0.84049065  0.67372681  0.69153042  1
  O2-  O573  1  0.80912044  0.90407392  0.01389908  1
  O2-  O574  1  0.83787074  0.92924611  0.34618479  1
  O2-  O575  1  0.82614266  0.90963919  0.68128272  1
