# generated using pymatgen
data_H2O
_symmetry_space_group_name_H-M   'P 1'
_cell_length_a   17.99286028
_cell_length_b   17.99500321
_cell_length_c   22.00240361
_cell_angle_alpha   89.99938218
_cell_angle_beta   89.99958091
_cell_angle_gamma   119.99749458
_symmetry_Int_Tables_number   1
_chemical_formula_structural   H2O
_chemical_formula_sum   'H384 O192'
_cell_volume   6169.69731680
_cell_formula_units_Z   192
loop_
 _symmetry_equiv_pos_site_id
 _symmetry_equiv_pos_as_xyz
  1  'x, y, z'
loop_
 _atom_type_symbol
 _atom_type_oxidation_number
  H+  1.0
  O2-  -2.0
loop_
 _atom_site_type_symbol
 _atom_site_label
 _atom_site_symmetry_multiplicity
 _atom_site_fract_x
 _atom_site_fract_y
 _atom_site_fract_z
 _atom_site_occupancy
  H+  H0  1  0.36464783  0.87846385  0.67300112  1
  H+  H1  1  0.62223127  0.72424311  1.02317612  1
  H+  H2  1  0.36146077  0.21597693  0.16344570  1
  H+  H3  1  0.36553558  0.00879355  0.83383412  1
  H+  H4  1  0.64874622  0.81907498  0.90619386  1
  H+  H5  1  0.84216833  0.37240773  0.00725447  1
  H+  H6  1  0.87303326  0.63580484  0.00122137  1
  H+  H7  1  0.64910453  0.62218142  0.66576996  1
  H+  H8  1  0.23468009  0.36557678  0.33848004  1
  H+  H9  1  0.62541859  0.48309098  0.66383894  1
  H+  H10  1  0.11418866  0.13685010  0.66555817  1
  H+  H11  1  0.13219838  0.01752980  0.50263328  1
  H+  H12  1  0.10646082  0.96361901  0.15843526  1
  H+  H13  1  0.77418031  0.37916327  0.49887915  1
  H+  H14  1  0.37713144  0.63357844  1.00486020  1
  H+  H15  1  0.61295381  0.88462474  0.51585637  1
  H+  H16  1  0.51958225  0.88145556  -0.00227468  1
  H+  H17  1  0.63547302  0.36831742  0.16680112  1
  H+  H18  1  0.79735053  0.65584215  -0.00408844  1
  H+  H19  1  0.70505934  0.60573487  0.84574328  1
  H+  H20  1  0.02052085  0.37851321  0.50228885  1
  H+  H21  1  0.12804424  0.78548756  0.32221679  1
  H+  H22  1  0.61473821  0.21349042  0.68934405  1
  H+  H23  1  0.79722731  0.67188404  0.76082058  1
  H+  H24  1  0.74124526  0.13976062  0.51178442  1
  H+  H25  1  0.86245810  0.72608402  0.15737145  1
  H+  H26  1  0.89670946  0.80121028  0.56596786  1
  H+  H27  1  0.90060102  0.04162866  0.99872425  1
  H+  H28  1  -0.02682720  0.12083990  0.33250083  1
  H+  H29  1  0.27681979  0.37925746  0.67294299  1
  H+  H30  1  1.01127184  0.63271207  0.80579132  1
  H+  H31  1  0.22316562  0.10033974  0.16896274  1
  H+  H32  1  0.82932470  0.47339698  0.82953222  1
  H+  H33  1  0.22987499  0.87224010  0.50150753  1
  H+  H34  1  0.86383501  0.41345611  0.68815163  1
  H+  H35  1  0.38542346  0.35333410  0.17790016  1
  H+  H36  1  0.60937691  0.96378386  0.67822874  1
  H+  H37  1  0.28395769  0.62689905  -0.00716363  1
  H+  H38  1  0.43061392  0.65561093  0.54904278  1
  H+  H39  1  0.86562517  0.24697418  0.66117307  1
  H+  H40  1  1.02158296  0.13042430  0.66936671  1
  H+  H41  1  0.88342545  1.00892513  0.66279288  1
  H+  H42  1  0.17078796  0.33817957  0.28049811  1
  H+  H43  1  0.11058830  0.23392744  0.35401386  1
  H+  H44  1  0.14514267  0.13524696  0.32716173  1
  H+  H45  1  0.38871018  0.85806777  -0.00788694  1
  H+  H46  1  0.10475318  0.46316170  0.16717653  1
  H+  H47  1  0.48301013  0.60574028  0.67349515  1
  H+  H48  1  0.60469964  0.22674268  0.49112204  1
  H+  H49  1  0.86178768  0.49742475  1.00121628  1
  H+  H50  1  0.01883588  0.88186989  0.49640083  1
  H+  H51  1  0.32719772  0.72096686  0.13680175  1
  H+  H52  1  0.87252374  0.22728271  0.48868677  1
  H+  H53  1  0.69834539  0.33048390  0.02050968  1
  H+  H54  1  0.89792932  0.61473612  0.16591624  1
  H+  H55  1  0.59785689  0.98307932  0.33802863  1
  H+  H56  1  0.09317709  0.62222470  0.01451782  1
  H+  H57  1  0.10399069  0.48271963  1.00794010  1
  H+  H58  1  0.03262573  0.89606458  -0.00321917  1
  H+  H59  1  0.33587816  0.18001021  0.76364183  1
  H+  H60  1  0.13238362  0.35558115  0.18329725  1
  H+  H61  1  0.38627320  0.78333954  0.31765856  1
  H+  H62  1  0.11158491  0.73915825  0.50676657  1
  H+  H63  1  0.88208224  0.85559966  0.31755206  1
  H+  H64  1  0.72411286  0.85381676  0.66347815  1
  H+  H65  1  0.37213611  0.40400021  0.51900976  1
  H+  H66  1  0.19944293  0.66425254  0.97028636  1
  H+  H67  1  0.64381070  0.50293084  0.15483846  1
  H+  H68  1  0.13524790  0.51677217  0.65203758  1
  H+  H69  1  0.77115989  0.13159268  0.15556842  1
  H+  H70  1  1.00137809  0.42775087  0.28779660  1
  H+  H71  1  0.61536602  0.47319734  0.34738988  1
  H+  H72  1  0.90132626  0.78101929  -0.01595944  1
  H+  H73  1  0.47407599  0.86258032  0.51188404  1
  H+  H74  1  0.05895416  0.89008619  0.82792625  1
  H+  H75  1  0.46738865  0.87547175  0.32294538  1
  H+  H76  1  0.83593838  0.72629604  0.82018278  1
  H+  H77  1  0.27291151  0.39840676  0.00881317  1
  H+  H78  1  0.62943730  0.35060289  0.65803355  1
  H+  H79  1  0.88593852  0.03226652  0.31838457  1
  H+  H80  1  0.89367302  0.36418148  0.50755474  1
  H+  H81  1  0.87908950  0.85148681  0.51223088  1
  H+  H82  1  0.60319787  0.31659783  0.01414314  1
  H+  H83  1  0.93073143  0.35223940  0.83834472  1
  H+  H84  1  0.10510949  0.89571412  0.33511049  1
  H+  H85  1  0.72013851  0.35894361  0.66396065  1
  H+  H86  1  0.52804404  0.63972700  0.34617051  1
  H+  H87  1  0.60139869  0.11101259  -0.03292677  1
  H+  H88  1  0.60862982  0.96425573  0.83680597  1
  H+  H89  1  0.26807384  -0.10840425  0.33851642  1
  H+  H90  1  0.59890497  0.71733575  0.83416033  1
  H+  H91  1  0.65760121  0.60434286  0.29018807  1
  H+  H92  1  1.03484848  0.35365499  0.83891355  1
  H+  H93  1  0.90327260  0.12056544  0.84154231  1
  H+  H94  1  0.67375806  0.54172022  0.99756995  1
  H+  H95  1  0.10610923  0.59106622  0.83504922  1
  H+  H96  1  0.36002759  0.13835956  0.81966603  1
  H+  H97  1  0.11890181  0.23857339  1.00875633  1
  H+  H98  1  0.66595684  0.07773730  0.61057732  1
  H+  H99  1  0.63426527  0.40403907  0.80419536  1
  H+  H100  1  0.01543741  0.37598410  0.16479912  1
  H+  H101  1  0.86868608  -0.01950331  0.16968113  1
  H+  H102  1  0.14993022  0.86313980  0.16733218  1
  H+  H103  1  0.59678107  0.89569192  0.34158585  1
  H+  H104  1  0.13568099  0.26877519  0.65782922  1
  H+  H105  1  0.23781801  0.12971338  0.65102664  1
  H+  H106  1  0.16354956  0.07883431  0.22656618  1
  H+  H107  1  0.60712980  0.14082055  0.49110064  1
  H+  H108  1  0.71168613  0.19083671  0.55298094  1
  H+  H109  1  0.62551907  0.66403162  0.35690957  1
  H+  H110  1  0.09490517  0.64461858  0.34946782  1
  H+  H111  1  0.47429994  0.36633416  0.54091751  1
  H+  H112  1  0.36418069  0.72128659  0.66863399  1
  H+  H113  1  0.85839908  0.11979683  0.68066173  1
  H+  H114  1  0.23224322  0.84216992  0.84069583  1
  H+  H115  1  0.36430591  0.63225065  0.67409842  1
  H+  H116  1  0.18334020  0.42793522  0.81975327  1
  H+  H117  1  0.15424386  0.87884420  -0.00554388  1
  H+  H118  1  0.59621967  0.62604573  0.83477451  1
  H+  H119  1  0.49652448  0.10487356  0.98228273  1
  H+  H120  1  0.87592257  0.35622360  0.16864037  1
  H+  H121  1  0.86317978  0.14166922  0.00115740  1
  H+  H122  1  0.60146483  0.30554498  0.87729458  1
  H+  H123  1  0.86810238  0.47770875  0.15635771  1
  H+  H124  1  0.15821903  0.55686254  0.35290794  1
  H+  H125  1  0.37041883  0.49042904  0.50693880  1
  H+  H126  1  0.46978584  0.61229932  0.83091257  1
  H+  H127  1  0.63025758  1.02841530  0.16961811  1
  H+  H128  1  0.72560582  0.85741026  0.50915434  1
  H+  H129  1  0.39563973  0.53034315  0.00570295  1
  H+  H130  1  0.58481432  0.67440812  0.12311232  1
  H+  H131  1  0.21539278  0.65853709  0.34852354  1
  H+  H132  1  0.60364855  0.22684507  0.33362696  1
  H+  H133  1  0.39622706  0.11168122  0.17099097  1
  H+  H134  1  0.38920269  0.10443676  -0.00460823  1
  H+  H135  1  0.15107856  0.53169163  0.83703823  1
  H+  H136  1  0.93953921  0.86741631  0.82621438  1
  H+  H137  1  0.38489129  0.02073633  0.32342465  1
  H+  H138  1  0.82984002  0.34240779  0.32143462  1
  H+  H139  1  0.12063440  0.38191117  0.50134858  1
  H+  H140  1  0.35570410  0.88689428  0.33617837  1
  H+  H141  1  0.53592507  0.15037784  0.15517010  1
  H+  H142  1  0.60757763  0.46782304  0.50778356  1
  H+  H143  1  0.85355486  0.13868163  0.33759186  1
  H+  H144  1  0.53226204  0.39962162  0.65638820  1
  H+  H145  1  0.88900714  0.11501187  0.16980638  1
  H+  H146  1  1.02850340  0.13963143  0.16307496  1
  H+  H147  1  0.47540045  0.11008180  0.32408568  1
  H+  H148  1  0.04413835  0.39464126  0.85478489  1
  H+  H149  1  0.98698174  0.13183878  1.00022102  1
  H+  H150  1  0.62470586  0.35709597  0.33077201  1
  H+  H151  1  0.66379535  0.32254582  0.56818959  1
  H+  H152  1  -0.05338527  0.81053071  0.68621105  1
  H+  H153  1  0.45325790  0.89220464  0.15821656  1
  H+  H154  1  0.87508002  0.26553460  0.16872898  1
  H+  H155  1  0.51615995  0.38335273  0.15755349  1
  H+  H156  1  0.36610147  0.46825812  0.67660365  1
  H+  H157  1  0.60107555  0.19834816  -0.00310223  1
  H+  H158  1  0.15637862  0.03786078  0.65621614  1
  H+  H159  1  0.91567307  0.82344592  0.23122842  1
  H+  H160  1  0.11885437  0.63442017  0.16991236  1
  H+  H161  1  0.61245566  0.62930998  0.50187741  1
  H+  H162  1  0.84056263  0.21334455  0.83156364  1
  H+  H163  1  0.18080268  0.83602785  0.94112975  1
  H+  H164  1  0.34927297  0.63065470  0.47725454  1
  H+  H165  1  0.26784689  0.37640514  0.17132468  1
  H+  H166  1  0.47185566  0.85677361  0.83730820  1
  H+  H167  1  0.02652788  0.38006570  0.68723081  1
  H+  H168  1  0.64243440  0.28439189  0.17322344  1
  H+  H169  1  0.63029130  0.20532459  0.84830832  1
  H+  H170  1  0.82802681  0.87712579  0.82308664  1
  H+  H171  1  0.61559514  0.72237736  0.67891484  1
  H+  H172  1  0.39578950  0.26955214  0.33197917  1
  H+  H173  1  0.86114274  0.46993123  0.49839207  1
  H+  H174  1  0.86153527  0.72315150  0.33828889  1
  H+  H175  1  0.89686299  0.86714966  0.99003501  1
  H+  H176  1  0.40015314  0.27533422  0.84323103  1
  H+  H177  1  0.38570495  1.01033396  -0.00523129  1
  H+  H178  1  1.00593375  0.61968729  1.02920185  1
  H+  H179  1  0.10063181  0.98907691  0.82827987  1
  H+  H180  1  0.63274885  0.11980369  0.32392652  1
  H+  H181  1  0.14677871  0.12776907  0.99952808  1
  H+  H182  1  0.77112396  0.13261246  -0.00883775  1
  H+  H183  1  0.87744508  0.27136616  0.99061085  1
  H+  H184  1  0.88039332  0.10538181  0.50250911  1
  H+  H185  1  0.11096309  0.88886364  0.49259482  1
  H+  H186  1  0.15282963  0.28402543  0.84033657  1
  H+  H187  1  0.47746300  0.85539351  0.65962161  1
  H+  H188  1  0.08029173  0.66553242  0.55490073  1
  H+  H189  1  0.63739709  0.76829796  0.51235443  1
  H+  H190  1  0.09233082  0.17979847  0.06936946  1
  H+  H191  1  0.71922699  0.60435132  0.50896703  1
  H+  H192  1  0.39089596  0.35603056  0.33390526  1
  H+  H193  1  0.63533116  0.01091036  0.96388349  1
  H+  H194  1  0.42583198  0.57531940  0.61387008  1
  H+  H195  1  0.38374461  0.39174227  0.82941880  1
  H+  H196  1  0.14721327  0.55363668  0.50669885  1
  H+  H197  1  0.94582376  0.97099115  0.05094276  1
  H+  H198  1  0.26617769  0.64150266  0.46790729  1
  H+  H199  1  0.20596327  0.97633833  0.71774001  1
  H+  H200  1  0.38816333  0.76754126  0.98968899  1
  H+  H201  1  0.38613697  -0.01844791  0.15850914  1
  H+  H202  1  0.61134092  -0.03305954  0.49259890  1
  H+  H203  1  0.82721222  0.24481389  0.31749406  1
  H+  H204  1  0.63036917  0.78817752  0.33153179  1
  H+  H205  1  0.14417846  0.83945061  0.84502138  1
  H+  H206  1  -0.02540623  0.40753956  0.31590400  1
  H+  H207  1  0.37382790  0.47154739  0.34689085  1
  H+  H208  1  0.66307232  0.08806478  0.26520804  1
  H+  H209  1  0.13758535  0.26978499  0.18502318  1
  H+  H210  1  0.23996655  0.11075375  0.84242415  1
  H+  H211  1  0.61332542  0.12431906  0.68704692  1
  H+  H212  1  0.64331185  0.12271073  0.16702451  1
  H+  H213  1  0.14128076  0.40579018  0.35467417  1
  H+  H214  1  0.49131505  0.36063254  0.83877191  1
  H+  H215  1  0.38291114  0.65043173  0.17835901  1
  H+  H216  1  0.24098492  0.38016625  0.50661197  1
  H+  H217  1  0.74709617  0.60157884  0.15626677  1
  H+  H218  1  0.15543163  0.28653996  0.50055399  1
  H+  H219  1  0.04229334  0.15495228  0.82811562  1
  H+  H220  1  0.27212498  0.12258185  0.49011868  1
  H+  H221  1  0.11169110  0.62411801  0.63653353  1
  H+  H222  1  0.96653857  0.10057220  0.50545938  1
  H+  H223  1  0.62173998  0.51490989  0.83853459  1
  H+  H224  1  0.06195841  0.42076494  0.35022054  1
  H+  H225  1  0.64534911  1.09928202  0.86031208  1
  H+  H226  1  0.70041085  0.34635664  0.85931198  1
  H+  H227  1  0.47275739  0.11179794  0.49631773  1
  H+  H228  1  0.22229277  0.60494036  0.65132839  1
  H+  H229  1  0.11496352  0.13423774  0.16066161  1
  H+  H230  1  0.77371391  0.39363083  0.16096695  1
  H+  H231  1  0.83145254  0.91980702  0.26317161  1
  H+  H232  1  0.74286554  0.60823781  0.31604839  1
  H+  H233  1  0.48483648  0.61811223  1.01552972  1
  H+  H234  1  0.11797816  -0.01311301  1.00828498  1
  H+  H235  1  0.57800866  0.16768267  0.39391560  1
  H+  H236  1  0.36986290  0.72576877  0.82256251  1
  H+  H237  1  0.38009510  0.52111614  0.82786107  1
  H+  H238  1  0.47146270  0.10724423  0.68614680  1
  H+  H239  1  0.85973427  0.96984729  0.49207164  1
  H+  H240  1  0.72322192  0.09670552  0.66984745  1
  H+  H241  1  0.87199194  0.54556909  0.66559381  1
  H+  H242  1  0.08190142  0.17591943  0.54216851  1
  H+  H243  1  0.37296041  0.23349131  0.66040299  1
  H+  H244  1  0.85959537  0.46783607  0.34199154  1
  H+  H245  1  0.39182115  0.37001827  0.64311324  1
  H+  H246  1  -0.02716659  0.85875569  0.32718303  1
  H+  H247  1  0.73872700  0.87209418  0.82051564  1
  H+  H248  1  0.61344889  0.84663927  0.84775686  1
  H+  H249  1  0.85318331  0.71630015  0.49284363  1
  H+  H250  1  0.82185475  0.29738126  0.63862159  1
  H+  H251  1  0.58545503  0.42149048  0.75205839  1
  H+  H252  1  0.48883400  0.62624799  0.51436693  1
  H+  H253  1  0.12096767  0.13108797  0.50247125  1
  H+  H254  1  0.11285801  0.37920374  0.67162665  1
  H+  H255  1  0.87451972  0.60454989  0.50444646  1
  H+  H256  1  0.38515873  0.77576033  0.49799515  1
  H+  H257  1  0.71955037  0.86373963  -0.00415253  1
  H+  H258  1  0.61007685  0.87525687  0.67950958  1
  H+  H259  1  0.35993110  0.87526071  0.82523641  1
  H+  H260  1  0.38259723  0.01658715  0.49529155  1
  H+  H261  1  0.30104899  0.63125008  0.32042799  1
  H+  H262  1  0.35649830  0.46268050  0.16380228  1
  H+  H263  1  0.28415476  0.89121754  0.00850182  1
  H+  H264  1  0.63474921  0.35781684  0.51192597  1
  H+  H265  1  0.22153694  0.03003621  0.87890340  1
  H+  H266  1  0.76597200  0.89172891  0.31640673  1
  H+  H267  1  0.27458040  0.87566652  0.67002978  1
  H+  H268  1  0.14589495  0.85861741  0.66267591  1
  H+  H269  1  0.36699569  0.13078660  0.33646071  1
  H+  H270  1  0.37257785  0.11195847  0.49263959  1
  H+  H271  1  0.36664196  0.14267236  0.67474635  1
  H+  H272  1  0.86050673  0.61449338  0.81717835  1
  H+  H273  1  0.24707802  0.36485198  0.84749522  1
  H+  H274  1  0.40268142  0.60904637  0.33157446  1
  H+  H275  1  0.90800548  0.57675936  0.26350003  1
  H+  H276  1  0.97344586  0.85500345  0.17033042  1
  H+  H277  1  0.13591087  0.63029042  0.48557191  1
  H+  H278  1  0.62873283  0.85751465  0.99898827  1
  H+  H279  1  0.13208673  0.36812464  0.99033997  1
  H+  H280  1  -0.03300144  0.61258577  0.51172808  1
  H+  H281  1  0.71891101  0.87366544  0.17757260  1
  H+  H282  1  0.60229930  0.20077020  0.10068964  1
  H+  H283  1  0.33443659  0.66576537  0.76042217  1
  H+  H284  1  0.36239401  0.88735702  0.48992863  1
  H+  H285  1  0.82606511  0.38205972  0.83208386  1
  H+  H286  1  0.58082540  0.91196950  0.77241270  1
  H+  H287  1  0.28372099  0.13870517  1.01036122  1
  H+  H288  1  0.21819516  0.19369507  0.28310009  1
  H+  H289  1  0.81411281  0.90355620  0.73364269  1
  H+  H290  1  0.89880489  0.83152787  0.89116945  1
  H+  H291  1  0.83147706  0.90704846  0.43519858  1
  H+  H292  1  0.98628764  0.61384592  0.17299145  1
  H+  H293  1  0.61206108  0.63027011  0.02367981  1
  H+  H294  1  0.55853657  0.39897442  0.09147457  1
  H+  H295  1  0.17776554  0.09313346  0.94265001  1
  H+  H296  1  0.57769787  0.92023921  0.05663396  1
  H+  H297  1  0.58224178  0.66601364  0.44464333  1
  H+  H298  1  0.65287777  0.84251332  0.26910315  1
  H+  H299  1  0.35069564  0.91972574  0.06604073  1
  H+  H300  1  0.37997062  0.21955724  0.01119767  1
  H+  H301  1  0.17097127  0.34009155  0.93470863  1
  H+  H302  1  0.91545114  0.32424371  0.56584734  1
  H+  H303  1  0.42856830  0.08431947  0.22935098  1
  H+  H304  1  0.84359965  0.67451290  0.09357270  1
  H+  H305  1  0.38327807  1.02120844  0.67681504  1
  H+  H306  1  0.93287176  0.55707505  0.95331263  1
  H+  H307  1  0.17219289  0.08085228  0.56106276  1
  H+  H308  1  0.43233223  0.58648806  0.27286520  1
  H+  H309  1  0.42219044  0.32732582  0.23529231  1
  H+  H310  1  0.82165690  0.65690007  0.43369568  1
  H+  H311  1  0.75735218  0.12620466  0.33994380  1
  H+  H312  1  0.41089887  0.82395703  0.89570967  1
  H+  H313  1  0.82812076  0.16156594  0.09527536  1
  H+  H314  1  0.66582580  0.58264607  0.57118912  1
  H+  H315  1  0.86174304  0.63330208  0.33887706  1
  H+  H316  1  0.17447706  0.84725197  0.56331072  1
  H+  H317  1  0.74351178  0.63980530  0.64823599  1
  H+  H318  1  0.08812582  0.66283395  0.11010217  1
  H+  H319  1  0.81096994  0.42343011  0.74174465  1
  H+  H320  1  0.96355944  0.36444203  0.99014364  1
  H+  H321  1  0.82964188  0.16463645  0.43135918  1
  H+  H322  1  0.88050989  0.68036835  0.64336855  1
  H+  H323  1  0.57138948  0.40694406  0.45083507  1
  H+  H324  1  0.86424328  0.88688817  0.16965503  1
  H+  H325  1  0.33130528  0.91605633  0.42913621  1
  H+  H326  1  0.11070608  0.94278439  0.73801722  1
  H+  H327  1  0.66280742  0.82441716  0.60546980  1
  H+  H328  1  0.92218209  0.09587557  0.23232628  1
  H+  H329  1  0.58698177  0.66320343  0.73935681  1
  H+  H330  1  0.83718191  0.40917812  0.40357593  1
  H+  H331  1  0.41725764  0.82840321  0.59948678  1
  H+  H332  1  0.16945007  0.84288863  0.26284022  1
  H+  H333  1  0.39692940  0.06888748  0.89229057  1
  H+  H334  1  0.77095098  0.11615437  0.84130212  1
  H+  H335  1  0.34515636  0.41830461  0.40887860  1
  H+  H336  1  0.45037609  0.33025940  0.94033729  1
  H+  H337  1  0.32794522  0.41223650  0.06771035  1
  H+  H338  1  0.17094518  0.58096441  0.23876859  1
  H+  H339  1  0.82029567  0.40582870  0.06902442  1
  H+  H340  1  0.85017786  0.86502886  0.68350770  1
  H+  H341  1  0.10510173  0.70803320  0.81879571  1
  H+  H342  1  0.88328075  0.32660114  0.90090141  1
  H+  H343  1  0.07136387  0.91577632  0.39609193  1
  H+  H344  1  0.55736337  0.43031334  -0.00570925  1
  H+  H345  1  0.85552063  0.30567478  0.25369384  1
  H+  H346  1  0.02404460  0.63107876  0.64501259  1
  H+  H347  1  0.13675028  0.76657064  0.64364576  1
  H+  H348  1  0.32575934  0.90050361  0.76547790  1
  H+  H349  1  0.15049454  0.58441001  0.92383707  1
  H+  H350  1  0.90163176  0.60393835  0.87600983  1
  H+  H351  1  0.07452937  0.41984790  0.06484200  1
  H+  H352  1  0.30056767  0.89097404  0.15918997  1
  H+  H353  1  0.96242030  0.60790148  0.32458443  1
  H+  H354  1  0.60336809  0.89071816  0.15908689  1
  H+  H355  1  0.90568272  0.06874979  0.60421530  1
  H+  H356  1  0.33641125  0.15752497  0.10391837  1
  H+  H357  1  0.65157532  0.33361549  0.26713073  1
  H+  H358  1  0.34574770  0.40679058  0.76748943  1
  H+  H359  1  0.82674645  0.15035078  0.73976320  1
  H+  H360  1  0.33375440  0.15504307  0.43009388  1
  H+  H361  1  0.37295566  0.62323044  0.82110525  1
  H+  H362  1  0.17185904  0.33448385  0.60152350  1
  H+  H363  1  0.07831001  0.90809283  0.09803082  1
  H+  H364  1  0.09585295  0.18358181  0.76709429  1
  H+  H365  1  0.52363014  0.38823452  0.34915741  1
  H+  H366  1  0.34329087  0.66686445  0.38629068  1
  H+  H367  1  0.63037418  0.78362940  0.17957903  1
  H+  H368  1  0.32162953  0.65730306  0.08524108  1
  H+  H369  1  0.85541411  0.92705519  0.07977161  1
  H+  H370  1  0.93805447  0.10212581  0.90147503  1
  H+  H371  1  0.68930585  0.55756216  0.22132911  1
  H+  H372  1  0.63298516  0.55391532  0.93706729  1
  H+  H373  1  0.07864078  0.16823731  0.40924491  1
  H+  H374  1  0.15114774  0.45422584  0.76126105  1
  H+  H375  1  0.22077242  0.60069487  0.17474437  1
  H+  H376  1  0.52181365  0.66661978  0.17684473  1
  H+  H377  1  0.90088246  0.58484696  0.59911962  1
  H+  H378  1  0.15325165  0.77730500  0.17398986  1
  H+  H379  1  0.28274650  0.14179292  0.33735386  1
  H+  H380  1  0.09174361  0.42076432  0.44171458  1
  H+  H381  1  0.06187681  0.68032857  0.40214604  1
  H+  H382  1  0.44708313  0.71573894  0.22465793  1
  H+  H383  1  0.60816558  0.15139580  0.78550783  1
  O2-  O384  1  0.08996379  0.17128687  0.15005290  1
  O2-  O385  1  0.09016978  0.16656647  0.49945913  1
  O2-  O386  1  0.10228150  0.18719057  0.81154688  1
  O2-  O387  1  0.07561815  0.40401729  0.14999629  1
  O2-  O388  1  0.08439897  0.40995451  0.48798782  1
  O2-  O389  1  0.18883945  0.47814210  0.79686071  1
  O2-  O390  1  0.09190973  0.66807922  0.15603795  1
  O2-  O391  1  0.07894800  0.67445565  0.50929078  1
  O2-  O392  1  0.07188949  0.65351406  0.79635406  1
  O2-  O393  1  0.07618478  0.90320298  0.14331311  1
  O2-  O394  1  0.07731405  0.91671865  0.47913578  1
  O2-  O395  1  0.05692348  0.93620801  0.80606610  1
  O2-  O396  1  0.33164187  0.15524557  0.14925817  1
  O2-  O397  1  0.33313121  0.15024686  0.47581046  1
  O2-  O398  1  0.33626724  0.17695497  0.80885719  1
  O2-  O399  1  0.32764645  0.40155016  0.15463673  1
  O2-  O400  1  0.34428283  0.42992871  0.49414342  1
  O2-  O401  1  0.35065842  0.41730002  0.81210300  1
  O2-  O402  1  0.31342197  0.66161104  0.13107393  1
  O2-  O403  1  0.32993967  0.66790490  0.45886117  1
  O2-  O404  1  0.34110550  0.66534876  0.80597705  1
  O2-  O405  1  0.36008744  0.92136973  0.14293891  1
  O2-  O406  1  0.33271579  0.91861227  0.47517433  1
  O2-  O407  1  0.32467396  0.90117820  0.81126866  1
  O2-  O408  1  0.59837847  0.18450117  0.14363094  1
  O2-  O409  1  0.57375827  0.16647572  0.47466264  1
  O2-  O410  1  0.61513001  0.14862709  0.83032102  1
  O2-  O411  1  0.57305480  0.41272660  0.13505822  1
  O2-  O412  1  0.57433397  0.40583491  0.49601001  1
  O2-  O413  1  0.59091571  0.42070365  0.79785188  1
  O2-  O414  1  0.58225540  0.68424047  0.16734241  1
  O2-  O415  1  0.58299075  0.66263826  0.48984164  1
  O2-  O416  1  0.57106507  0.65829091  0.81507921  1
  O2-  O417  1  0.57168190  0.91894329  0.14076427  1
  O2-  O418  1  0.58073451  0.91629906  0.51803768  1
  O2-  O419  1  0.57489736  0.90674864  0.81787688  1
  O2-  O420  1  0.83194664  0.16234323  0.14048947  1
  O2-  O421  1  0.83633117  0.16597104  0.47690668  1
  O2-  O422  1  0.82369752  0.15452958  0.81787840  1
  O2-  O423  1  0.83268175  0.41633958  0.14321007  1
  O2-  O424  1  0.83544120  0.40861482  0.48509878  1
  O2-  O425  1  0.79449582  0.41169459  0.81773068  1
  O2-  O426  1  0.83659863  0.66669808  0.13846407  1
  O2-  O427  1  0.82130207  0.65514530  0.47900901  1
  O2-  O428  1  0.80343765  0.66542194  0.80435306  1
  O2-  O429  1  0.83277423  0.91802627  0.15890785  1
  O2-  O430  1  0.83156184  0.90774155  0.47953666  1
  O2-  O431  1  0.79706086  0.90227135  0.80236324  1
  O2-  O432  1  0.16142769  0.07185751  0.18188227  1
  O2-  O433  1  0.16838844  0.07971686  0.51530821  1
  O2-  O434  1  0.19315148  0.06198321  0.86659062  1
  O2-  O435  1  0.16563781  0.33000650  0.20133938  1
  O2-  O436  1  0.17715662  0.34559736  0.51601551  1
  O2-  O437  1  0.18658096  0.34299506  0.85984544  1
  O2-  O438  1  0.16320028  0.57036933  0.19472632  1
  O2-  O439  1  0.16346949  0.59548170  0.47381471  1
  O2-  O440  1  0.12173079  0.55647770  0.86203885  1
  O2-  O441  1  0.18430665  0.83941535  0.18545571  1
  O2-  O442  1  0.16978607  0.84527363  0.51783046  1
  O2-  O443  1  0.17261188  0.80918503  0.85984766  1
  O2-  O444  1  0.43350237  0.08792159  0.18380740  1
  O2-  O445  1  0.41037794  0.07914913  0.50912186  1
  O2-  O446  1  0.38110083  0.06672784  0.84925086  1
  O2-  O447  1  0.42012766  0.32628719  0.18987281  1
  O2-  O448  1  0.41641383  0.34948493  0.55837620  1
  O2-  O449  1  0.43659049  0.33371307  0.86171723  1
  O2-  O450  1  0.42639431  0.65745889  0.20966534  1
  O2-  O451  1  0.42764784  0.60535769  0.52962211  1
  O2-  O452  1  0.40615490  0.58302043  0.83980536  1
  O2-  O453  1  0.48343948  0.85897613  0.16287123  1
  O2-  O454  1  0.41014221  0.83190375  0.51875664  1
  O2-  O455  1  0.41000010  0.82342733  0.85019347  1
  O2-  O456  1  0.66817062  0.08820357  0.18369254  1
  O2-  O457  1  0.69068390  0.13403660  0.53534213  1
  O2-  O458  1  0.66952869  0.06019353  0.88034815  1
  O2-  O459  1  0.67010231  0.34603295  0.18627631  1
  O2-  O460  1  0.66586884  0.32619202  0.52275772  1
  O2-  O461  1  0.65187971  0.29935465  0.88216892  1
  O2-  O462  1  0.68655419  0.56089340  0.17512009  1
  O2-  O463  1  0.65950857  0.57609143  0.52582160  1
  O2-  O464  1  0.64577682  0.56978581  0.86186872  1
  O2-  O465  1  0.65843890  0.84732294  0.19112234  1
  O2-  O466  1  0.66698686  0.82895742  0.52687684  1
  O2-  O467  1  0.64277664  0.81450909  0.86120987  1
  O2-  O468  1  0.92111763  0.08775177  0.18730855  1
  O2-  O469  1  0.90596320  0.07088142  0.51861272  1
  O2-  O470  1  0.94226159  0.10120705  0.85681712  1
  O2-  O471  1  0.89981146  0.32289058  0.18931199  1
  O2-  O472  1  0.92589264  0.33400260  0.52096317  1
  O2-  O473  1  0.87283595  0.32351375  0.85563086  1
  O2-  O474  1  0.92311093  0.58171087  0.18358659  1
  O2-  O475  1  0.90498041  0.57558330  0.52213134  1
  O2-  O476  1  0.89137129  0.58531988  0.83372108  1
  O2-  O477  1  0.91235383  0.82561052  0.18564617  1
  O2-  O478  1  0.90855744  0.81883070  0.52298842  1
  O2-  O479  1  0.88584968  0.82569488  0.84654618  1
  O2-  O480  1  0.19033815  0.13610607  0.30051883  1
  O2-  O481  1  0.17646202  0.09432208  0.63646436  1
  O2-  O482  1  0.17636369  0.09513756  0.98766607  1
  O2-  O483  1  0.17307087  0.34099103  0.32618718  1
  O2-  O484  1  0.16898702  0.33156811  0.64628625  1
  O2-  O485  1  0.16414864  0.33832927  0.98043364  1
  O2-  O486  1  0.17043519  0.60769262  0.32789030  1
  O2-  O487  1  0.16494519  0.57371854  0.63183952  1
  O2-  O488  1  0.16855739  0.60165779  0.96997713  1
  O2-  O489  1  0.16361362  0.84523747  0.30813396  1
  O2-  O490  1  0.17236770  0.83067268  0.63970226  1
  O2-  O491  1  0.18920914  0.85207811  0.98453189  1
  O2-  O492  1  0.41531632  0.08096349  0.30713043  1
  O2-  O493  1  0.41243429  0.08407046  0.67059112  1
  O2-  O494  1  0.41499780  0.07143868  0.97613689  1
  O2-  O495  1  0.42341262  0.32992093  0.31616932  1
  O2-  O496  1  0.42787107  0.34626542  0.62478244  1
  O2-  O497  1  0.44639454  0.32423980  0.98614037  1
  O2-  O498  1  0.43176633  0.57670605  0.31713920  1
  O2-  O499  1  0.42178861  0.57472745  0.65854891  1
  O2-  O500  1  0.42961496  0.59236827  0.99349083  1
  O2-  O501  1  0.40663857  0.84330779  0.30685960  1
  O2-  O502  1  0.41667699  0.82575848  0.64477402  1
  O2-  O503  1  0.41778295  0.82796186  0.97404908  1
  O2-  O504  1  0.66289168  0.08804938  0.31042554  1
  O2-  O505  1  0.66232260  0.06903368  0.65505726  1
  O2-  O506  1  0.66527195  0.07109906  0.94695804  1
  O2-  O507  1  0.64740638  0.32285448  0.31143977  1
  O2-  O508  1  0.66137460  0.32025037  0.64788460  1
  O2-  O509  1  0.63597610  0.28836786  1.02602655  1
  O2-  O510  1  0.68581409  0.57024661  0.29340704  1
  O2-  O511  1  0.68173010  0.59572680  0.64721298  1
  O2-  O512  1  0.62329321  0.54229423  0.98217285  1
  O2-  O513  1  0.66104137  0.84687080  0.31444446  1
  O2-  O514  1  0.66203170  0.82295690  0.65089945  1
  O2-  O515  1  0.65910905  0.82527467  0.98670338  1
  O2-  O516  1  0.91605897  0.09574832  0.31233424  1
  O2-  O517  1  0.91131308  0.07025614  0.64901161  1
  O2-  O518  1  0.92617758  0.10139222  0.98459087  1
  O2-  O519  1  0.81989718  0.28904394  0.29320777  1
  O2-  O520  1  0.87846571  0.30271372  0.64089752  1
  O2-  O521  1  0.90250649  0.33228827  0.97626477  1
  O2-  O522  1  0.90268945  0.57475681  0.30880498  1
  O2-  O523  1  0.90588889  0.60028108  0.64345907  1
  O2-  O524  1  0.89893521  0.55974188  0.98687758  1
  O2-  O525  1  0.91180201  0.82275323  0.30954342  1
  O2-  O526  1  0.88359326  0.77775937  0.68960782  1
  O2-  O527  1  0.92369656  0.83942453  0.96666657  1
  O2-  O528  1  0.09017660  0.17741027  0.02408139  1
  O2-  O529  1  0.07891872  0.17157675  0.36472252  1
  O2-  O530  1  0.08360789  0.16715727  0.67947792  1
  O2-  O531  1  0.07111098  0.42192262  0.01981625  1
  O2-  O532  1  0.11589772  0.44033466  0.37287140  1
  O2-  O533  1  0.08886314  0.41510293  0.68756780  1
  O2-  O534  1  0.06752190  0.65011158  0.03857830  1
  O2-  O535  1  0.06289396  0.67504411  0.35795591  1
  O2-  O536  1  0.08327985  0.66007405  0.62905545  1
  O2-  O537  1  0.08796034  0.92450250  0.01906949  1
  O2-  O538  1  0.06672836  0.91597868  0.35121951  1
  O2-  O539  1  0.14743491  0.94972352  0.70194700  1
  O2-  O540  1  0.34367252  0.15862651  0.02465752  1
  O2-  O541  1  0.34071859  0.16386295  0.35519033  1
  O2-  O542  1  0.33707218  0.17771606  0.68075922  1
  O2-  O543  1  0.33263249  0.42698909  0.02440341  1
  O2-  O544  1  0.33994807  0.41239475  0.36403813  1
  O2-  O545  1  0.33827548  0.40521223  0.68508556  1
  O2-  O546  1  0.33918209  0.66156531  0.01399610  1
  O2-  O547  1  0.35557419  0.66734290  0.34118331  1
  O2-  O548  1  0.33141600  0.66118859  0.68496440  1
  O2-  O549  1  0.34741993  0.91891886  0.02031457  1
  O2-  O550  1  0.32801281  0.91935960  0.35445899  1
  O2-  O551  1  0.33225689  0.90573151  0.68964595  1
  O2-  O552  1  0.56835270  0.13324389  -0.00979254  1
  O2-  O553  1  0.57719329  0.16496651  0.34879483  1
  O2-  O554  1  0.58847442  0.15591520  0.70823838  1
  O2-  O555  1  0.53580023  0.37012154  0.00883143  1
  O2-  O556  1  0.58183016  0.41783277  0.36846436  1
  O2-  O557  1  0.58907958  0.42220662  0.67676561  1
  O2-  O558  1  0.59475621  0.66785009  0.04435745  1
  O2-  O559  1  0.58396648  0.68178196  0.36679132  1
  O2-  O560  1  0.58855832  0.66130136  0.69374103  1
  O2-  O561  1  0.58118714  0.91545375  0.01184919  1
  O2-  O562  1  0.56379753  0.92353737  0.35378861  1
  O2-  O563  1  0.57810827  0.90392457  0.69456010  1
  O2-  O564  1  0.82584446  0.16629077  0.01330978  1
  O2-  O565  1  0.81894802  0.16335354  0.35466955  1
  O2-  O566  1  0.82761311  0.15044145  0.69413650  1
  O2-  O567  1  0.81014655  0.40055393  0.02361359  1
  O2-  O568  1  0.84545719  0.41110702  0.35879012  1
  O2-  O569  1  0.82143232  0.43097442  0.69650392  1
  O2-  O570  1  0.85392790  0.67730443  0.01412105  1
  O2-  O571  1  0.82878095  0.66174408  0.35298510  1
  O2-  O572  1  0.85767890  0.72128491  0.63569555  1
  O2-  O573  1  0.88527770  0.94073359  0.03933778  1
  O2-  O574  1  0.82993874  0.92029589  0.30775103  1
  O2-  O575  1  0.82653962  0.90375169  0.68784705  1
