# generated using pymatgen
data_H2O
_symmetry_space_group_name_H-M   'P 1'
_cell_length_a   18.00331373
_cell_length_b   18.00695248
_cell_length_c   22.01766556
_cell_angle_alpha   89.99009127
_cell_angle_beta   89.99851953
_cell_angle_gamma   120.00296767
_symmetry_Int_Tables_number   1
_chemical_formula_structural   H2O
_chemical_formula_sum   'H384 O192'
_cell_volume   6181.32491385
_cell_formula_units_Z   192
loop_
 _symmetry_equiv_pos_site_id
 _symmetry_equiv_pos_as_xyz
  1  'x, y, z'
loop_
 _atom_type_symbol
 _atom_type_oxidation_number
  H+  1.0
  O2-  -2.0
loop_
 _atom_site_type_symbol
 _atom_site_label
 _atom_site_symmetry_multiplicity
 _atom_site_fract_x
 _atom_site_fract_y
 _atom_site_fract_z
 _atom_site_occupancy
  H+  H0  1  0.89614262  0.76005403  0.17475734  1
  H+  H1  1  0.57705856  0.41491906  0.72455706  1
  H+  H2  1  0.87872514  0.39224855  0.15436522  1
  H+  H3  1  0.51993066  0.39305784  0.81945603  1
  H+  H4  1  0.85530392  0.86371351  0.51248141  1
  H+  H5  1  0.13044118  0.24195400  0.16227150  1
  H+  H6  1  0.01548056  0.87761209  0.82607327  1
  H+  H7  1  0.81669459  0.16342355  0.31157660  1
  H+  H8  1  0.50528441  0.14627380  0.34385525  1
  H+  H9  1  0.90127284  0.11043690  0.67351934  1
  H+  H10  1  0.53399325  0.64081716  1.00455953  1
  H+  H11  1  0.89456096  0.32085725  0.60643126  1
  H+  H12  1  0.63801583  0.37195228  0.65988229  1
  H+  H13  1  0.59370098  0.13838249  0.34253347  1
  H+  H14  1  0.92884787  0.59973851  0.94389478  1
  H+  H15  1  1.04514796  0.39338782  0.52849806  1
  H+  H16  1  0.13767271  0.84297503  0.17263856  1
  H+  H17  1  0.88860055  0.85733698  0.99346188  1
  H+  H18  1  0.63146607  0.57712661  0.17321610  1
  H+  H19  1  0.07551159  0.52623254  0.96480288  1
  H+  H20  1  0.40982159  0.31705194  0.08179900  1
  H+  H21  1  0.89867815  0.29092920  1.00244143  1
  H+  H22  1  0.13204808  0.40712951  0.43908521  1
  H+  H23  1  0.27644440  0.62459053  0.82736349  1
  H+  H24  1  0.13577994  0.15834706  0.16410848  1
  H+  H25  1  0.12392423  0.89540182  0.67222526  1
  H+  H26  1  0.36094456  0.71173591  0.01960920  1
  H+  H27  1  0.12131869  0.35370318  0.99707266  1
  H+  H28  1  0.36885939  0.69185000  0.33030138  1
  H+  H29  1  0.81789209  0.42458388  -0.03875618  1
  H+  H30  1  0.86822768  0.64176595  0.01628182  1
  H+  H31  1  0.88368157  0.84976870  0.83618210  1
  H+  H32  1  0.38966019  0.39923534  0.00929317  1
  H+  H33  1  0.77486258  0.87422749  0.00781435  1
  H+  H34  1  0.35153457  0.72974902  0.67399597  1
  H+  H35  1  0.87742500  0.09538548  0.51653005  1
  H+  H36  1  0.64012098  0.49313448  0.86274509  1
  H+  H37  1  0.48803814  0.11707372  0.84822153  1
  H+  H38  1  0.13550388  0.86674655  0.83883471  1
  H+  H39  1  0.86213859  0.62586240  0.68744233  1
  H+  H40  1  0.10768058  0.64101717  0.32965163  1
  H+  H41  1  0.80871075  0.41081965  0.44252442  1
  H+  H42  1  0.83567239  0.68720932  0.34640144  1
  H+  H43  1  0.99141102  0.11179605  0.15420758  1
  H+  H44  1  1.03320895  0.91811973  0.33178135  1
  H+  H45  1  0.26840400  0.37680922  0.82620310  1
  H+  H46  1  0.69558231  0.07990921  0.89552172  1
  H+  H47  1  0.07403307  0.12503832  0.82755105  1
  H+  H48  1  0.06689484  0.91267476  0.49604919  1
  H+  H49  1  0.46706962  0.60633083  0.49732329  1
  H+  H50  1  0.64500376  0.77498114  0.99847583  1
  H+  H51  1  0.92113581  0.11538905  0.30642332  1
  H+  H52  1  0.97784134  0.71184152  0.46171013  1
  H+  H53  1  0.29318115  0.14979707  0.47091344  1
  H+  H54  1  0.47652357  0.36565640  0.50564100  1
  H+  H55  1  0.03060407  0.13161735  0.66977632  1
  H+  H56  1  0.86596337  0.15662175  0.00770216  1
  H+  H57  1  0.83296620  0.90003033  0.75277507  1
  H+  H58  1  0.66100361  0.08387936  0.64975852  1
  H+  H59  1  0.50637411  0.11750200  0.51613544  1
  H+  H60  1  0.61233153  0.64660563  0.48740857  1
  H+  H61  1  0.85614354  0.99976974  0.00044707  1
  H+  H62  1  0.76996667  0.62823673  0.84218091  1
  H+  H63  1  0.85682370  0.38327723  0.68189209  1
  H+  H64  1  0.35936564  0.46594769  0.66867585  1
  H+  H65  1  0.51161670  0.62500834  0.82978186  1
  H+  H66  1  0.59269537  0.75712417  0.29287597  1
  H+  H67  1  0.39648616  0.12468139  0.66608247  1
  H+  H68  1  0.35434645  0.12060327  0.02056247  1
  H+  H69  1  0.63739171  0.28393002  0.67087608  1
  H+  H70  1  0.38647670  0.14921832  0.17655299  1
  H+  H71  1  0.86441405  0.72721952  0.01617227  1
  H+  H72  1  0.84566596  0.48133490  0.34596991  1
  H+  H73  1  0.07021856  0.40969507  0.28700537  1
  H+  H74  1  0.36529088  0.38762219  0.50086331  1
  H+  H75  1  0.13738637  0.36223809  0.66737255  1
  H+  H76  1  0.38827448  0.36643111  0.83820642  1
  H+  H77  1  0.73381848  0.61353585  0.67689635  1
  H+  H78  1  0.24349932  0.13488099  0.71157767  1
  H+  H79  1  0.23399652  0.86093929  0.17874642  1
  H+  H80  1  0.59224539  0.65169405  0.10230282  1
  H+  H81  1  0.15601733  0.12856685  0.47168432  1
  H+  H82  1  0.11719520  1.01249950  -0.01062120  1
  H+  H83  1  0.58092210  -0.03372153  0.33350055  1
  H+  H84  1  0.30588494  0.15201137  0.84017392  1
  H+  H85  1  0.91183742  0.57419397  0.27237799  1
  H+  H86  1  0.90898552  0.81432353  0.32064563  1
  H+  H87  1  0.16407789  0.06177213  0.18022704  1
  H+  H88  1  0.53361691  0.10323738  0.19442817  1
  H+  H89  1  -0.04055247  0.39000023  0.32364862  1
  H+  H90  1  0.34270490  0.59360648  0.34548235  1
  H+  H91  1  0.62909343  0.16801514  0.68575625  1
  H+  H92  1  0.88416870  0.76190397  0.84328945  1
  H+  H93  1  0.89252830  0.52966051  0.85033059  1
  H+  H94  1  0.22241168  0.83392674  0.50532362  1
  H+  H95  1  0.87289708  0.39678019  0.00109894  1
  H+  H96  1  0.11960146  0.90670483  0.33207840  1
  H+  H97  1  0.26548570  0.90076101  0.82355039  1
  H+  H98  1  0.61041626  0.12539359  0.83957843  1
  H+  H99  1  0.98008095  0.64856519  0.15309081  1
  H+  H100  1  0.97916412  0.62077973  0.84579191  1
  H+  H101  1  0.27128025  0.62560691  0.01181749  1
  H+  H102  1  0.18424879  0.51827056  0.52919794  1
  H+  H103  1  0.88842211  0.75897261  0.67655567  1
  H+  H104  1  0.63848220  0.85167574  0.82978385  1
  H+  H105  1  0.61913814  -0.00488612  0.50876617  1
  H+  H106  1  0.87345471  0.96804455  0.15308667  1
  H+  H107  1  0.03536808  0.36478991  0.50088823  1
  H+  H108  1  0.52511442  0.11814706  1.01429179  1
  H+  H109  1  0.71187743  0.34279844  1.00845916  1
  H+  H110  1  0.88633085  0.51644908  0.67129429  1
  H+  H111  1  0.12197407  0.23269021  0.66791313  1
  H+  H112  1  0.36240863  0.24395267  0.33106463  1
  H+  H113  1  0.66677143  0.09659432  0.29610971  1
  H+  H114  1  0.97757113  0.84969913  0.66885507  1
  H+  H115  1  0.85950718  0.62866101  0.84308919  1
  H+  H116  1  0.86331840  0.29286263  0.33053631  1
  H+  H117  1  -0.02767021  0.37137093  0.65408315  1
  H+  H118  1  0.59785615  0.10520046  0.52423465  1
  H+  H119  1  0.89634425  0.80381388  0.58006981  1
  H+  H120  1  0.59957618  0.23959505  0.15653267  1
  H+  H121  1  0.13880920  0.78598458  0.66080686  1
  H+  H122  1  0.74840291  0.36919575  0.50202836  1
  H+  H123  1  0.02146885  0.88093164  -0.00412946  1
  H+  H124  1  0.38259914  0.76409651  0.50662609  1
  H+  H125  1  0.89479973  0.76324715  0.51451748  1
  H+  H126  1  0.25845608  0.14029410  0.18883021  1
  H+  H127  1  0.84056602  0.88354047  0.30182504  1
  H+  H128  1  0.35554117  0.90639066  0.82035676  1
  H+  H129  1  0.48602674  0.83886886  0.85246178  1
  H+  H130  1  0.15347706  0.65126130  0.14868101  1
  H+  H131  1  0.78505133  0.12246745  0.16125588  1
  H+  H132  1  0.26485415  0.37905723  0.50542075  1
  H+  H133  1  0.39743356  0.12241790  0.50741563  1
  H+  H134  1  0.53130897  0.14958884  0.68350967  1
  H+  H135  1  0.39272166  0.15137161  0.83775739  1
  H+  H136  1  0.14097335  0.02939736  0.33263471  1
  H+  H137  1  0.12194797  0.38286824  0.83202992  1
  H+  H138  1  0.60963871  0.72335143  0.82368776  1
  H+  H139  1  0.67180867  0.82167946  0.57538424  1
  H+  H140  1  0.38517858  0.59727183  0.83838447  1
  H+  H141  1  0.38755636  0.12820438  0.32571915  1
  H+  H142  1  0.23480739  0.61896000  0.31657025  1
  H+  H143  1  0.62398816  0.60330788  0.33516676  1
  H+  H144  1  0.49741876  0.59189936  0.32417775  1
  H+  H145  1  0.47998846  0.84844737  1.01171031  1
  H+  H146  1  0.36492745  0.87745954  1.01160727  1
  H+  H147  1  0.22164937  0.62388990  0.64740680  1
  H+  H148  1  0.40255371  0.28552708  0.84485556  1
  H+  H149  1  0.72865354  0.61216022  1.00137693  1
  H+  H150  1  0.53500400  0.62619249  0.16121733  1
  H+  H151  1  0.10325986  0.21474421  1.00579352  1
  H+  H152  1  0.38330161  1.03909783  0.34339010  1
  H+  H153  1  0.28028293  0.88479378  0.00365723  1
  H+  H154  1  0.16580180  0.04541491  0.46823439  1
  H+  H155  1  0.88606041  1.01198701  0.52086373  1
  H+  H156  1  0.15603699  0.04536441  0.71570382  1
  H+  H157  1  1.02797656  0.38781171  1.02247595  1
  H+  H158  1  0.12945501  0.14451500  0.69462059  1
  H+  H159  1  0.77957653  0.88533751  0.15530997  1
  H+  H160  1  0.37154783  0.70303633  0.82908593  1
  H+  H161  1  0.39242362  0.82153626  0.86499527  1
  H+  H162  1  0.27116867  0.62285240  0.49363721  1
  H+  H163  1  0.39693977  0.52551361  -0.00411553  1
  H+  H164  1  0.62193492  0.35914880  0.32507875  1
  H+  H165  1  0.65157531  0.86230765  0.64095462  1
  H+  H166  1  0.16243124  0.50510865  0.44378525  1
  H+  H167  1  0.88320407  0.66711906  0.43538288  1
  H+  H168  1  0.60508390  0.23774162  0.33744777  1
  H+  H169  1  0.02147475  0.86490342  0.14965745  1
  H+  H170  1  0.81291977  0.53028451  0.13154747  1
  H+  H171  1  0.31147419  0.45311600  0.33054871  1
  H+  H172  1  0.11637544  0.94287830  0.14804865  1
  H+  H173  1  0.39435704  0.01818471  0.99956779  1
  H+  H174  1  0.62518638  0.44160350  0.48026799  1
  H+  H175  1  0.46026193  0.84039161  0.31770621  1
  H+  H176  1  0.85612283  0.61191946  0.34453512  1
  H+  H177  1  0.38125324  0.36495785  0.36674979  1
  H+  H178  1  0.14690207  0.78159636  0.99101962  1
  H+  H179  1  0.14087352  0.55111967  0.29508175  1
  H+  H180  1  0.02690990  0.13643308  0.50095405  1
  H+  H181  1  0.11984632  0.46968176  0.02746101  1
  H+  H182  1  0.87647098  0.40028883  0.83648141  1
  H+  H183  1  0.11329128  0.69346357  0.48401033  1
  H+  H184  1  0.60667534  0.96312226  0.84022862  1
  H+  H185  1  0.15934043  0.36704573  0.18585504  1
  H+  H186  1  0.84236010  0.20574878  0.48598699  1
  H+  H187  1  0.65785598  0.56134390  0.23774078  1
  H+  H188  1  0.09442909  0.96049671  0.64664339  1
  H+  H189  1  0.64196872  0.52479703  -0.00259135  1
  H+  H190  1  0.92294669  0.07914940  0.61170185  1
  H+  H191  1  0.78900419  0.16989077  0.82368359  1
  H+  H192  1  0.08953310  0.44240761  0.35751306  1
  H+  H193  1  0.50588174  0.38116863  0.34182637  1
  H+  H194  1  0.35980922  0.47938563  0.49696366  1
  H+  H195  1  0.61512197  0.32636506  0.51166862  1
  H+  H196  1  0.11339867  0.11059403  -0.00260159  1
  H+  H197  1  0.37297804  0.23545941  0.67817834  1
  H+  H198  1  0.36869840  0.89814320  0.66967909  1
  H+  H199  1  0.47210698  0.59287429  0.65522685  1
  H+  H200  1  0.11275890  0.49890725  0.65615462  1
  H+  H201  1  0.14316871  0.27333693  0.51166048  1
  H+  H202  1  0.88462463  0.23182251  0.67906931  1
  H+  H203  1  0.63435166  0.97314821  0.60684887  1
  H+  H204  1  0.39577903  0.03516660  0.66151227  1
  H+  H205  1  0.61594777  0.62979003  0.68138246  1
  H+  H206  1  0.97638581  0.60920173  0.66306511  1
  H+  H207  1  0.41725065  0.33648038  0.56622220  1
  H+  H208  1  0.72462623  0.84657782  0.82636108  1
  H+  H209  1  0.35816830  0.46648224  0.82742400  1
  H+  H210  1  0.36487890  0.97357618  0.50921649  1
  H+  H211  1  0.03649927  0.65513217  0.01418902  1
  H+  H212  1  0.87970626  0.01481364  0.29895232  1
  H+  H213  1  0.75253668  0.39092409  0.34332561  1
  H+  H214  1  0.70717130  0.59450980  0.34321802  1
  H+  H215  1  0.99348115  0.37914916  0.84654797  1
  H+  H216  1  0.29954103  0.38664560  0.03386955  1
  H+  H217  1  0.60779219  0.71340183  0.67457336  1
  H+  H218  1  0.73687859  0.85209328  0.64602653  1
  H+  H219  1  0.09743657  0.92474632  0.42709803  1
  H+  H220  1  0.11929585  0.26117882  0.83456494  1
  H+  H221  1  0.47591894  0.36637536  0.65543389  1
  H+  H222  1  0.70235241  0.07853730  0.53336277  1
  H+  H223  1  1.04923441  0.14441978  0.33662628  1
  H+  H224  1  0.14147107  0.83948525  0.49093109  1
  H+  H225  1  0.14580574  0.86973543  0.98676150  1
  H+  H226  1  0.12477748  0.61567772  0.99662026  1
  H+  H227  1  0.88583548  0.84415664  0.16528893  1
  H+  H228  1  0.32964706  0.40928154  0.73112270  1
  H+  H229  1  0.86672471  -0.03713684  0.66570404  1
  H+  H230  1  0.11374097  0.60570151  0.48283633  1
  H+  H231  1  0.34973128  0.90647141  0.35503673  1
  H+  H232  1  0.61889616  0.19658316  0.01115864  1
  H+  H233  1  0.86240845  0.49484443  0.52124895  1
  H+  H234  1  0.48836229  0.37549599  0.99233162  1
  H+  H235  1  0.87216378  0.12402356  0.14538043  1
  H+  H236  1  0.84435598  0.02148523  0.85238438  1
  H+  H237  1  0.65006175  0.86635312  0.99863810  1
  H+  H238  1  1.03180672  0.35090705  0.18306373  1
  H+  H239  1  0.11442219  0.73014478  0.82461809  1
  H+  H240  1  0.42098244  0.56627839  0.23767991  1
  H+  H241  1  0.71588793  0.61249785  0.51090487  1
  H+  H242  1  0.37929365  0.60964622  0.50092615  1
  H+  H243  1  0.59429229  0.94064207  0.06566713  1
  H+  H244  1  0.38294849  0.35985223  0.65825915  1
  H+  H245  1  0.36846179  0.88600381  0.50110106  1
  H+  H246  1  0.73350022  0.36167094  0.85501872  1
  H+  H247  1  -0.00618446  0.13644390  0.83359802  1
  H+  H248  1  0.86183274  0.14744168  0.84062947  1
  H+  H249  1  0.62210282  0.54565998  0.53055136  1
  H+  H250  1  0.14445722  0.52671148  0.84182819  1
  H+  H251  1  0.20554318  0.35287752  0.97897696  1
  H+  H252  1  0.90520934  0.60306653  0.51458909  1
  H+  H253  1  0.36005270  0.80227433  0.30224754  1
  H+  H254  1  0.38590682  0.48210375  0.17183990  1
  H+  H255  1  0.12334242  0.24116947  0.34549583  1
  H+  H256  1  0.61279003  0.47884312  0.66885224  1
  H+  H257  1  0.39173430  0.03578480  0.84270452  1
  H+  H258  1  0.38391995  0.60657591  0.18727612  1
  H+  H259  1  0.23674750  0.12835899  0.33525905  1
  H+  H260  1  0.73092703  0.85617651  0.50491541  1
  H+  H261  1  0.89917183  0.23572563  0.18938288  1
  H+  H262  1  0.84119373  0.36967222  0.17575409  1
  H+  H263  1  0.97858901  0.60346067  0.33154794  1
  H+  H264  1  0.84452377  0.33491254  0.50989158  1
  H+  H265  1  0.65125511  0.01500792  0.18357835  1
  H+  H266  1  0.64762530  0.27097686  0.85402957  1
  H+  H267  1  0.59786408  0.46400932  0.34511583  1
  H+  H268  1  0.89082592  0.96480715  0.80240364  1
  H+  H269  1  0.57704983  0.16870468  0.10462698  1
  H+  H270  1  0.38514352  0.76650469  0.15973653  1
  H+  H271  1  0.47874867  0.86610036  0.65605760  1
  H+  H272  1  0.63520838  0.76804177  0.49860940  1
  H+  H273  1  0.93015701  0.33178865  0.51347330  1
  H+  H274  1  0.11149022  0.64382972  0.66177588  1
  H+  H275  1  0.70529476  0.39719954  0.16703116  1
  H+  H276  1  0.60979216  0.20514380  0.51873030  1
  H+  H277  1  0.62158883  0.63832675  0.00346538  1
  H+  H278  1  0.17394879  0.10537222  0.81789107  1
  H+  H279  1  0.38565647  0.23487566  0.15334255  1
  H+  H280  1  0.58903721  0.88085176  0.32376450  1
  H+  H281  1  0.17747598  0.37689938  0.33546848  1
  H+  H282  1  0.66190238  0.33917082  0.26673185  1
  H+  H283  1  0.10915273  0.01291392  0.83920204  1
  H+  H284  1  0.60915769  0.37314837  1.01395767  1
  H+  H285  1  0.21788666  0.88411893  0.33495167  1
  H+  H286  1  0.52052499  0.88019081  0.15250702  1
  H+  H287  1  0.36255789  0.88636404  0.16011718  1
  H+  H288  1  0.10527637  0.68234644  0.06901999  1
  H+  H289  1  0.32718673  0.92996949  0.41821972  1
  H+  H290  1  0.09343265  0.16743261  0.06933184  1
  H+  H291  1  0.05598160  0.46637059  0.71355447  1
  H+  H292  1  0.72043620  0.02157690  0.22756389  1
  H+  H293  1  0.07671943  0.91553640  0.76758946  1
  H+  H294  1  0.66177378  0.31797030  0.94570660  1
  H+  H295  1  0.58873598  0.04450787  1.01537097  1
  H+  H296  1  0.83144294  0.65377455  0.74830027  1
  H+  H297  1  0.85862979  0.38520012  0.34010220  1
  H+  H298  1  0.86498542  0.87100572  0.66563150  1
  H+  H299  1  0.42826188  0.80804204  0.95222808  1
  H+  H300  1  0.32814939  0.91312558  0.10391840  1
  H+  H301  1  0.08649002  0.40117841  0.12488307  1
  H+  H302  1  0.15089190  0.31696894  0.89542347  1
  H+  H303  1  0.84932936  0.91006923  0.45255745  1
  H+  H304  1  0.93100872  0.07719707  0.21120960  1
  H+  H305  1  0.65514424  0.31863790  0.57665685  1
  H+  H306  1  0.90388746  0.29291480  0.84916458  1
  H+  H307  1  0.80107065  0.16949410  0.38158552  1
  H+  H308  1  0.17223230  0.83969461  0.89651930  1
  H+  H309  1  0.16772912  0.84910711  0.27131734  1
  H+  H310  1  0.16990385  0.58910574  0.89855318  1
  H+  H311  1  0.77124024  0.38972592  0.68136397  1
  H+  H312  1  0.57437900  0.90842699  0.42348190  1
  H+  H313  1  0.50736549  0.67278432  0.36097516  1
  H+  H314  1  0.36218088  0.43203465  0.11049191  1
  H+  H315  1  0.11397098  0.64148455  0.82515699  1
  H+  H316  1  0.22954770  0.87429926  0.66153199  1
  H+  H317  1  0.40941641  0.36275142  0.14260957  1
  H+  H318  1  0.75357157  0.15139508  0.67310530  1
  H+  H319  1  0.67396715  0.98034150  0.67251883  1
  H+  H320  1  0.57352894  0.91648519  0.77614683  1
  H+  H321  1  0.87707453  0.06893815  0.91516355  1
  H+  H322  1  0.07204581  0.63743855  0.39832906  1
  H+  H323  1  0.32194688  0.13754860  0.08101879  1
  H+  H324  1  0.85496463  0.66280856  0.10618320  1
  H+  H325  1  0.62371282  0.44324212  0.19139137  1
  H+  H326  1  0.35054893  0.18996376  0.39213767  1
  H+  H327  1  0.60948868  0.87809228  0.48036359  1
  H+  H328  1  0.41347667  0.56667908  0.59571798  1
  H+  H329  1  0.22888494  0.36359060  0.66804365  1
  H+  H330  1  0.80194593  0.45718707  0.08616562  1
  H+  H331  1  0.57153846  0.65421467  0.76458867  1
  H+  H332  1  0.78314007  0.89875563  0.34844438  1
  H+  H333  1  0.20158928  0.34650297  0.27392446  1
  H+  H334  1  0.42601302  0.35203289  0.93450509  1
  H+  H335  1  0.46262765  0.05903164  0.24519669  1
  H+  H336  1  0.41837136  0.09455706  0.57445411  1
  H+  H337  1  0.25193297  0.37035050  0.18104262  1
  H+  H338  1  0.91396153  0.82279922  0.93430257  1
  H+  H339  1  0.41730374  0.42088707  0.30914812  1
  H+  H340  1  0.36309362  0.18620382  0.74205037  1
  H+  H341  1  0.08416128  0.66799953  0.72571823  1
  H+  H342  1  0.84137650  0.18568768  0.06732581  1
  H+  H343  1  0.37899140  0.23574791  0.48905468  1
  H+  H344  1  0.08300633  0.90877951  0.05353528  1
  H+  H345  1  0.89319927  0.17631614  0.44461505  1
  H+  H346  1  0.17108436  0.59363938  0.58283970  1
  H+  H347  1  0.92755305  0.84787811  0.25288445  1
  H+  H348  1  0.60542419  0.02392957  0.92444869  1
  H+  H349  1  0.41789888  0.83480690  0.59824807  1
  H+  H350  1  0.78832785  0.02678366  0.98561656  1
  H+  H351  1  0.83712572  0.42315508  0.77892969  1
  H+  H352  1  0.10021042  0.41846124  0.77320481  1
  H+  H353  1  0.56901846  0.38657114  0.42583536  1
  H+  H354  1  0.47178989  0.85244025  0.50259419  1
  H+  H355  1  0.17161014  0.09902843  0.58348254  1
  H+  H356  1  0.90416488  0.56195793  0.58776416  1
  H+  H357  1  0.31655292  0.64493577  0.10923871  1
  H+  H358  1  0.56962385  0.06222412  0.27445685  1
  H+  H359  1  0.07571547  0.17822746  0.43850005  1
  H+  H360  1  0.17306841  0.33360109  0.57125752  1
  H+  H361  1  0.83892782  0.90283902  0.06544536  1
  H+  H362  1  0.42389848  0.82034450  0.21827558  1
  H+  H363  1  0.57967840  0.66749996  0.42462503  1
  H+  H364  1  0.38920338  0.60898922  0.99431087  1
  H+  H365  1  0.18056374  0.10035799  0.27161677  1
  H+  H366  1  0.33572210  0.92999895  0.72682321  1
  H+  H367  1  0.13757419  0.72841677  0.16408255  1
  H+  H368  1  0.57419534  0.40386876  0.06913889  1
  H+  H369  1  0.68352130  0.60229219  0.61445872  1
  H+  H370  1  0.90803619  0.31607221  0.22393591  1
  H+  H371  1  0.60935690  0.84837539  0.19470226  1
  H+  H372  1  0.22420818  0.61741967  0.21452656  1
  H+  H373  1  0.93623227  0.35226574  0.94346581  1
  H+  H374  1  0.14056531  0.07810104  0.92913795  1
  H+  H375  1  0.41890423  0.57458187  0.90017064  1
  H+  H376  1  0.32039020  0.66087830  0.72714441  1
  H+  H377  1  0.33892160  0.66313168  0.43585771  1
  H+  H378  1  0.68098645  0.84114633  0.28158010  1
  H+  H379  1  0.17607274  0.06036284  0.58983308  1
  H+  H380  1  0.59076816  0.16674556  0.77989070  1
  H+  H381  1  0.90195938  0.54024110  0.00185047  1
  H+  H382  1  0.85899350  0.17809268  0.74046769  1
  H+  H383  1  0.42528009  0.08394706  0.94396559  1
  O2-  O384  1  0.10171884  0.18184202  0.14552990  1
  O2-  O385  1  0.08440791  0.17253330  0.48309720  1
  O2-  O386  1  0.04953165  0.16019727  0.81262478  1
  O2-  O387  1  0.08987282  0.39574067  0.16922707  1
  O2-  O388  1  0.14920163  0.45725731  0.41332873  1
  O2-  O389  1  0.09697290  0.41968994  0.81753742  1
  O2-  O390  1  0.11336971  0.67286159  0.14143754  1
  O2-  O391  1  0.08015756  0.63273729  0.46970839  1
  O2-  O392  1  0.08168862  0.66942779  0.81038272  1
  O2-  O393  1  0.07924483  0.88690837  0.13030522  1
  O2-  O394  1  0.11652446  0.92848807  0.47022487  1
  O2-  O395  1  0.07682736  0.91474054  0.81235855  1
  O2-  O396  1  0.34918117  0.17268388  0.16814694  1
  O2-  O397  1  0.35850566  0.17904042  0.46924455  1
  O2-  O398  1  0.36240582  0.18248415  0.82131605  1
  O2-  O399  1  0.35769203  0.42221097  0.15518024  1
  O2-  O400  1  0.32894113  0.41391305  0.48769024  1
  O2-  O401  1  0.32796517  0.40725412  0.80990760  1
  O2-  O402  1  0.31905609  0.65418489  0.15459617  1
  O2-  O403  1  0.33913340  0.66457780  0.48090270  1
  O2-  O404  1  0.33525906  0.64593751  0.81028070  1
  O2-  O405  1  0.32663200  0.91135131  0.14900810  1
  O2-  O406  1  0.33675009  0.91655181  0.48961031  1
  O2-  O407  1  0.32628051  0.93628090  0.80643473  1
  O2-  O408  1  0.56152967  0.17900844  0.14588967  1
  O2-  O409  1  0.57471489  0.14150321  0.50690022  1
  O2-  O410  1  0.58864240  0.16291824  0.82536265  1
  O2-  O411  1  0.59179543  0.37768046  0.19217524  1
  O2-  O412  1  0.57563528  0.38537591  0.47217002  1
  O2-  O413  1  0.57749948  0.41392217  0.79893802  1
  O2-  O414  1  0.59254423  0.64131042  0.14650564  1
  O2-  O415  1  0.58249783  0.67541866  0.46976087  1
  O2-  O416  1  0.57276823  0.65817748  0.81096646  1
  O2-  O417  1  0.58393517  0.92187094  0.14172058  1
  O2-  O418  1  0.57847744  0.90822667  0.46922193  1
  O2-  O419  1  0.58131198  0.90616665  0.81851991  1
  O2-  O420  1  0.84200701  0.15775211  0.14125148  1
  O2-  O421  1  0.83607590  0.15528925  0.46208578  1
  O2-  O422  1  0.84986535  0.18956135  0.81838014  1
  O2-  O423  1  0.77528200  0.46989245  0.12023457  1
  O2-  O424  1  0.80962925  0.40390360  0.48758074  1
  O2-  O425  1  0.84216105  0.42744343  0.82403688  1
  O2-  O426  1  0.87565514  0.65697625  0.14840754  1
  O2-  O427  1  0.91754121  0.68422666  0.47400996  1
  O2-  O428  1  0.82796977  0.65720790  0.82533300  1
  O2-  O429  1  0.83921020  0.90451489  0.14465929  1
  O2-  O430  1  0.83489313  0.90447996  0.49569220  1
  O2-  O431  1  0.84004844  0.90812301  0.79795798  1
  O2-  O432  1  0.19476387  0.11641750  0.20128662  1
  O2-  O433  1  0.19329021  0.10659218  0.45681221  1
  O2-  O434  1  0.13466418  0.07484322  0.85173257  1
  O2-  O435  1  0.19272364  0.33785607  0.19869260  1
  O2-  O436  1  0.17848075  0.33419298  0.52633077  1
  O2-  O437  1  0.15827932  0.32112402  0.85051802  1
  O2-  O438  1  0.22670508  0.61335391  0.16903187  1
  O2-  O439  1  0.18619122  0.56638779  0.50755074  1
  O2-  O440  1  0.17333527  0.58850016  0.85352199  1
  O2-  O441  1  0.17357722  0.82670015  0.19676024  1
  O2-  O442  1  0.15929637  0.79925599  0.50567541  1
  O2-  O443  1  0.17040414  0.84005553  0.85057192  1
  O2-  O444  1  0.50998782  0.05572338  0.22611389  1
  O2-  O445  1  0.42208507  0.08960655  0.52853902  1
  O2-  O446  1  0.42703449  0.09241107  0.86263493  1
  O2-  O447  1  0.43015090  0.32593470  0.12378861  1
  O2-  O448  1  0.41643726  0.34002908  0.52026082  1
  O2-  O449  1  0.42748883  0.34739773  0.85552367  1
  O2-  O450  1  0.42382873  0.58494080  0.19417154  1
  O2-  O451  1  0.40808192  0.57435941  0.51346570  1
  O2-  O452  1  0.41979103  0.57132163  0.85429632  1
  O2-  O453  1  0.42358422  0.82671721  0.17333032  1
  O2-  O454  1  0.41436140  0.82573358  0.52177851  1
  O2-  O455  1  0.43011842  0.79828293  0.87257574  1
  O2-  O456  1  0.70039237  0.05738099  0.20877840  1
  O2-  O457  1  0.64099675  0.04159942  0.54124828  1
  O2-  O458  1  0.63532224  0.04829795  0.88382394  1
  O2-  O459  1  0.65774072  0.35259639  0.19348199  1
  O2-  O460  1  0.65063308  0.30466698  0.53124108  1
  O2-  O461  1  0.67614899  0.32801165  0.87366571  1
  O2-  O462  1  0.65780837  0.54678885  0.19479959  1
  O2-  O463  1  0.66538815  0.60656114  0.53198534  1
  O2-  O464  1  0.62898915  0.50334102  0.82082438  1
  O2-  O465  1  0.62920233  0.87326812  0.15363686  1
  O2-  O466  1  0.66894801  0.82668941  0.51953173  1
  O2-  O467  1  0.66348443  0.81438597  0.83707818  1
  O2-  O468  1  0.92978652  0.07463498  0.16585020  1
  O2-  O469  1  0.91240992  0.07276760  0.53448804  1
  O2-  O470  1  0.88554167  0.07743405  0.86910636  1
  O2-  O471  1  0.93513363  0.28098982  0.22026219  1
  O2-  O472  1  0.86909472  0.29898596  0.52496700  1
  O2-  O473  1  0.93457967  0.35315659  0.86411084  1
  O2-  O474  1  0.96643085  0.68881644  0.13275607  1
  O2-  O475  1  0.90193305  0.55404805  0.53940892  1
  O2-  O476  1  0.92113094  0.59069583  0.86519919  1
  O2-  O477  1  0.92236522  0.82264401  0.18368258  1
  O2-  O478  1  0.87350520  0.79570036  0.53776963  1
  O2-  O479  1  0.91640705  0.82437694  0.85421509  1
  O2-  O480  1  0.17576976  0.09531994  0.31799420  1
  O2-  O481  1  0.18164986  0.10684232  0.72587222  1
  O2-  O482  1  0.13930685  0.07428390  0.97444695  1
  O2-  O483  1  0.20886464  0.34982811  0.31978832  1
  O2-  O484  1  0.16576628  0.33079937  0.65360428  1
  O2-  O485  1  0.14353485  0.31962294  0.97421133  1
  O2-  O486  1  0.18662346  0.61114819  0.28955909  1
  O2-  O487  1  0.16250518  0.59405745  0.62802206  1
  O2-  O488  1  0.13361685  0.56856456  0.97741290  1
  O2-  O489  1  0.16129667  0.86046008  0.31512681  1
  O2-  O490  1  0.16706480  0.84848921  0.65360788  1
  O2-  O491  1  0.17720982  0.84043696  0.97246149  1
  O2-  O492  1  0.41863491  0.09539981  0.32213612  1
  O2-  O493  1  0.42786742  0.09698721  0.64814374  1
  O2-  O494  1  0.42712369  0.08040713  0.98880914  1
  O2-  O495  1  0.40759757  0.36462598  0.32807284  1
  O2-  O496  1  0.41464006  0.33165779  0.64141610  1
  O2-  O497  1  0.42757869  0.35407937  0.97976220  1
  O2-  O498  1  0.42895740  0.51769328  0.29986099  1
  O2-  O499  1  0.41305444  0.55760725  0.64003314  1
  O2-  O500  1  0.42118831  0.58279855  0.97589646  1
  O2-  O501  1  0.40970623  0.79568092  0.29428834  1
  O2-  O502  1  0.41896623  0.84183522  0.64374246  1
  O2-  O503  1  0.42090112  0.81267252  0.99647415  1
  O2-  O504  1  0.60849338  0.07029864  0.31265208  1
  O2-  O505  1  0.70015078  0.14513003  0.65454616  1
  O2-  O506  1  0.56674937  -0.01088499  0.99164783  1
  O2-  O507  1  0.65785086  0.33308179  0.31269287  1
  O2-  O508  1  0.66917601  0.34021719  0.64877767  1
  O2-  O509  1  0.65358144  0.31138353  0.99158075  1
  O2-  O510  1  0.64917766  0.56734255  0.32552771  1
  O2-  O511  1  0.67503416  0.58934582  0.65817727  1
  O2-  O512  1  0.67187980  0.58380267  0.98106683  1
  O2-  O513  1  0.61846046  0.81730723  0.27860743  1
  O2-  O514  1  0.67474918  0.82307418  0.62990169  1
  O2-  O515  1  0.68039864  0.83662457  0.98554664  1
  O2-  O516  1  0.93054607  0.07127417  0.28850164  1
  O2-  O517  1  0.92839604  0.07739484  0.65700017  1
  O2-  O518  1  0.85027759  0.04960029  0.98378212  1
  O2-  O519  1  0.89270171  0.35634912  0.32018954  1
  O2-  O520  1  0.90937152  0.33061800  0.65023186  1
  O2-  O521  1  0.93292398  0.35389278  0.98873594  1
  O2-  O522  1  0.91174191  0.57420205  0.31671726  1
  O2-  O523  1  0.91302158  0.57522319  0.65158108  1
  O2-  O524  1  0.93104495  0.60140928  0.98929147  1
  O2-  O525  1  0.92693383  0.86624224  0.29694532  1
  O2-  O526  1  0.91617415  0.81716910  0.65659650  1
  O2-  O527  1  0.91853350  0.82565681  0.97941127  1
  O2-  O528  1  0.08193371  0.15748614  0.02457804  1
  O2-  O529  1  0.07134034  0.19331657  0.36425837  1
  O2-  O530  1  0.09635758  0.16711986  0.66935140  1
  O2-  O531  1  0.08807969  0.40816110  0.03767307  1
  O2-  O532  1  0.05579361  0.43850398  0.31867333  1
  O2-  O533  1  0.07670309  0.44412859  0.68129430  1
  O2-  O534  1  0.09919731  0.68192062  0.02297990  1
  O2-  O535  1  0.06263982  0.64394770  0.35322663  1
  O2-  O536  1  0.07793157  0.66858191  0.68084453  1
  O2-  O537  1  0.08371677  0.91684769  0.00861463  1
  O2-  O538  1  0.09128305  0.94237414  0.34969924  1
  O2-  O539  1  0.08999221  0.92782992  0.68330965  1
  O2-  O540  1  0.31139353  0.13366932  0.03728457  1
  O2-  O541  1  0.33820312  0.18495954  0.34711621  1
  O2-  O542  1  0.34741086  0.17743756  0.69807200  1
  O2-  O543  1  0.36009011  0.42939577  0.03231259  1
  O2-  O544  1  0.36165068  0.50857664  0.34322958  1
  O2-  O545  1  0.32534223  0.40489019  0.68578827  1
  O2-  O546  1  0.32750334  0.64909740  0.03110333  1
  O2-  O547  1  0.32882115  0.64005493  0.35353514  1
  O2-  O548  1  0.31168622  0.66916420  0.68400411  1
  O2-  O549  1  0.33847290  0.91229210  0.02253396  1
  O2-  O550  1  0.32409645  0.93800709  0.37262916  1
  O2-  O551  1  0.33941989  0.93061101  0.68171068  1
  O2-  O552  1  0.58568682  0.13825676  0.02879246  1
  O2-  O553  1  0.57117781  0.17834046  0.35754217  1
  O2-  O554  1  0.58830906  0.18476557  0.70347155  1
  O2-  O555  1  0.58482418  0.41067040  0.02539754  1
  O2-  O556  1  0.56657543  0.40108955  0.35532612  1
  O2-  O557  1  0.57929948  0.41652435  0.67858550  1
  O2-  O558  1  0.59370915  0.67075841  0.01979568  1
  O2-  O559  1  0.54600878  0.65398566  0.34506677  1
  O2-  O560  1  0.57930184  0.65573556  0.69260923  1
  O2-  O561  1  0.60031511  0.93737521  0.02011963  1
  O2-  O562  1  0.55997727  0.90615984  0.34783904  1
  O2-  O563  1  0.62846220  0.94084776  0.64517370  1
  O2-  O564  1  0.84625695  0.19533084  0.02246732  1
  O2-  O565  1  0.79757284  0.19111169  0.34081614  1
  O2-  O566  1  0.85705357  0.17180178  0.69542509  1
  O2-  O567  1  0.83655966  0.42559382  0.00306224  1
  O2-  O568  1  0.81142109  0.42114006  0.36342024  1
  O2-  O569  1  0.83136079  0.41759800  0.69764568  1
  O2-  O570  1  0.83603029  0.66837000  0.03412528  1
  O2-  O571  1  0.82355879  0.63541582  0.36842767  1
  O2-  O572  1  0.83387401  0.65773531  0.70280099  1
  O2-  O573  1  0.83847914  0.90614765  0.02033548  1
  O2-  O574  1  0.79913246  0.90531833  0.30562150  1
  O2-  O575  1  0.83029897  0.90012070  0.67456156  1
