# generated using pymatgen
data_H2O
_symmetry_space_group_name_H-M   'P 1'
_cell_length_a   17.98466725
_cell_length_b   17.98643820
_cell_length_c   22.00503409
_cell_angle_alpha   90.03789503
_cell_angle_beta   89.96540236
_cell_angle_gamma   119.98134224
_symmetry_Int_Tables_number   1
_chemical_formula_structural   H2O
_chemical_formula_sum   'H384 O192'
_cell_volume   6165.69102830
_cell_formula_units_Z   192
loop_
 _symmetry_equiv_pos_site_id
 _symmetry_equiv_pos_as_xyz
  1  'x, y, z'
loop_
 _atom_type_symbol
 _atom_type_oxidation_number
  H+  1.0
  O2-  -2.0
loop_
 _atom_site_type_symbol
 _atom_site_label
 _atom_site_symmetry_multiplicity
 _atom_site_fract_x
 _atom_site_fract_y
 _atom_site_fract_z
 _atom_site_occupancy
  H+  H0  1  0.01592767  0.63085333  0.33803442  1
  H+  H1  1  0.62412793  0.34359380  0.66580537  1
  H+  H2  1  -0.05216742  0.83757578  0.32142079  1
  H+  H3  1  0.27064560  0.99495350  0.37865143  1
  H+  H4  1  0.52148822  0.88266942  0.49934709  1
  H+  H5  1  0.35873634  0.13205045  0.82741453  1
  H+  H6  1  0.12713221  0.85961824  0.16757499  1
  H+  H7  1  0.32506588  0.40581555  0.39890139  1
  H+  H8  1  0.86082436  0.39711050  0.02487251  1
  H+  H9  1  0.88466785  0.86452703  0.50724521  1
  H+  H10  1  0.82830026  0.26343219  0.30345665  1
  H+  H11  1  0.11503956  0.47531927  0.13913071  1
  H+  H12  1  0.76003208  0.64033538  0.48445595  1
  H+  H13  1  0.69376858  0.09641144  0.17744107  1
  H+  H14  1  0.96557095  0.58968567  0.15382377  1
  H+  H15  1  0.22865803  0.36180785  0.50446360  1
  H+  H16  1  0.63350039  0.26944490  0.85073405  1
  H+  H17  1  0.27770616  0.39050508  0.16042267  1
  H+  H18  1  0.67366467  0.91684917  0.65902192  1
  H+  H19  1  0.21399330  0.13505104  0.96617455  1
  H+  H20  1  0.13224107  0.11021856  0.81873624  1
  H+  H21  1  0.47444355  0.35741398  -0.00487321  1
  H+  H22  1  0.53076858  0.14058181  0.83623025  1
  H+  H23  1  0.85591831  0.96633638  0.33281809  1
  H+  H24  1  0.22385579  0.62712843  0.32377384  1
  H+  H25  1  0.89332245  0.53379903  0.10538412  1
  H+  H26  1  0.10050698  0.63380380  0.66826334  1
  H+  H27  1  0.27615284  0.88722209  0.50508779  1
  H+  H28  1  0.58185408  0.72035394  0.63175029  1
  H+  H29  1  0.65482972  0.03386673  0.84171056  1
  H+  H30  1  0.60973741  -0.02720540  0.49867480  1
  H+  H31  1  0.62803631  0.36115636  0.32787689  1
  H+  H32  1  0.84726448  0.43256287  0.17292466  1
  H+  H33  1  0.35907726  0.14167431  0.16662048  1
  H+  H34  1  0.33891137  0.16615900  0.07775564  1
  H+  H35  1  0.39078419  0.28366921  0.17157123  1
  H+  H36  1  0.08677457  0.42346941  0.39660270  1
  H+  H37  1  0.92761557  0.80047548  0.66133445  1
  H+  H38  1  0.38786320  0.52564774  0.17780398  1
  H+  H39  1  0.62677472  0.36041768  0.84939470  1
  H+  H40  1  0.46650792  0.34917803  0.50622633  1
  H+  H41  1  0.26622676  0.88828794  0.16014711  1
  H+  H42  1  0.52470804  0.13996787  0.50119151  1
  H+  H43  1  0.37282562  -0.01847128  1.00992447  1
  H+  H44  1  0.66287546  0.57142688  0.90086515  1
  H+  H45  1  0.88802281  0.97721690  0.01249258  1
  H+  H46  1  0.83806246  0.17985971  0.34421163  1
  H+  H47  1  0.43083468  0.85856637  0.66848608  1
  H+  H48  1  0.09200958  0.63871292  0.21880991  1
  H+  H49  1  0.27111956  0.14549644  0.16100736  1
  H+  H50  1  1.02357439  0.88422129  0.83126959  1
  H+  H51  1  0.49703580  0.84857556  0.00859368  1
  H+  H52  1  0.38945234  0.86522490  0.50531826  1
  H+  H53  1  0.36125808  0.72368708  0.33756910  1
  H+  H54  1  0.87669386  0.14002431  0.98673008  1
  H+  H55  1  0.88978100  0.28878202  1.02496936  1
  H+  H56  1  0.35591292  0.22114224  0.67510750  1
  H+  H57  1  0.00060505  0.62061968  0.49748365  1
  H+  H58  1  0.85292839  0.14971630  0.76185864  1
  H+  H59  1  0.52632789  0.63536310  0.17653356  1
  H+  H60  1  0.39533554  0.02589259  0.84707518  1
  H+  H61  1  0.62984308  0.35931247  0.17422172  1
  H+  H62  1  0.41858701  0.03311870  0.32082854  1
  H+  H63  1  0.87277434  0.37144102  0.80929748  1
  H+  H64  1  0.14661441  0.83920306  0.55286913  1
  H+  H65  1  0.36330172  0.52549101  0.65392146  1
  H+  H66  1  0.63098098  0.15884395  0.00688612  1
  H+  H67  1  0.35705943  0.12898535  0.50081793  1
  H+  H68  1  0.08182202  0.41585077  0.76256141  1
  H+  H69  1  0.61669720  0.71794228  0.81801788  1
  H+  H70  1  0.22782024  0.87024208  0.84130292  1
  H+  H71  1  0.63719951  0.60399436  0.83992892  1
  H+  H72  1  0.35380941  0.47032283  0.34216982  1
  H+  H73  1  0.66793383  1.03313109  0.66387149  1
  H+  H74  1  0.63170723  0.10982275  0.51482556  1
  H+  H75  1  0.08583338  0.99490675  0.31745633  1
  H+  H76  1  0.64739757  0.28515046  0.99538865  1
  H+  H77  1  0.79588464  0.19445488  0.09039365  1
  H+  H78  1  0.88315035  0.78571641  0.16251676  1
  H+  H79  1  0.38601399  0.85845580  0.33147622  1
  H+  H80  1  0.39274240  0.37356300  0.16913550  1
  H+  H81  1  0.89308037  0.62532257  0.65997491  1
  H+  H82  1  0.10856234  -0.01677829  0.99728899  1
  H+  H83  1  0.61403457  0.72451004  0.17487732  1
  H+  H84  1  0.80223977  0.67003619  0.70421747  1
  H+  H85  1  0.86228816  0.90682686  0.15718998  1
  H+  H86  1  0.11234085  0.37630676  -0.00135550  1
  H+  H87  1  0.09310497  0.24476111  0.34380419  1
  H+  H88  1  0.32318800  0.72187388  0.66090335  1
  H+  H89  1  0.15607794  0.08604649  0.60262235  1
  H+  H90  1  0.89031107  0.77489871  0.84715439  1
  H+  H91  1  0.08451313  0.17322012  0.75578976  1
  H+  H92  1  0.12802463  1.02074284  0.50426321  1
  H+  H93  1  0.87817772  -0.02248744  0.84412091  1
  H+  H94  1  0.52898932  0.62837651  -0.00225425  1
  H+  H95  1  0.77972309  0.91255796  0.64157573  1
  H+  H96  1  0.45221232  0.83692018  0.87331598  1
  H+  H97  1  0.76556012  0.38681839  0.66767082  1
  H+  H98  1  0.38541717  0.52068656  0.84085165  1
  H+  H99  1  0.44698417  0.61291946  0.65492544  1
  H+  H100  1  0.60477802  0.37973420  0.49469363  1
  H+  H101  1  0.87783475  0.77224602  0.50305845  1
  H+  H102  1  0.18393596  0.16343010  0.31630169  1
  H+  H103  1  0.00804877  0.21200424  0.38114508  1
  H+  H104  1  0.87556036  0.47182788  0.81285781  1
  H+  H105  1  0.49057342  0.12076234  0.99305908  1
  H+  H106  1  0.55773175  0.90007006  0.80705675  1
  H+  H107  1  0.11442889  0.37920369  0.66623507  1
  H+  H108  1  0.35941826  0.63457230  0.83950406  1
  H+  H109  1  0.90491585  0.11543678  0.22162005  1
  H+  H110  1  0.09852853  0.13731830  0.99866107  1
  H+  H111  1  0.27756129  0.61467582  1.00918971  1
  H+  H112  1  0.96037737  0.10609246  0.31556436  1
  H+  H113  1  0.27411251  0.11591055  0.34045445  1
  H+  H114  1  0.22147902  0.10680520  0.82478013  1
  H+  H115  1  0.58689177  0.17929945  1.06345591  1
  H+  H116  1  0.26767467  0.63170271  0.83832408  1
  H+  H117  1  0.72183770  0.86957783  0.17448092  1
  H+  H118  1  0.10153701  0.88454707  0.48699930  1
  H+  H119  1  0.11708361  0.23764024  0.15584234  1
  H+  H120  1  0.19813732  0.85958935  0.32851975  1
  H+  H121  1  0.61972799  0.71519516  0.99085321  1
  H+  H122  1  0.10821600  0.63266154  0.33979686  1
  H+  H123  1  0.10506955  0.62626899  0.49002454  1
  H+  H124  1  0.10649426  0.71852467  0.17908676  1
  H+  H125  1  0.97487280  0.61501020  0.65960250  1
  H+  H126  1  0.86264644  0.97886260  0.49548035  1
  H+  H127  1  0.37431323  1.01991970  0.65726829  1
  H+  H128  1  0.83644726  0.41587798  0.74860972  1
  H+  H129  1  0.82210264  0.42908769  0.39148984  1
  H+  H130  1  0.38486992  0.61281883  0.18890711  1
  H+  H131  1  0.36903238  0.38702884  0.67441768  1
  H+  H132  1  0.38152695  0.26649965  0.84106487  1
  H+  H133  1  0.39021176  0.02643390  0.51546919  1
  H+  H134  1  1.02350300  0.89121708  1.00156880  1
  H+  H135  1  0.17192645  0.59142042  0.07479103  1
  H+  H136  1  0.84732599  0.39207735  0.48007415  1
  H+  H137  1  0.11504079  -0.01691437  0.30094937  1
  H+  H138  1  0.63708037  0.27575982  0.33237528  1
  H+  H139  1  0.65959809  0.05839828  1.01061974  1
  H+  H140  1  0.33256030  0.92455334  0.07032068  1
  H+  H141  1  0.37719144  0.26018399  0.50771905  1
  H+  H142  1  0.11833514  0.74674160  0.00813398  1
  H+  H143  1  0.21359913  0.61762189  0.50014064  1
  H+  H144  1  0.28216549  0.10839807  0.02372683  1
  H+  H145  1  0.58408741  0.93135349  -0.00608517  1
  H+  H146  1  0.61842698  0.14022941  0.34952059  1
  H+  H147  1  0.21299887  0.11519141  0.66218005  1
  H+  H148  1  0.91621701  0.25583254  0.18813264  1
  H+  H149  1  0.11430893  -0.01933931  0.82081279  1
  H+  H150  1  0.91268289  0.08331837  0.90413359  1
  H+  H151  1  0.12107912  0.88719497  0.83135187  1
  H+  H152  1  0.14069572  0.50792133  0.99386129  1
  H+  H153  1  0.60434355  0.87974271  0.34376453  1
  H+  H154  1  0.01955184  0.89430395  0.15706928  1
  H+  H155  1  0.53487074  0.14882422  0.34713944  1
  H+  H156  1  0.38605478  0.26814351  0.99783740  1
  H+  H157  1  0.46950454  0.35289288  0.66093734  1
  H+  H158  1  0.78861187  0.13460747  0.81666280  1
  H+  H159  1  0.62915043  0.13589850  0.68235856  1
  H+  H160  1  0.61494337  1.01479755  0.33406500  1
  H+  H161  1  0.85812433  0.63702956  0.14542011  1
  H+  H162  1  0.46513783  0.60656736  0.33300425  1
  H+  H163  1  0.23411050  0.87915840  -0.00713283  1
  H+  H164  1  0.71625715  0.65088433  0.62571381  1
  H+  H165  1  0.75452956  0.62696026  0.33345505  1
  H+  H166  1  0.11412137  0.22905388  0.49982992  1
  H+  H167  1  0.36071746  0.38365724  0.00686409  1
  H+  H168  1  0.07767854  0.17349856  0.05823471  1
  H+  H169  1  0.75360480  0.35124208  0.17572990  1
  H+  H170  1  0.86607732  0.08607679  0.32370546  1
  H+  H171  1  0.88329161  0.26827768  0.81608793  1
  H+  H172  1  0.27661024  0.63535879  0.15795643  1
  H+  H173  1  0.92523550  0.58999260  0.56612828  1
  H+  H174  1  0.35562020  0.72341072  0.17992109  1
  H+  H175  1  0.73799801  0.57800960  0.61850078  1
  H+  H176  1  0.82038916  0.04118181  0.98536511  1
  H+  H177  1  0.13742598  0.27268882  0.98572171  1
  H+  H178  1  0.47291743  0.60134960  0.50097051  1
  H+  H179  1  0.60213578  0.97017469  0.14207430  1
  H+  H180  1  0.77675488  0.88473279  0.83319250  1
  H+  H181  1  0.91246903  0.41801712  0.31052612  1
  H+  H182  1  0.13629725  0.61249196  0.84083123  1
  H+  H183  1  0.51686426  0.37734842  0.83489916  1
  H+  H184  1  0.70810859  0.09212045  0.33806606  1
  H+  H185  1  0.74895695  0.13888760  1.00977257  1
  H+  H186  1  -0.01543306  0.60517879  0.83072202  1
  H+  H187  1  0.13109314  0.12183922  0.16530046  1
  H+  H188  1  0.59418804  0.73396426  0.66420072  1
  H+  H189  1  0.99850811  0.35533840  0.51828184  1
  H+  H190  1  0.03091532  0.13943273  0.81904684  1
  H+  H191  1  0.80918115  0.39272025  0.08301653  1
  H+  H192  1  1.06426745  0.85992231  0.63077940  1
  H+  H193  1  0.27344104  0.38543017  0.82584445  1
  H+  H194  1  0.63390155  0.84600385  0.98550112  1
  H+  H195  1  0.35706977  0.13296530  0.67551030  1
  H+  H196  1  0.90629347  0.83692671  0.22478504  1
  H+  H197  1  0.89191655  0.59660052  0.83389751  1
  H+  H198  1  0.72956242  0.86340956  0.49752612  1
  H+  H199  1  0.41990636  0.08900780  0.57299044  1
  H+  H200  1  0.26535696  0.12622901  0.49770519  1
  H+  H201  1  0.51722766  0.38436352  0.33555873  1
  H+  H202  1  -0.01522432  0.63752683  -0.01045257  1
  H+  H203  1  0.97208540  1.11132172  0.51398132  1
  H+  H204  1  0.77067870  0.62955994  0.84594176  1
  H+  H205  1  0.61304516  0.38788523  0.00586645  1
  H+  H206  1  0.13979380  0.27665939  0.83145423  1
  H+  H207  1  0.47424098  0.60923892  0.84290005  1
  H+  H208  1  0.22854798  0.36178855  0.98732997  1
  H+  H209  1  0.84820039  0.63550500  0.33204247  1
  H+  H210  1  0.87202600  0.88290834  0.83459214  1
  H+  H211  1  0.63914300  0.86197420  0.50228170  1
  H+  H212  1  0.89261160  1.00538618  0.67077877  1
  H+  H213  1  -0.02597952  0.37004146  0.00434055  1
  H+  H214  1  0.88748147  0.52739586  0.50597509  1
  H+  H215  1  0.97030486  0.36033524  0.82322387  1
  H+  H216  1  0.35890804  0.70542763  0.02128103  1
  H+  H217  1  0.38850124  0.10035402  0.33270968  1
  H+  H218  1  0.60392939  0.63237470  0.33578136  1
  H+  H219  1  0.47012227  0.10254237  0.66720228  1
  H+  H220  1  0.14468617  0.36845917  0.17218429  1
  H+  H221  1  0.77175625  0.63999411  0.15448200  1
  H+  H222  1  0.11158495  0.47642638  0.49148917  1
  H+  H223  1  0.76178702  0.39280588  0.49552057  1
  H+  H224  1  0.40085939  0.11775723  -0.00000524  1
  H+  H225  1  0.33080836  0.16239972  0.76652171  1
  H+  H226  1  0.98383692  0.05754703  0.90229428  1
  H+  H227  1  0.12663772  0.75964943  0.32230706  1
  H+  H228  1  0.63071101  0.86390062  0.17563736  1
  H+  H229  1  0.56124328  0.57121381  0.67557150  1
  H+  H230  1  0.01275151  0.88393792  0.49067061  1
  H+  H231  1  1.03879622  0.41946541  0.33307340  1
  H+  H232  1  0.61156726  0.46109731  0.68291011  1
  H+  H233  1  0.84927797  0.65746230  0.88977382  1
  H+  H234  1  0.72320879  0.60497961  -0.01234247  1
  H+  H235  1  0.88592631  0.86066821  0.99381318  1
  H+  H236  1  0.35715595  0.87138672  0.85132874  1
  H+  H237  1  0.13369799  0.11234450  0.50592231  1
  H+  H238  1  0.13686659  0.61265064  0.13458842  1
  H+  H239  1  0.84626237  0.98932485  0.14398580  1
  H+  H240  1  0.11150720  0.38758091  0.82191847  1
  H+  H241  1  0.23334051  0.36839554  0.66210453  1
  H+  H242  1  0.37715291  0.85467095  1.01233594  1
  H+  H243  1  0.62437535  0.51581301  0.32409165  1
  H+  H244  1  0.13314733  0.52237336  0.83912011  1
  H+  H245  1  0.38841179  0.36596197  0.32525943  1
  H+  H246  1  0.76301729  0.39166773  0.33247537  1
  H+  H247  1  0.86532735  0.64438056  0.99822346  1
  H+  H248  1  0.85239472  0.47964228  0.66515218  1
  H+  H249  1  0.03073316  0.38393330  0.15729600  1
  H+  H250  1  0.36127332  0.46452417  0.49099218  1
  H+  H251  1  0.62287835  0.14442277  0.83798852  1
  H+  H252  1  0.90826007  0.33427509  0.54661329  1
  H+  H253  1  0.60848089  0.46707564  0.83318148  1
  H+  H254  1  0.35332706  0.63126709  0.34100560  1
  H+  H255  1  0.71931337  0.86007055  0.33103024  1
  H+  H256  1  0.59438311  0.16362279  0.74009550  1
  H+  H257  1  0.87324855  0.27036522  0.30621104  1
  H+  H258  1  0.88056382  0.32187195  0.17595895  1
  H+  H259  1  0.11204306  0.51563992  0.64958048  1
  H+  H260  1  0.65804262  0.86823715  0.82930567  1
  H+  H261  1  0.90798589  0.92562734  0.66104946  1
  H+  H262  1  0.12145736  0.39156741  0.49189283  1
  H+  H263  1  0.14301634  0.27850983  0.66058380  1
  H+  H264  1  0.39151421  0.60534952  0.99947095  1
  H+  H265  1  0.13928452  0.37294903  0.32452578  1
  H+  H266  1  0.63326507  0.60530119  0.98587553  1
  H+  H267  1  0.11375193  0.72924418  0.82474228  1
  H+  H268  1  0.16879575  0.84561200  0.90068097  1
  H+  H269  1  1.02246557  0.15579728  0.67071326  1
  H+  H270  1  0.02244325  0.15999748  0.15348348  1
  H+  H271  1  0.60057202  0.22382582  0.15965044  1
  H+  H272  1  0.37803198  0.02575704  0.17463984  1
  H+  H273  1  0.40754928  0.57513010  0.27354267  1
  H+  H274  1  0.34153548  0.41768899  0.73642569  1
  H+  H275  1  0.63688950  0.27403565  0.51023773  1
  H+  H276  1  0.36374248  0.74521356  0.85744197  1
  H+  H277  1  0.47640577  0.86177485  0.33129868  1
  H+  H278  1  0.91725502  0.21284658  0.67373472  1
  H+  H279  1  0.07049601  0.83745222  0.33836796  1
  H+  H280  1  0.76135417  0.14025275  0.49585095  1
  H+  H281  1  0.61876099  0.60674268  0.49424305  1
  H+  H282  1  0.13978115  0.53761838  0.32345128  1
  H+  H283  1  0.34535079  0.72506768  0.49369322  1
  H+  H284  1  0.63359171  0.25960714  0.66396137  1
  H+  H285  1  0.63936001  0.61665853  0.17678635  1
  H+  H286  1  0.13159838  0.77203016  0.49928486  1
  H+  H287  1  0.59730890  0.46462182  0.48803488  1
  H+  H288  1  0.38897253  0.80881926  0.95423371  1
  H+  H289  1  0.35495868  0.37198933  0.49275454  1
  H+  H290  1  0.75731257  0.11757191  0.65596592  1
  H+  H291  1  0.35749787  0.89157723  0.16296446  1
  H+  H292  1  0.57526621  0.40923105  0.39637308  1
  H+  H293  1  0.08117935  0.92451644  0.09893770  1
  H+  H294  1  0.70485858  0.87267311  0.58598655  1
  H+  H295  1  0.36156765  0.38264436  0.83005025  1
  H+  H296  1  0.34839059  0.86918997  0.65695798  1
  H+  H297  1  0.22248911  0.36121037  0.32857896  1
  H+  H298  1  0.07574286  0.17165968  0.44102615  1
  H+  H299  1  0.10921931  0.14551307  0.66791215  1
  H+  H300  1  0.20106902  0.60675941  0.65017863  1
  H+  H301  1  0.56875020  0.63780682  0.77115842  1
  H+  H302  1  0.94984433  0.38571179  0.25746418  1
  H+  H303  1  0.52734390  0.39240711  0.15954151  1
  H+  H304  1  0.65822131  0.57705627  0.26440990  1
  H+  H305  1  0.21012009  0.91199333  0.41713774  1
  H+  H306  1  0.66180713  0.83587528  0.27092708  1
  H+  H307  1  0.85623410  0.76091967  0.31286460  1
  H+  H308  1  0.87714629  0.69404981  0.74985154  1
  H+  H309  1  0.41837598  0.08972756  0.23185675  1
  H+  H310  1  0.83251545  0.91890829  0.06744283  1
  H+  H311  1  0.46900145  0.51970438  0.70465523  1
  H+  H312  1  0.08632012  0.67020601  0.76472663  1
  H+  H313  1  0.41034765  0.32463584  0.60063312  1
  H+  H314  1  0.58620230  0.41810130  0.10030557  1
  H+  H315  1  0.57493994  0.40277731  0.74161307  1
  H+  H316  1  0.64311666  0.57011466  0.55224582  1
  H+  H317  1  0.33443069  0.42079622  0.09972605  1
  H+  H318  1  0.62434456  0.11089549  0.14404499  1
  H+  H319  1  0.61237110  0.72590519  0.48984805  1
  H+  H320  1  0.86326884  0.19907503  0.49991253  1
  H+  H321  1  0.66992724  0.33881184  0.91383788  1
  H+  H322  1  0.08125731  0.69501543  0.06850872  1
  H+  H323  1  0.16807422  0.33398960  0.89216992  1
  H+  H324  1  0.41141099  0.32435655  0.90187269  1
  H+  H325  1  0.57902181  0.66733995  0.42909733  1
  H+  H326  1  0.56782328  0.89166105  0.09675004  1
  H+  H327  1  0.91077361  0.58544711  0.26151762  1
  H+  H328  1  0.92797785  0.58732785  0.93132071  1
  H+  H329  1  0.60871212  0.47374819  0.00361984  1
  H+  H330  1  0.60563559  0.72293017  0.33698397  1
  H+  H331  1  0.17007497  0.33587242  0.23258787  1
  H+  H332  1  0.85087838  0.87573117  0.33591055  1
  H+  H333  1  0.67073009  0.08324289  0.57131401  1
  H+  H334  1  0.73075289  0.86343003  0.98694208  1
  H+  H335  1  0.40609028  0.83271527  0.56695191  1
  H+  H336  1  0.06960385  0.65604920  0.42854391  1
  H+  H337  1  0.13271475  0.03301474  0.16912251  1
  H+  H338  1  0.64978976  0.32400791  0.23642514  1
  H+  H339  1  0.84396073  0.13996918  0.09414324  1
  H+  H340  1  0.21812352  0.87288559  0.66650579  1
  H+  H341  1  0.30542936  0.93163539  0.71666790  1
  H+  H342  1  0.57126914  0.89113842  0.67174684  1
  H+  H343  1  0.82155832  0.67309449  0.42770065  1
  H+  H344  1  0.35083952  0.90434326  0.78711019  1
  H+  H345  1  0.90905767  0.08885331  0.56996096  1
  H+  H346  1  0.51129148  0.13545129  0.15399613  1
  H+  H347  1  0.32513455  0.92810922  0.44598503  1
  H+  H348  1  0.94027618  0.84109343  0.59513876  1
  H+  H349  1  0.14744309  0.58082711  0.55876631  1
  H+  H350  1  0.31646173  0.12562344  0.40784179  1
  H+  H351  1  0.14463294  0.88023687  -0.00860324  1
  H+  H352  1  0.15508184  0.08236663  0.91186689  1
  H+  H353  1  0.40552060  0.57394350  0.55550238  1
  H+  H354  1  0.92248704  0.83805452  0.90392092  1
  H+  H355  1  0.41723943  0.57672637  0.93702448  1
  H+  H356  1  0.88492540  0.77059034  0.99113943  1
  H+  H357  1  0.67782723  0.83204310  0.89095236  1
  H+  H358  1  0.58723020  0.17017103  0.44264520  1
  H+  H359  1  0.15703825  0.83074590  0.22721273  1
  H+  H360  1  0.73648930  0.37652022  1.00007472  1
  H+  H361  1  0.66321045  0.33108958  0.57025520  1
  H+  H362  1  0.82850328  0.66961030  0.05741168  1
  H+  H363  1  0.17167344  0.33877478  0.56513535  1
  H+  H364  1  0.57352968  0.90764001  0.40440367  1
  H+  H365  1  0.16918467  0.57911468  0.94247625  1
  H+  H366  1  0.41509027  0.84238853  0.23246056  1
  H+  H367  1  0.46857369  0.86531155  0.17050885  1
  H+  H368  1  0.68794254  0.09434089  0.90083974  1
  H+  H369  1  0.33093407  0.63728942  0.65900756  1
  H+  H370  1  0.42285103  0.34427099  0.26509792  1
  H+  H371  1  0.08619901  0.40283435  0.06146285  1
  H+  H372  1  0.36475298  0.47455862  0.00515200  1
  H+  H373  1  0.62812693  0.93317617  0.75588405  1
  H+  H374  1  0.04583986  0.87354023  0.39789759  1
  H+  H375  1  0.81601266  0.13966256  0.40940817  1
  H+  H376  1  0.83696135  0.92115635  0.43386001  1
  H+  H377  1  0.87635903  0.52514407  0.31954153  1
  H+  H378  1  0.42309086  0.08901560  0.90342901  1
  H+  H379  1  0.64192215  0.52789124  0.17097500  1
  H+  H380  1  0.31475298  0.66738122  0.43333104  1
  H+  H381  1  0.98427865  0.33485424  0.61939055  1
  H+  H382  1  0.10254636  0.72574598  0.67498708  1
  H+  H383  1  0.19792555  0.12558423  0.25552583  1
  O2-  O384  1  0.08134302  0.17770321  0.13931377  1
  O2-  O385  1  0.08301356  0.16794854  0.48529244  1
  O2-  O386  1  0.08944208  0.16895039  0.80209731  1
  O2-  O387  1  0.08956324  0.41160082  0.13957755  1
  O2-  O388  1  0.08466552  0.41550540  0.47725574  1
  O2-  O389  1  0.08066319  0.41764360  0.80759859  1
  O2-  O390  1  0.07914536  0.65405812  0.17908549  1
  O2-  O391  1  0.07098292  0.65666598  0.47533065  1
  O2-  O392  1  0.08679070  0.66924042  0.81044739  1
  O2-  O393  1  0.08136216  0.92316167  0.14404860  1
  O2-  O394  1  0.07244538  0.91583224  0.47285390  1
  O2-  O395  1  0.08439092  0.91431735  0.81453214  1
  O2-  O396  1  0.33300280  0.17443548  0.14825719  1
  O2-  O397  1  0.32572470  0.15562942  0.48116662  1
  O2-  O398  1  0.32687786  0.16058529  0.81264991  1
  O2-  O399  1  0.33815794  0.42218975  0.14509019  1
  O2-  O400  1  0.32587080  0.40264496  0.47651612  1
  O2-  O401  1  0.33538838  0.41546305  0.81258971  1
  O2-  O402  1  0.32676481  0.66057927  0.18524928  1
  O2-  O403  1  0.30513556  0.66693557  0.47792619  1
  O2-  O404  1  0.33067148  0.66810091  0.82911138  1
  O2-  O405  1  0.32768170  0.92276917  0.14742011  1
  O2-  O406  1  0.33596329  0.92042851  0.48907523  1
  O2-  O407  1  0.33808643  0.90905767  0.82962898  1
  O2-  O408  1  0.57162844  0.16652047  0.13834642  1
  O2-  O409  1  0.58641278  0.16982713  0.48828849  1
  O2-  O410  1  0.59273337  0.17567772  0.82412231  1
  O2-  O411  1  0.58875447  0.41932813  0.14561060  1
  O2-  O412  1  0.56928118  0.40259214  0.47675541  1
  O2-  O413  1  0.57834165  0.40504982  0.82017147  1
  O2-  O414  1  0.58731191  0.66344071  0.16321172  1
  O2-  O415  1  0.58006150  0.66524243  0.47481073  1
  O2-  O416  1  0.58269452  0.65472115  0.81449874  1
  O2-  O417  1  0.57116355  0.90597556  0.14050484  1
  O2-  O418  1  0.58124388  0.91280789  0.48241020  1
  O2-  O419  1  0.62000588  0.93092147  0.80282619  1
  O2-  O420  1  0.86120243  0.08841586  0.13723482  1
  O2-  O421  1  0.81434300  0.17935990  0.47235501  1
  O2-  O422  1  0.84952222  0.16482216  0.80450930  1
  O2-  O423  1  0.81457076  0.37097825  0.16305976  1
  O2-  O424  1  0.82081613  0.42760608  0.47595659  1
  O2-  O425  1  0.84167586  0.41199897  0.79535711  1
  O2-  O426  1  0.83078812  0.67136513  0.13529976  1
  O2-  O427  1  0.82090671  0.67548675  0.47287680  1
  O2-  O428  1  0.83638663  0.66336773  0.84728599  1
  O2-  O429  1  0.82460957  0.92579354  0.13758587  1
  O2-  O430  1  0.83445839  0.91842401  0.47918124  1
  O2-  O431  1  0.84360288  0.91831812  0.82385180  1
  O2-  O432  1  0.16476572  0.09500527  0.18041359  1
  O2-  O433  1  0.16227383  0.08016526  0.52081708  1
  O2-  O434  1  0.15814290  0.07531921  0.83568262  1
  O2-  O435  1  0.17346121  0.33645319  0.18718380  1
  O2-  O436  1  0.16765748  0.33583544  0.51997028  1
  O2-  O437  1  0.16896518  0.33700300  0.84642432  1
  O2-  O438  1  0.16735904  0.58351354  0.11918937  1
  O2-  O439  1  0.14954468  0.58191233  0.51303541  1
  O2-  O440  1  0.16397822  0.58093573  0.85744759  1
  O2-  O441  1  0.15691831  0.82830755  0.18162126  1
  O2-  O442  1  0.16188480  0.83387713  0.50951114  1
  O2-  O443  1  0.16665450  0.84490936  0.85445842  1
  O2-  O444  1  0.41055204  0.08783763  0.18690584  1
  O2-  O445  1  0.41975415  0.08828064  0.52719148  1
  O2-  O446  1  0.42301578  0.08758019  0.85774566  1
  O2-  O447  1  0.42474265  0.34471090  0.18435438  1
  O2-  O448  1  0.40736151  0.32023853  0.52414479  1
  O2-  O449  1  0.41354644  0.32703968  0.85623455  1
  O2-  O450  1  0.41770317  0.58236767  0.19867034  1
  O2-  O451  1  0.41256064  0.56172367  0.51288201  1
  O2-  O452  1  0.41388561  0.58044185  0.85732542  1
  O2-  O453  1  0.40939289  0.84156263  0.18742562  1
  O2-  O454  1  0.41579157  0.83237511  0.52234209  1
  O2-  O455  1  0.39030483  0.80948305  0.87863566  1
  O2-  O456  1  0.65894580  0.08123906  0.14069926  1
  O2-  O457  1  0.66154682  0.07755799  0.52641268  1
  O2-  O458  1  0.68037306  0.09390372  0.85630859  1
  O2-  O459  1  0.65141034  0.32134973  0.19076906  1
  O2-  O460  1  0.66557869  0.33538329  0.52474791  1
  O2-  O461  1  0.65992201  0.33186135  0.86584353  1
  O2-  O462  1  0.67409675  0.58735149  0.18759894  1
  O2-  O463  1  0.64585797  0.57122697  0.50789158  1
  O2-  O464  1  0.66684421  0.57260247  0.85418359  1
  O2-  O465  1  0.66421636  0.83901220  0.19379155  1
  O2-  O466  1  0.66996197  0.83125982  0.51525918  1
  O2-  O467  1  0.68485474  0.83458399  0.84522314  1
  O2-  O468  1  0.91976815  0.15035842  0.18352422  1
  O2-  O469  1  0.91054203  0.07995510  0.52529244  1
  O2-  O470  1  0.94421368  0.06442045  0.87575021  1
  O2-  O471  1  0.92998375  0.31639174  0.18998904  1
  O2-  O472  1  0.95109847  0.31637447  0.54727800  1
  O2-  O473  1  0.90689498  0.32968915  0.82979059  1
  O2-  O474  1  0.90262504  0.55749799  0.14682257  1
  O2-  O475  1  0.92871445  0.58687265  0.52049663  1
  O2-  O476  1  0.92348072  0.56678329  0.84445695  1
  O2-  O477  1  0.91259592  0.84495037  0.17920988  1
  O2-  O478  1  0.91361938  0.83200476  0.52044644  1
  O2-  O479  1  0.92372723  0.83768501  0.85720902  1
  O2-  O480  1  0.22428466  0.15111093  0.29549913  1
  O2-  O481  1  0.15370936  0.09232888  0.64733181  1
  O2-  O482  1  0.15682738  0.08710568  0.95758157  1
  O2-  O483  1  0.16209682  0.33433955  0.31175918  1
  O2-  O484  1  0.17465903  0.34021833  0.64520230  1
  O2-  O485  1  0.16979172  0.33253049  0.96868189  1
  O2-  O486  1  0.16247504  0.59808777  0.31036110  1
  O2-  O487  1  0.13846720  0.57544601  0.63488555  1
  O2-  O488  1  0.17598418  0.57117470  0.98622850  1
  O2-  O489  1  0.14980028  0.81758568  0.30298266  1
  O2-  O490  1  0.14773394  0.83345252  0.66904846  1
  O2-  O491  1  0.17485361  0.85053220  0.97501141  1
  O2-  O492  1  0.43346371  0.09172487  0.31078471  1
  O2-  O493  1  0.41347095  0.08397373  0.64871496  1
  O2-  O494  1  0.42861916  0.08758428  0.98069349  1
  O2-  O495  1  0.42401219  0.34177287  0.31014255  1
  O2-  O496  1  0.40935862  0.32651409  0.64650595  1
  O2-  O497  1  0.41365517  0.32606825  0.97961226  1
  O2-  O498  1  0.40405501  0.57523819  0.31941523  1
  O2-  O499  1  0.38920626  0.58430446  0.63717619  1
  O2-  O500  1  0.42209392  0.57500117  0.98198378  1
  O2-  O501  1  0.41661483  0.83297197  0.31212802  1
  O2-  O502  1  0.37930323  0.83508397  0.64367033  1
  O2-  O503  1  0.39976881  0.81638627  0.99915507  1
  O2-  O504  1  0.65014308  0.07635350  0.32276528  1
  O2-  O505  1  0.69501844  0.09403775  0.64954777  1
  O2-  O506  1  0.69262720  0.11088696  0.98718462  1
  O2-  O507  1  0.66122711  0.33325210  0.31209958  1
  O2-  O508  1  0.65766750  0.31927791  0.64734533  1
  O2-  O509  1  0.67777601  0.34552081  0.97887114  1
  O2-  O510  1  0.65347951  0.57702619  0.30995960  1
  O2-  O511  1  0.69807832  0.59215615  0.63853264  1
  O2-  O512  1  0.66323337  0.57137144  0.97199126  1
  O2-  O513  1  0.65834182  0.83133718  0.31643665  1
  O2-  O514  1  0.72592791  0.90825445  0.62363932  1
  O2-  O515  1  0.67470180  0.83083805  0.96606431  1
  O2-  O516  1  0.90238659  0.07054807  0.29789635  1
  O2-  O517  1  0.92179460  0.11013939  0.65012213  1
  O2-  O518  1  0.85309972  0.09085150  0.95914242  1
  O2-  O519  1  0.96592475  0.42750638  0.29094575  1
  O2-  O520  1  0.98869925  0.33362251  0.66506507  1
  O2-  O521  1  0.91035228  0.34304588  1.00295273  1
  O2-  O522  1  0.91166540  0.58706031  0.30580716  1
  O2-  O523  1  0.91513143  0.59001690  0.64161922  1
  O2-  O524  1  0.92641028  0.61195656  0.97087106  1
  O2-  O525  1  0.89199955  0.82251720  0.29998821  1
  O2-  O526  1  0.96364463  0.85274162  0.63773936  1
  O2-  O527  1  0.91705854  0.83269499  0.97618228  1
  O2-  O528  1  0.07410447  0.17234506  0.01296425  1
  O2-  O529  1  0.04544151  0.19191368  0.36497119  1
  O2-  O530  1  0.08481287  0.18187392  0.68499647  1
  O2-  O531  1  0.08269168  0.40588848  0.01629784  1
  O2-  O532  1  0.09413196  0.42935657  0.35167466  1
  O2-  O533  1  0.07613439  0.40363561  0.67886692  1
  O2-  O534  1  0.08204297  0.68801164  0.02479163  1
  O2-  O535  1  0.07419432  0.66059857  0.35679696  1
  O2-  O536  1  0.07213880  0.66381571  0.68806677  1
  O2-  O537  1  0.08427994  0.92558914  0.01588680  1
  O2-  O538  1  0.02317788  0.83801830  0.36072282  1
  O2-  O539  1  0.12029159  0.86530932  0.61746885  1
  O2-  O540  1  0.33848286  0.15813648  0.03138858  1
  O2-  O541  1  0.30745759  0.09707646  0.36692017  1
  O2-  O542  1  0.32625707  0.16187952  0.69229677  1
  O2-  O543  1  0.32968306  0.41341617  0.02042749  1
  O2-  O544  1  0.32320992  0.40783744  0.35341561  1
  O2-  O545  1  0.35080964  0.42750950  0.69128329  1
  O2-  O546  1  0.33693488  0.64356884  0.02678158  1
  O2-  O547  1  0.32535671  0.66498849  0.35410606  1
  O2-  O548  1  0.29418071  0.66056099  0.67276825  1
  O2-  O549  1  0.33534689  0.92162109  0.02475178  1
  O2-  O550  1  0.25657553  0.93380142  0.38721642  1
  O2-  O551  1  0.30706826  0.92077386  0.67355010  1
  O2-  O552  1  0.59378493  0.18334800  0.01779339  1
  O2-  O553  1  0.59340137  0.17655790  0.36498392  1
  O2-  O554  1  0.59111180  0.15854903  0.69516513  1
  O2-  O555  1  0.57817732  0.41339178  0.02016612  1
  O2-  O556  1  0.57941157  0.41292067  0.35122561  1
  O2-  O557  1  0.57491387  0.40175281  0.69595132  1
  O2-  O558  1  0.59203494  0.65584824  0.00588231  1
  O2-  O559  1  0.57485395  0.66286779  0.35301956  1
  O2-  O560  1  0.52284969  0.57590187  0.70457860  1
  O2-  O561  1  0.56241790  0.87657493  0.01459778  1
  O2-  O562  1  0.57028900  0.90650095  0.35888041  1
  O2-  O563  1  0.62856843  0.93014079  0.68724022  1
  O2-  O564  1  0.82819494  0.17718206  0.06389520  1
  O2-  O565  1  0.81365613  0.12396318  0.36435680  1
  O2-  O566  1  0.87485291  0.15083478  0.67798604  1
  O2-  O567  1  0.82253113  0.41830077  0.04175068  1
  O2-  O568  1  0.82446991  0.42767764  0.34668226  1
  O2-  O569  1  0.82661323  0.42019472  0.68078125  1
  O2-  O570  1  0.82986943  0.67110275  0.01170044  1
  O2-  O571  1  0.81593123  0.66312579  0.34704103  1
  O2-  O572  1  0.86450389  0.69439983  0.70665531  1
  O2-  O573  1  0.83993734  0.91993531  0.02081197  1
  O2-  O574  1  0.82580559  0.91003339  0.35406008  1
  O2-  O575  1  0.86788310  0.94225298  0.67809116  1
