# generated using pymatgen
data_H2O
_symmetry_space_group_name_H-M   'P 1'
_cell_length_a   18.00061691
_cell_length_b   17.99526539
_cell_length_c   21.99892798
_cell_angle_alpha   89.96592406
_cell_angle_beta   90.03190867
_cell_angle_gamma   120.00849178
_symmetry_Int_Tables_number   1
_chemical_formula_structural   H2O
_chemical_formula_sum   'H384 O192'
_cell_volume   6170.78663186
_cell_formula_units_Z   192
loop_
 _symmetry_equiv_pos_site_id
 _symmetry_equiv_pos_as_xyz
  1  'x, y, z'
loop_
 _atom_type_symbol
 _atom_type_oxidation_number
  H+  1.0
  O2-  -2.0
loop_
 _atom_site_type_symbol
 _atom_site_label
 _atom_site_symmetry_multiplicity
 _atom_site_fract_x
 _atom_site_fract_y
 _atom_site_fract_z
 _atom_site_occupancy
  H+  H0  1  0.15029138  0.87977915  0.32414530  1
  H+  H1  1  0.78380066  0.37079642  0.82897701  1
  H+  H2  1  0.28527082  0.39922879  0.16666731  1
  H+  H3  1  0.22291911  0.60572139  0.32790006  1
  H+  H4  1  0.23872021  0.85646638  0.00028883  1
  H+  H5  1  0.87523097  0.28270950  0.01415179  1
  H+  H6  1  0.30128281  0.16644218  -0.03198043  1
  H+  H7  1  0.10328800  0.74139875  0.67940976  1
  H+  H8  1  0.16054716  0.36364961  0.99475256  1
  H+  H9  1  0.22807116  0.61562164  -0.00201055  1
  H+  H10  1  0.52774485  0.13970233  0.33953999  1
  H+  H11  1  0.64835165  0.76658154  0.99366840  1
  H+  H12  1  0.37964775  0.10726760  0.50070872  1
  H+  H13  1  0.43780051  0.33869241  0.60799007  1
  H+  H14  1  0.13428916  0.51017166  0.33240476  1
  H+  H15  1  -0.01948661  0.13013187  0.16193690  1
  H+  H16  1  0.61918457  0.85317586  0.51733382  1
  H+  H17  1  0.13326433  0.24610696  0.48169091  1
  H+  H18  1  -0.11151567  0.53779776  0.65557315  1
  H+  H19  1  0.28319733  0.12512565  0.82653365  1
  H+  H20  1  0.88159585  0.87874466  0.64544745  1
  H+  H21  1  0.02965217  0.12750250  0.82868654  1
  H+  H22  1  0.11779059  0.98267931  0.34753981  1
  H+  H23  1  0.86361257  0.70668771  0.85887484  1
  H+  H24  1  0.04719658  0.78965771  0.20465147  1
  H+  H25  1  0.56708460  0.64141500  0.73491852  1
  H+  H26  1  0.39466037  0.64120740  0.15966117  1
  H+  H27  1  0.04691780  0.37532295  0.22945626  1
  H+  H28  1  0.36450309  0.84696224  0.50383250  1
  H+  H29  1  0.39204045  0.09962552  0.83085983  1
  H+  H30  1  0.82672673  0.37769325  0.15600901  1
  H+  H31  1  0.09904792  0.61691270  0.34554456  1
  H+  H32  1  0.14435046  0.77120817  0.00198205  1
  H+  H33  1  0.10145182  0.46681131  0.48998831  1
  H+  H34  1  0.89716867  0.86394235  0.31706606  1
  H+  H35  1  0.87990796  0.27354888  0.50610201  1
  H+  H36  1  0.81783376  0.95602433  0.65193844  1
  H+  H37  1  0.17781751  0.60189257  0.89932001  1
  H+  H38  1  0.78604383  0.89158256  0.32514288  1
  H+  H39  1  0.23537107  0.56704940  0.65175636  1
  H+  H40  1  0.72422413  0.36434484  0.51110533  1
  H+  H41  1  0.37902146  0.76879198  0.66142510  1
  H+  H42  1  0.14791453  0.25347900  0.99576252  1
  H+  H43  1  0.60514275  0.23844816  0.66796321  1
  H+  H44  1  0.76826086  0.63440459  0.34065116  1
  H+  H45  1  0.01468160  0.17031674  0.66558856  1
  H+  H46  1  0.57535001  0.92173434  0.59146754  1
  H+  H47  1  0.24239052  0.85208780  0.65485158  1
  H+  H48  1  0.65438993  0.14358585  0.51714853  1
  H+  H49  1  0.84910018  0.92177511  0.81592690  1
  H+  H50  1  0.73602134  0.60789131  0.17567490  1
  H+  H51  1  0.89718217  0.57109035  0.26608906  1
  H+  H52  1  0.79247552  0.05811194  0.62200615  1
  H+  H53  1  0.36391037  0.63873185  0.33373726  1
  H+  H54  1  0.92005982  0.88129650  0.79869306  1
  H+  H55  1  0.99632025  0.84116886  0.86753749  1
  H+  H56  1  0.63582491  0.35703968  0.83360150  1
  H+  H57  1  0.13269884  0.76710693  0.49834863  1
  H+  H58  1  0.63244907  0.27758090  0.50885931  1
  H+  H59  1  0.36852527  0.22208853  0.49154910  1
  H+  H60  1  0.84983782  0.38603011  0.01371795  1
  H+  H61  1  0.74185318  0.14244197  0.50760133  1
  H+  H62  1  0.78440979  0.90457145  0.15463783  1
  H+  H63  1  0.10613779  0.62449135  0.62343932  1
  H+  H64  1  0.94122104  0.35339506  0.17663944  1
  H+  H65  1  0.54261283  0.63258014  0.00113390  1
  H+  H66  1  0.61168990  0.46992108  0.83691354  1
  H+  H67  1  0.11782782  0.14056523  0.33689661  1
  H+  H68  1  0.62634155  0.62315113  1.00872393  1
  H+  H69  1  0.62597325  0.51582506  0.32916000  1
  H+  H70  1  0.72274695  0.10566112  0.18633260  1
  H+  H71  1  0.47930995  0.85992345  0.33899556  1
  H+  H72  1  0.41156150  0.78017871  0.17676364  1
  H+  H73  1  0.87137557  0.45407105  0.83283324  1
  H+  H74  1  0.36265490  0.87628983  0.82612442  1
  H+  H75  1  0.38175474  0.39712161  0.67401642  1
  H+  H76  1  0.98033716  0.12234354  0.32141703  1
  H+  H77  1  0.37962360  0.89124274  0.15765965  1
  H+  H78  1  0.74701412  0.13497443  0.01108760  1
  H+  H79  1  0.38082927  0.02893187  0.66261500  1
  H+  H80  1  0.52815623  0.88114853  1.00588720  1
  H+  H81  1  0.33128570  0.91827831  0.73509873  1
  H+  H82  1  0.83973073  0.14818499  0.00441080  1
  H+  H83  1  0.87750359  0.27523634  0.67269327  1
  H+  H84  1  0.36429903  0.63084630  0.82369808  1
  H+  H85  1  0.12933551  -0.02537251  0.15761276  1
  H+  H86  1  0.39421050  0.12440580  0.96899734  1
  H+  H87  1  0.63870076  0.52764994  0.66074052  1
  H+  H88  1  0.62693674  0.61028155  0.65837978  1
  H+  H89  1  0.77909699  0.87931297  0.00023611  1
  H+  H90  1  0.64379707  0.76588812  0.32224711  1
  H+  H91  1  0.90815656  0.77588731  0.02192214  1
  H+  H92  1  0.02366097  0.39093757  0.00664508  1
  H+  H93  1  0.53431094  0.88924650  0.16348472  1
  H+  H94  1  0.72124642  0.59749146  0.85998009  1
  H+  H95  1  0.87203153  0.98373694  0.32296039  1
  H+  H96  1  0.00996619  0.61559139  0.34523042  1
  H+  H97  1  0.11279217  0.63447760  0.01226615  1
  H+  H98  1  0.37956606  0.11850170  0.65902176  1
  H+  H99  1  0.40753814  0.38244568  1.01424583  1
  H+  H100  1  0.23907456  0.10778220  0.18279890  1
  H+  H101  1  0.48037393  0.68936133  0.95624434  1
  H+  H102  1  0.58379165  0.89444462  0.77167440  1
  H+  H103  1  0.37533470  0.21170368  0.82420413  1
  H+  H104  1  0.14177717  0.77336859  0.84739767  1
  H+  H105  1  0.86357289  0.39454558  0.65871200  1
  H+  H106  1  0.22216484  0.59802863  0.50098747  1
  H+  H107  1  0.17689316  0.12708271  0.83264088  1
  H+  H108  1  0.70002027  0.36740171  0.17257780  1
  H+  H109  1  0.35684471  0.97035872  0.49098765  1
  H+  H110  1  0.87007662  0.62089986  0.99596096  1
  H+  H111  1  0.36851767  0.63557237  0.66570420  1
  H+  H112  1  0.62466956  0.91262327  0.39279230  1
  H+  H113  1  0.39752831  0.86655488  -0.00686436  1
  H+  H114  1  0.14599796  0.27770666  0.32389955  1
  H+  H115  1  0.51948491  0.12634856  0.81539757  1
  H+  H116  1  0.27509040  0.38230652  0.00843340  1
  H+  H117  1  0.37284896  0.89283000  0.33715091  1
  H+  H118  1  0.42854028  0.59496320  0.26226442  1
  H+  H119  1  0.61293985  0.73095724  0.49321802  1
  H+  H120  1  0.86172924  0.27125569  0.31909052  1
  H+  H121  1  0.40240429  0.28568228  0.66900122  1
  H+  H122  1  0.50781661  0.14019044  0.66866868  1
  H+  H123  1  0.72648925  0.58965521  1.00149486  1
  H+  H124  1  0.28664808  0.17756006  0.68004940  1
  H+  H125  1  0.88945465  0.77147279  0.50944009  1
  H+  H126  1  1.03965153  0.16067884  0.48680624  1
  H+  H127  1  0.16538916  0.13239903  0.98887428  1
  H+  H128  1  0.63288716  0.26683315  0.82891677  1
  H+  H129  1  0.62775085  0.01706968  0.83996594  1
  H+  H130  1  0.62313744  0.98141216  0.64714883  1
  H+  H131  1  0.49896698  0.35635673  0.51338639  1
  H+  H132  1  0.86150700  0.13985391  0.16324285  1
  H+  H133  1  0.61955533  0.13281573  0.17727203  1
  H+  H134  1  0.87273442  0.96332771  -0.00631333  1
  H+  H135  1  0.13888537  0.08573304  0.19414917  1
  H+  H136  1  0.87334287  0.60326483  0.32717746  1
  H+  H137  1  0.38985011  0.27534664  0.89776385  1
  H+  H138  1  0.17985721  0.58398563  0.18128077  1
  H+  H139  1  0.63826847  0.61772877  0.50456914  1
  H+  H140  1  0.50867180  0.13156380  -0.00707383  1
  H+  H141  1  0.39586586  1.02985219  0.32540839  1
  H+  H142  1  0.49187725  0.86328052  0.51269172  1
  H+  H143  1  0.52482126  0.64297075  0.49644626  1
  H+  H144  1  0.38998815  0.77155767  0.33073076  1
  H+  H145  1  0.85286505  0.61476873  0.84820417  1
  H+  H146  1  0.07488569  0.35685631  0.70375557  1
  H+  H147  1  0.81772962  -0.01167256  0.82634918  1
  H+  H148  1  0.39027043  0.77416078  0.99576395  1
  H+  H149  1  0.65939257  0.07490535  0.27976266  1
  H+  H150  1  -0.03422014  0.36368590  0.66439535  1
  H+  H151  1  1.00733324  0.16088726  0.69921715  1
  H+  H152  1  0.64660482  0.86507706  0.16825776  1
  H+  H153  1  0.51938099  0.13949510  0.49428087  1
  H+  H154  1  0.34355980  0.41282451  0.77022896  1
  H+  H155  1  0.18995373  0.09087229  0.89618650  1
  H+  H156  1  0.46367626  0.86123976  0.64870836  1
  H+  H157  1  0.13984478  0.90202657  0.99053617  1
  H+  H158  1  0.11574260  0.64497186  0.82424776  1
  H+  H159  1  0.32890254  0.65832737  0.39512742  1
  H+  H160  1  0.77641081  0.39509680  0.66630388  1
  H+  H161  1  0.62661141  1.01742736  -0.00345112  1
  H+  H162  1  0.87278940  0.14598019  0.48001871  1
  H+  H163  1  0.31257884  0.65213252  0.16687422  1
  H+  H164  1  0.88134556  0.83683496  0.79706502  1
  H+  H165  1  0.35062539  0.70332241  0.49055994  1
  H+  H166  1  0.90014159  0.27798111  0.86369018  1
  H+  H167  1  1.05943093  0.15526643  0.98853794  1
  H+  H168  1  0.11174495  0.88444698  0.49313460  1
  H+  H169  1  0.61837223  0.48541607  0.49402143  1
  H+  H170  1  0.91360168  0.76635673  0.17127561  1
  H+  H171  1  0.23885993  0.12455228  0.33557222  1
  H+  H172  1  1.00858780  0.38469911  0.49032205  1
  H+  H173  1  0.23894618  0.88126001  0.31526101  1
  H+  H174  1  0.85935475  0.51237808  0.17073020  1
  H+  H175  1  0.15293966  0.02441152  0.59365713  1
  H+  H176  1  0.88474437  0.52428644  0.50432211  1
  H+  H177  1  0.36488450  0.89366670  0.67565490  1
  H+  H178  1  0.37043584  0.48027436  0.66982556  1
  H+  H179  1  0.16381690  0.34337430  0.63875745  1
  H+  H180  1  0.61442782  0.98659854  0.36150284  1
  H+  H181  1  0.84633994  0.47086019  0.33468247  1
  H+  H182  1  0.11787125  0.45202963  0.67580375  1
  H+  H183  1  0.90800513  0.03854376  0.48304283  1
  H+  H184  1  0.65774933  0.33025115  0.60348781  1
  H+  H185  1  -0.02493424  0.60570777  0.84517389  1
  H+  H186  1  0.27415764  0.13874318  0.48303837  1
  H+  H187  1  0.16870233  0.25272205  0.81549294  1
  H+  H188  1  0.62356890  0.39820091  0.49519889  1
  H+  H189  1  0.49857396  0.38342021  1.02397070  1
  H+  H190  1  0.38620333  0.51528244  0.84056067  1
  H+  H191  1  0.77612193  0.64255144  0.49516399  1
  H+  H192  1  0.07779582  0.45886752  0.19110343  1
  H+  H193  1  0.66509605  0.58631859  0.56443796  1
  H+  H194  1  0.34897273  0.21793268  0.17299375  1
  H+  H195  1  0.96801148  0.86885779  0.65626830  1
  H+  H196  1  0.12491208  0.88611755  0.83338524  1
  H+  H197  1  0.17064946  0.82531136  0.55708102  1
  H+  H198  1  0.07458166  0.39745278  -0.05044888  1
  H+  H199  1  0.16204611  0.12169715  0.66123185  1
  H+  H200  1  0.14437530  0.28976414  0.16093273  1
  H+  H201  1  0.04357005  0.81340915  0.69883292  1
  H+  H202  1  0.08832778  0.17509257  0.39278729  1
  H+  H203  1  0.23633498  0.37746377  0.84464761  1
  H+  H204  1  0.77266379  0.13989239  0.33638082  1
  H+  H205  1  0.36689378  0.64251142  0.00382317  1
  H+  H206  1  0.17579037  0.53324850  0.59365460  1
  H+  H207  1  0.92662332  0.09787212  1.00502985  1
  H+  H208  1  0.99030532  0.36419126  0.86425688  1
  H+  H209  1  0.47251275  0.60573191  0.64930014  1
  H+  H210  1  0.63741104  0.11692992  0.33635405  1
  H+  H211  1  0.85473722  0.38302350  0.49605366  1
  H+  H212  1  0.62166795  0.36148943  0.33180236  1
  H+  H213  1  0.38792433  0.76497560  0.83886058  1
  H+  H214  1  0.86343763  0.66113702  0.64985331  1
  H+  H215  1  0.85877505  0.63205904  0.15300984  1
  H+  H216  1  0.76499379  0.16453638  0.83351708  1
  H+  H217  1  0.12604779  0.40177883  0.83837345  1
  H+  H218  1  0.44160073  0.36622265  0.91768813  1
  H+  H219  1  0.64485750  0.52429616  0.16910004  1
  H+  H220  1  0.42872572  0.60167342  0.92224361  1
  H+  H221  1  0.48368218  0.62408074  0.32332942  1
  H+  H222  1  0.61319924  0.23103133  0.34036133  1
  H+  H223  1  0.84020343  0.18009617  0.42494732  1
  H+  H224  1  0.61554634  0.63347381  0.33788797  1
  H+  H225  1  0.71049609  0.10399201  0.60582914  1
  H+  H226  1  0.08180133  0.61557855  0.17035162  1
  H+  H227  1  0.61721971  0.10312978  0.99569825  1
  H+  H228  1  0.12491778  0.16781215  0.14069365  1
  H+  H229  1  0.47681087  0.60206677  0.83647378  1
  H+  H230  1  0.02561450  0.63521868  0.49615553  1
  H+  H231  1  0.14486750  0.12103499  0.49464876  1
  H+  H232  1  0.40202444  0.52812386  0.17217000  1
  H+  H233  1  0.39081153  0.00923109  0.83279445  1
  H+  H234  1  0.63533463  0.27334196  -0.01674215  1
  H+  H235  1  0.12170432  0.38919465  0.34146695  1
  H+  H236  1  0.51748612  0.87481668  0.82658929  1
  H+  H237  1  0.00125511  0.85919024  0.16920312  1
  H+  H238  1  0.60849705  0.70484439  0.82947575  1
  H+  H239  1  0.88746960  0.61467092  0.50241081  1
  H+  H240  1  0.11339025  -0.03324444  0.65375603  1
  H+  H241  1  0.95443038  0.59612217  0.17138794  1
  H+  H242  1  0.06782062  0.58003544  0.62262823  1
  H+  H243  1  0.67109565  0.32896029  0.92298535  1
  H+  H244  1  0.60855270  0.61570585  0.83567338  1
  H+  H245  1  0.07943035  0.70421640  0.16831871  1
  H+  H246  1  0.83638704  0.12050000  0.85321513  1
  H+  H247  1  0.27442555  0.87883020  0.83122038  1
  H+  H248  1  0.77614320  0.65907731  0.64855943  1
  H+  H249  1  0.62098317  0.72745153  0.15338966  1
  H+  H250  1  0.12161372  -0.02754799  0.83073032  1
  H+  H251  1  0.81466307  0.15824225  0.10741011  1
  H+  H252  1  0.32549867  0.46628874  0.50291940  1
  H+  H253  1  0.53433316  0.39452924  0.67942638  1
  H+  H254  1  0.36570804  0.38060671  0.83318937  1
  H+  H255  1  0.98211649  0.11080948  0.83017387  1
  H+  H256  1  0.86009193  0.72258386  0.33838978  1
  H+  H257  1  0.18992502  0.22280982  0.65167170  1
  H+  H258  1  0.75203516  0.38216050  0.33605952  1
  H+  H259  1  0.88233549  0.17528014  0.70831690  1
  H+  H260  1  0.70930875  0.85028538  0.83507697  1
  H+  H261  1  0.40102197  0.12247532  0.32255855  1
  H+  H262  1  0.86710436  0.15011953  0.32880588  1
  H+  H263  1  0.76077229  0.12416092  0.67279131  1
  H+  H264  1  0.47823413  0.11488597  0.17082355  1
  H+  H265  1  0.02941497  0.89104409  0.34144224  1
  H+  H266  1  0.21724026  0.76413438  0.62373722  1
  H+  H267  1  0.63501575  1.01690984  0.18200943  1
  H+  H268  1  0.37947814  0.48154225  0.33346272  1
  H+  H269  1  0.84753962  0.36438358  0.32297533  1
  H+  H270  1  0.60513230  0.85397358  0.67090673  1
  H+  H271  1  0.59012569  0.71671497  0.68938018  1
  H+  H272  1  0.35633524  0.13369863  0.16236740  1
  H+  H273  1  0.36280554  0.47560289  0.01817602  1
  H+  H274  1  0.42000046  0.07478850  0.92237207  1
  H+  H275  1  0.52384749  0.38071592  0.83473386  1
  H+  H276  1  0.91907250  0.33546916  0.95413396  1
  H+  H277  1  0.36906088  0.97565565  0.00414689  1
  H+  H278  1  0.63826069  0.85054214  0.31273553  1
  H+  H279  1  0.39206070  0.25180767  0.98375349  1
  H+  H280  1  0.50411789  0.35939963  0.34937711  1
  H+  H281  1  0.84096050  0.67617642  -0.04138152  1
  H+  H282  1  0.14593174  0.53659172  0.84401922  1
  H+  H283  1  0.61867767  0.88379700  1.00608508  1
  H+  H284  1  0.59183366  0.38842320  0.14429333  1
  H+  H285  1  0.14068214  0.37356206  0.17428847  1
  H+  H286  1  0.25946679  0.36538020  0.65101600  1
  H+  H287  1  0.63228581  0.36246178  0.66575739  1
  H+  H288  1  0.42292973  0.55144740  0.47761770  1
  H+  H289  1  0.90443806  0.08196690  0.54388147  1
  H+  H290  1  0.59164948  0.66272212  0.09751160  1
  H+  H291  1  0.05793332  0.90886674  0.00570830  1
  H+  H292  1  0.82325083  0.41043986  0.43595661  1
  H+  H293  1  0.05776854  0.88883931  0.74207192  1
  H+  H294  1  0.37282150  0.97578504  0.15645560  1
  H+  H295  1  0.27818656  0.63778461  0.82505574  1
  H+  H296  1  0.13688475  0.81494848  0.23559606  1
  H+  H297  1  0.37783398  0.34998172  0.19449889  1
  H+  H298  1  0.07437899  0.68369112  0.77544068  1
  H+  H299  1  0.40732135  0.08019695  0.56254212  1
  H+  H300  1  0.59171570  0.91999494  0.10243464  1
  H+  H301  1  0.18092826  0.07980890  0.27825070  1
  H+  H302  1  0.47832966  0.27298048  0.54843979  1
  H+  H303  1  0.34476537  0.41808603  0.10975668  1
  H+  H304  1  0.60960884  0.13034468  0.81502790  1
  H+  H305  1  0.84266239  0.93353287  0.09558037  1
  H+  H306  1  0.33864819  0.92069548  0.39462188  1
  H+  H307  1  0.34995233  0.91977193  0.06615409  1
  H+  H308  1  0.57369998  0.93633207  0.47829363  1
  H+  H309  1  0.87385445  0.32686995  0.25476766  1
  H+  H310  1  0.98376162  0.86082216  0.50477640  1
  H+  H311  1  0.92399101  0.59768562  0.59828416  1
  H+  H312  1  0.68424404  0.83780115  0.55644756  1
  H+  H313  1  0.92531896  0.85366651  0.57970262  1
  H+  H314  1  0.75953096  0.38361781  1.00060405  1
  H+  H315  1  0.64683444  0.07552485  0.89940269  1
  H+  H316  1  0.13928662  0.52694201  0.98804598  1
  H+  H317  1  0.26608237  0.88287707  0.48596957  1
  H+  H318  1  0.66669643  0.82175897  0.93301575  1
  H+  H319  1  0.33642822  0.65992929  0.72705537  1
  H+  H320  1  0.97639456  0.60025868  1.00137777  1
  H+  H321  1  0.89241456  0.03825381  0.16433833  1
  H+  H322  1  0.81435182  0.92027833  0.71857386  1
  H+  H323  1  0.35189866  0.61254269  0.48741890  1
  H+  H324  1  0.07540605  0.65717853  0.07187984  1
  H+  H325  1  0.88644996  0.90219883  0.47816269  1
  H+  H326  1  0.92436937  0.09798714  0.26041906  1
  H+  H327  1  0.18188182  0.34187950  0.90559789  1
  H+  H328  1  0.34365475  0.17268105  0.73288803  1
  H+  H329  1  0.93547470  0.82556513  0.26754428  1
  H+  H330  1  0.90444561  0.08035641  0.93439354  1
  H+  H331  1  0.83409407  0.66523873  0.09326713  1
  H+  H332  1  0.85510316  0.26248636  0.17040508  1
  H+  H333  1  0.83333809  0.67092277  0.43468687  1
  H+  H334  1  0.29995088  0.39114034  0.33982995  1
  H+  H335  1  0.55544862  0.16707283  0.05559738  1
  H+  H336  1  0.61646560  0.27753312  0.18155483  1
  H+  H337  1  0.65284644  0.55835513  0.91390367  1
  H+  H338  1  0.17894300  0.83247322  0.90703177  1
  H+  H339  1  0.13727436  0.60465417  0.50981957  1
  H+  H340  1  0.91833377  0.56666488  0.90443233  1
  H+  H341  1  0.21095599  0.34720300  0.55304618  1
  H+  H342  1  0.95076767  0.82229270  0.93251640  1
  H+  H343  1  0.68795515  0.85006296  0.68896096  1
  H+  H344  1  0.41050099  0.57131635  0.58919605  1
  H+  H345  1  0.09374660  0.18878755  0.08009630  1
  H+  H346  1  0.66686606  0.57220096  0.26957723  1
  H+  H347  1  0.08069625  0.65693163  0.43571455  1
  H+  H348  1  0.34462596  0.66884024  0.06778092  1
  H+  H349  1  0.90406128  0.32805253  0.56867565  1
  H+  H350  1  0.13862729  0.02896047  0.49171057  1
  H+  H351  1  0.49483916  0.61829676  0.16744532  1
  H+  H352  1  0.35456435  0.18581740  0.39479149  1
  H+  H353  1  0.17987381  0.34078126  0.26745749  1
  H+  H354  1  0.83017952  0.19078888  0.77393093  1
  H+  H355  1  0.38476984  0.81434215  0.56667186  1
  H+  H356  1  0.43347908  0.83709020  0.23753862  1
  H+  H357  1  0.42120482  0.08399412  0.22995696  1
  H+  H358  1  0.07764298  0.41230641  0.39637907  1
  H+  H359  1  0.80114618  0.41170554  0.09679427  1
  H+  H360  1  0.89020611  0.09231927  0.63923151  1
  H+  H361  1  0.11659390  0.88443880  0.14301321  1
  H+  H362  1  0.08519211  0.42761779  0.78294142  1
  H+  H363  1  0.63627748  0.50614728  1.02116319  1
  H+  H364  1  0.41823995  0.82591362  0.89879329  1
  H+  H365  1  0.77664623  0.04266418  0.89749252  1
  H+  H366  1  0.88142556  0.51131695  0.00081724  1
  H+  H367  1  0.39028976  0.30086519  0.25167455  1
  H+  H368  1  0.57538194  0.16578045  0.72921537  1
  H+  H369  1  0.58808891  0.66851822  0.39633292  1
  H+  H370  1  0.58162596  0.17376817  0.43646156  1
  H+  H371  1  0.08082086  0.91363733  0.43376085  1
  H+  H372  1  0.59306912  0.42169518  0.73874374  1
  H+  H373  1  0.17898311  0.20551563  0.75494423  1
  H+  H374  1  0.16626855  0.04188786  0.98343044  1
  H+  H375  1  0.57136521  0.40966917  0.40278541  1
  H+  H376  1  0.61875739  0.83973870  0.84289002  1
  H+  H377  1  0.00347386  0.67116116  0.68316874  1
  H+  H378  1  0.86126904  0.92982063  0.41586697  1
  H+  H379  1  0.63713060  0.19276392  0.12154252  1
  H+  H380  1  0.89887664  0.85917913  1.01577550  1
  H+  H381  1  0.67845812  0.83006006  0.22323545  1
  H+  H382  1  0.65046687  0.33941564  0.26830929  1
  H+  H383  1  0.14433717  0.56894925  0.25123490  1
  O2-  O384  1  0.08760785  0.18913393  0.12708050  1
  O2-  O385  1  0.09888661  0.18462484  0.47021224  1
  O2-  O386  1  0.18000769  0.20795145  0.79988233  1
  O2-  O387  1  0.04927585  0.39420511  0.18744946  1
  O2-  O388  1  0.06582509  0.40946414  0.47112271  1
  O2-  O389  1  0.09420868  0.43289853  0.82777273  1
  O2-  O390  1  0.05578189  0.64518306  0.14838711  1
  O2-  O391  1  0.08636062  0.66450560  0.48166453  1
  O2-  O392  1  0.08134936  0.67396430  0.81931494  1
  O2-  O393  1  0.09501900  0.92335401  0.13183581  1
  O2-  O394  1  0.07988933  0.91408689  0.47988472  1
  O2-  O395  1  0.08899302  0.91069140  0.81908191  1
  O2-  O396  1  0.31928652  0.15862148  0.15357005  1
  O2-  O397  1  0.33655756  0.16611657  0.47033101  1
  O2-  O398  1  0.34410949  0.15381146  0.80745059  1
  O2-  O399  1  0.34656733  0.42393349  0.15501376  1
  O2-  O400  1  0.29475285  0.39966535  0.48945121  1
  O2-  O401  1  0.34148882  0.41467693  0.81543937  1
  O2-  O402  1  0.36664377  0.67723371  0.14501340  1
  O2-  O403  1  0.32283546  0.64604055  0.47125459  1
  O2-  O404  1  0.33823462  0.66491030  0.80827172  1
  O2-  O405  1  0.34912371  0.91779939  0.13817042  1
  O2-  O406  1  0.32818905  0.91096778  0.47398735  1
  O2-  O407  1  0.33345263  0.90786336  0.81170828  1
  O2-  O408  1  0.59914800  0.16979732  0.15655717  1
  O2-  O409  1  0.58044707  0.17640966  0.48184800  1
  O2-  O410  1  0.57932093  0.15944866  0.79756853  1
  O2-  O411  1  0.57563768  0.42761179  0.12340621  1
  O2-  O412  1  0.58902229  0.42393288  0.47991091  1
  O2-  O413  1  0.58175553  0.41172010  0.81640380  1
  O2-  O414  1  0.58677054  0.66582860  0.14221970  1
  O2-  O415  1  0.58254667  0.66921911  0.47856960  1
  O2-  O416  1  0.57830464  0.64378855  0.81596117  1
  O2-  O417  1  0.59514522  0.92136328  0.14767269  1
  O2-  O418  1  0.55683331  0.89876615  0.51398006  1
  O2-  O419  1  0.58034909  0.90490657  0.81499999  1
  O2-  O420  1  0.82074329  0.16152793  0.15247974  1
  O2-  O421  1  0.84072797  0.17668441  0.46998531  1
  O2-  O422  1  0.82601239  0.18742563  0.82372156  1
  O2-  O423  1  0.79852525  0.41051899  0.14300973  1
  O2-  O424  1  0.82451759  0.41414744  0.48078899  1
  O2-  O425  1  0.84548678  0.39238233  0.82374651  1
  O2-  O426  1  0.83727963  0.67071357  0.13757486  1
  O2-  O427  1  0.83675288  0.67302882  0.48018874  1
  O2-  O428  1  0.82032076  0.64640773  0.84869993  1
  O2-  O429  1  0.84369130  0.94410913  0.13985495  1
  O2-  O430  1  0.86759813  0.94016896  0.46040015  1
  O2-  O431  1  0.80501452  0.93514429  0.80314152  1
  O2-  O432  1  0.17860549  0.06615183  0.20462018  1
  O2-  O433  1  0.17401454  0.08862895  0.50697280  1
  O2-  O434  1  0.19033083  0.08337582  0.85075351  1
  O2-  O435  1  0.17568280  0.34636952  0.18196669  1
  O2-  O436  1  0.20571531  0.35831116  0.50903000  1
  O2-  O437  1  0.17624246  0.34684670  0.85951076  1
  O2-  O438  1  0.12694362  0.56083540  0.20433540  1
  O2-  O439  1  0.16460447  0.57037740  0.52141885  1
  O2-  O440  1  0.17821978  0.59983191  0.85397069  1
  O2-  O441  1  0.10280435  0.79223804  0.19664514  1
  O2-  O442  1  0.16329983  0.82923002  0.51267458  1
  O2-  O443  1  0.17868264  0.83443929  0.86132126  1
  O2-  O444  1  0.41828476  0.08248932  0.18448054  1
  O2-  O445  1  0.41008603  0.07778551  0.51752859  1
  O2-  O446  1  0.42465278  0.07134903  0.84567746  1
  O2-  O447  1  0.39442239  0.30758167  0.20686563  1
  O2-  O448  1  0.45165554  0.30666668  0.53699858  1
  O2-  O449  1  0.41947134  0.33366533  0.87854936  1
  O2-  O450  1  0.43309489  0.59071183  0.18402554  1
  O2-  O451  1  0.39031843  0.55710545  0.51092454  1
  O2-  O452  1  0.41618945  0.57783036  0.85188449  1
  O2-  O453  1  0.43711684  0.84003071  0.19210636  1
  O2-  O454  1  0.38865226  0.81198983  0.52149114  1
  O2-  O455  1  0.41809330  0.82632417  0.85325275  1
  O2-  O456  1  0.66222219  0.07524646  0.20177838  1
  O2-  O457  1  0.69073001  0.12193773  0.53412782  1
  O2-  O458  1  0.65134076  0.07702838  0.85427416  1
  O2-  O459  1  0.64070258  0.33895831  0.19082549  1
  O2-  O460  1  0.66360918  0.33704715  0.52673884  1
  O2-  O461  1  0.66531734  0.32517950  0.84640070  1
  O2-  O462  1  0.68623628  0.56434411  0.19896132  1
  O2-  O463  1  0.66912124  0.58777311  0.51869128  1
  O2-  O464  1  0.65673322  0.56504509  0.86883884  1
  O2-  O465  1  0.67887235  0.83482197  0.17824922  1
  O2-  O466  1  0.65884018  0.82935847  0.51624096  1
  O2-  O467  1  0.65298175  0.81219469  0.85494054  1
  O2-  O468  1  0.92281694  0.09993223  0.18092912  1
  O2-  O469  1  0.92868655  0.09696086  0.50235250  1
  O2-  O470  1  0.83253470  0.06741805  0.87769036  1
  O2-  O471  1  0.87779100  0.32386188  0.18369953  1
  O2-  O472  1  0.90300664  0.33246675  0.52329776  1
  O2-  O473  1  0.94755153  0.31833268  0.89077081  1
  O2-  O474  1  0.89412600  0.57201227  0.18731773  1
  O2-  O475  1  0.91842285  0.58530991  0.51754301  1
  O2-  O476  1  0.91511463  0.56805532  0.85929145  1
  O2-  O477  1  0.95959268  0.81185843  0.19667263  1
  O2-  O478  1  0.92287969  0.83407743  0.52184269  1
  O2-  O479  1  0.94518045  0.79953193  0.89076790  1
  O2-  O480  1  0.17797463  0.08898008  0.32323729  1
  O2-  O481  1  0.14762172  0.02581176  0.63781217  1
  O2-  O482  1  0.19667790  0.10473879  0.97120393  1
  O2-  O483  1  0.17753322  0.33957719  0.31231576  1
  O2-  O484  1  0.20485117  0.32559490  0.62732630  1
  O2-  O485  1  0.19288577  0.33752990  0.97850781  1
  O2-  O486  1  0.16112319  0.57268252  0.31560651  1
  O2-  O487  1  0.18995561  0.51420991  0.63236473  1
  O2-  O488  1  0.16948258  0.59022881  0.98012679  1
  O2-  O489  1  0.17926733  0.85487926  0.30049050  1
  O2-  O490  1  0.19503761  0.80272142  0.63172623  1
  O2-  O491  1  0.17914676  0.82945067  0.98380959  1
  O2-  O492  1  0.42912483  0.08976680  0.30855793  1
  O2-  O493  1  0.41116362  0.08852463  0.64528684  1
  O2-  O494  1  0.41617986  0.08270765  0.96715785  1
  O2-  O495  1  0.40004769  0.27266171  0.33046020  1
  O2-  O496  1  0.43418734  0.34623098  0.65269111  1
  O2-  O497  1  0.44571639  0.36200650  0.99752270  1
  O2-  O498  1  0.42408292  0.59764642  0.30740355  1
  O2-  O499  1  0.41183288  0.57603457  0.63482105  1
  O2-  O500  1  0.44430488  0.62823152  0.96471001  1
  O2-  O501  1  0.42437370  0.83299682  0.31649330  1
  O2-  O502  1  0.39994749  0.82846214  0.64531911  1
  O2-  O503  1  0.42515278  0.83292660  0.97809110  1
  O2-  O504  1  0.66488698  0.08187858  0.32499576  1
  O2-  O505  1  0.72018115  0.07692343  0.64262268  1
  O2-  O506  1  0.65245088  0.07781836  0.98083306  1
  O2-  O507  1  0.65558926  0.33572131  0.31355728  1
  O2-  O508  1  0.65310386  0.32355384  0.64903045  1
  O2-  O509  1  0.67144016  0.33233942  0.96835367  1
  O2-  O510  1  0.66077397  0.57608039  0.31511032  1
  O2-  O511  1  0.65871931  0.58363698  0.64005998  1
  O2-  O512  1  0.66342435  0.55969096  0.99438416  1
  O2-  O513  1  0.67444228  0.82589623  0.30385868  1
  O2-  O514  1  0.62607922  0.82425124  0.69841127  1
  O2-  O515  1  0.67184061  0.82678306  0.97834939  1
  O2-  O516  1  0.91987681  0.09504315  0.30573417  1
  O2-  O517  1  0.84370592  0.04793376  0.61506810  1
  O2-  O518  1  0.93781328  0.07419444  0.96871562  1
  O2-  O519  1  0.87792262  0.33022909  0.30130969  1
  O2-  O520  1  0.90769421  0.33020045  0.64680418  1
  O2-  O521  1  0.91062848  0.34216141  0.99947388  1
  O2-  O522  1  0.89746057  0.56741243  0.31157082  1
  O2-  O523  1  0.91937386  0.59997226  0.64317531  1
  O2-  O524  1  0.91733120  0.57107864  0.98341510  1
  O2-  O525  1  0.92595516  0.82922280  0.31221492  1
  O2-  O526  1  0.93455031  0.88384760  0.62622256  1
  O2-  O527  1  0.94000083  0.83752798  1.01262425  1
  O2-  O528  1  0.11251155  0.18606288  0.01223570  1
  O2-  O529  1  0.08498151  0.16998886  0.34735759  1
  O2-  O530  1  0.19351988  0.18087806  0.67883259  1
  O2-  O531  1  0.08403928  0.41638117  -0.00807658  1
  O2-  O532  1  0.08745499  0.41734530  0.35093122  1
  O2-  O533  1  0.07070299  0.40867054  0.70445483  1
  O2-  O534  1  0.07995296  0.66249553  0.02649979  1
  O2-  O535  1  0.06785168  0.64412178  0.36321338  1
  O2-  O536  1  0.05274096  0.71839800  0.70658533  1
  O2-  O537  1  0.11502167  0.94005972  -0.01320484  1
  O2-  O538  1  0.08783892  0.92121982  0.36039922  1
  O2-  O539  1  0.04469984  0.86946711  0.69872452  1
  O2-  O540  1  0.36444879  0.19867126  -0.04180068  1
  O2-  O541  1  0.35649990  0.18400717  0.34891934  1
  O2-  O542  1  0.34430921  0.18320468  0.68801523  1
  O2-  O543  1  0.33620514  0.41608538  0.03128653  1
  O2-  O544  1  0.36246837  0.42252556  0.34544587  1
  O2-  O545  1  0.34530240  0.42129664  0.68847292  1
  O2-  O546  1  0.33483845  0.66816975  0.02300819  1
  O2-  O547  1  0.33059579  0.66581803  0.34961390  1
  O2-  O548  1  0.33609726  0.66322734  0.68179787  1
  O2-  O549  1  0.34706133  0.91657373  0.01965958  1
  O2-  O550  1  0.34579917  0.92704630  0.34958463  1
  O2-  O551  1  0.33433804  0.92431843  0.68956902  1
  O2-  O552  1  0.56809186  0.16094418  0.01343249  1
  O2-  O553  1  0.58750412  0.17141787  0.35701274  1
  O2-  O554  1  0.57071026  0.17201390  0.68254727  1
  O2-  O555  1  0.58928343  0.41757602  0.06047116  1
  O2-  O556  1  0.56552547  0.40259504  0.35773941  1
  O2-  O557  1  0.59575315  0.42272924  0.69322587  1
  O2-  O558  1  0.60136926  0.66164679  0.01762329  1
  O2-  O559  1  0.59073153  0.67027155  0.35115766  1
  O2-  O560  1  0.56839187  0.65338981  0.69059832  1
  O2-  O561  1  0.58880074  0.91419057  0.02125547  1
  O2-  O562  1  0.58209275  0.92841476  0.38143902  1
  O2-  O563  1  0.57553552  0.92236184  0.63674152  1
  O2-  O564  1  0.80704248  0.16659919  0.02907871  1
  O2-  O565  1  0.83556313  0.17924006  0.34415908  1
  O2-  O566  1  0.83758767  0.19037052  0.71147062  1
  O2-  O567  1  0.81627972  0.41501480  0.02434031  1
  O2-  O568  1  0.81478313  0.40830855  0.34923712  1
  O2-  O569  1  0.83858522  0.43264005  0.66365628  1
  O2-  O570  1  0.83809310  0.65480187  0.00010459  1
  O2-  O571  1  0.82886757  0.66317175  0.35569757  1
  O2-  O572  1  0.83845073  0.69907991  0.64850623  1
  O2-  O573  1  0.83902339  0.90910022  0.01649948  1
  O2-  O574  1  0.84757990  0.92290765  0.33645662  1
  O2-  O575  1  0.80521150  0.90281452  0.67531648  1
