# generated using pymatgen
data_H2O
_symmetry_space_group_name_H-M   'P 1'
_cell_length_a   17.98758696
_cell_length_b   17.98689625
_cell_length_c   21.98434270
_cell_angle_alpha   89.99357972
_cell_angle_beta   89.99859745
_cell_angle_gamma   120.03300431
_symmetry_Int_Tables_number   1
_chemical_formula_structural   H2O
_chemical_formula_sum   'H384 O192'
_cell_volume   6157.84450191
_cell_formula_units_Z   192
loop_
 _symmetry_equiv_pos_site_id
 _symmetry_equiv_pos_as_xyz
  1  'x, y, z'
loop_
 _atom_type_symbol
 _atom_type_oxidation_number
  H+  1.0
  O2-  -2.0
loop_
 _atom_site_type_symbol
 _atom_site_label
 _atom_site_symmetry_multiplicity
 _atom_site_fract_x
 _atom_site_fract_y
 _atom_site_fract_z
 _atom_site_occupancy
  H+  H0  1  0.14630522  0.81886254  0.50237046  1
  H+  H1  1  0.12972951  0.35376353  0.53512600  1
  H+  H2  1  0.75090341  0.64069124  0.00941700  1
  H+  H3  1  0.47616209  0.61036916  -0.01506826  1
  H+  H4  1  0.91148719  0.47291714  0.38293077  1
  H+  H5  1  0.11907463  0.23228711  0.65131456  1
  H+  H6  1  0.86245666  0.23650585  0.67640322  1
  H+  H7  1  0.38970862  0.36882074  0.32803679  1
  H+  H8  1  0.36350008  0.65129288  0.31938987  1
  H+  H9  1  0.73542933  0.91115550  0.32837586  1
  H+  H10  1  0.93215087  0.09577498  0.91988483  1
  H+  H11  1  0.26699839  0.38412265  0.81510659  1
  H+  H12  1  0.72419614  0.11139667  0.53928313  1
  H+  H13  1  0.21936915  0.84359442  0.32262712  1
  H+  H14  1  0.18708093  0.34380615  0.27293241  1
  H+  H15  1  0.13434892  0.01426996  0.17487597  1
  H+  H16  1  0.61342281  0.87736628  0.13428763  1
  H+  H17  1  0.46159653  0.35624851  0.97524827  1
  H+  H18  1  0.55751259  0.65910809  0.43201958  1
  H+  H19  1  0.02881138  0.37935989  0.15211730  1
  H+  H20  1  0.39038731  0.87365179  -0.02534370  1
  H+  H21  1  0.98387033  0.61754334  0.84574900  1
  H+  H22  1  0.87868407  0.49338439  0.52445810  1
  H+  H23  1  0.45620374  0.11519538  0.32844748  1
  H+  H24  1  0.84018380  0.16635626  0.59313899  1
  H+  H25  1  0.08660142  -0.01841874  0.35059755  1
  H+  H26  1  0.77317081  0.63022136  0.83112170  1
  H+  H27  1  0.46081728  0.11075491  0.84043247  1
  H+  H28  1  0.14078529  0.27033824  0.83231157  1
  H+  H29  1  0.63939309  -0.01011655  0.49281453  1
  H+  H30  1  0.08004445  0.90932779  0.06138680  1
  H+  H31  1  0.85844942  0.88669112  0.82487783  1
  H+  H32  1  0.27885877  0.88978038  -0.00239309  1
  H+  H33  1  0.60036789  0.86231958  0.79383612  1
  H+  H34  1  0.02926124  0.38361390  0.83264166  1
  H+  H35  1  0.46288971  0.86014081  0.32614596  1
  H+  H36  1  0.63486470  0.36149707  0.51216821  1
  H+  H37  1  0.38766978  0.60605219  0.18340273  1
  H+  H38  1  0.87256277  0.47015560  0.16037635  1
  H+  H39  1  0.88238915  0.36978348  0.67181864  1
  H+  H40  1  0.11604277  0.92095597  0.49813358  1
  H+  H41  1  1.02246848  0.62596723  0.16395165  1
  H+  H42  1  0.36537059  0.97966010  0.00210166  1
  H+  H43  1  0.27853802  0.14156179  0.67129463  1
  H+  H44  1  0.38387147  0.52541199  0.98733037  1
  H+  H45  1  0.46896163  0.10332204  0.67239842  1
  H+  H46  1  0.62956862  0.13051984  0.15931041  1
  H+  H47  1  0.99531295  0.12863107  0.32709197  1
  H+  H48  1  0.82878398  -0.00086274  0.33530444  1
  H+  H49  1  0.36551249  0.10232238  0.16810326  1
  H+  H50  1  0.60648126  0.84109109  0.31156804  1
  H+  H51  1  0.59622097  0.95498534  0.33134583  1
  H+  H52  1  0.46323198  0.84179259  0.14922221  1
  H+  H53  1  0.63930173  0.61357869  0.84556753  1
  H+  H54  1  0.64629102  0.11632876  0.97602398  1
  H+  H55  1  0.20980287  0.62856246  0.62294502  1
  H+  H56  1  0.11890833  0.97158849  0.82307330  1
  H+  H57  1  0.36522272  0.00424863  0.16862989  1
  H+  H58  1  0.33008808  0.91900338  0.09426338  1
  H+  H59  1  0.12784703  0.61820373  0.34480395  1
  H+  H60  1  0.61553940  0.64026360  0.67846216  1
  H+  H61  1  0.86156480  0.23118012  0.53857455  1
  H+  H62  1  0.21632852  0.10988371  0.32787874  1
  H+  H63  1  1.04429449  0.39451187  0.34208686  1
  H+  H64  1  0.10453395  0.59462352  0.51367570  1
  H+  H65  1  0.37393639  0.36091681  0.82777235  1
  H+  H66  1  0.50991541  -0.11358349  0.79719759  1
  H+  H67  1  0.89338946  0.11320551  0.66481347  1
  H+  H68  1  0.32073664  0.41210830  0.75212350  1
  H+  H69  1  0.62572915  -0.02111486  0.97282649  1
  H+  H70  1  0.63637393  0.10988953  0.52296322  1
  H+  H71  1  0.85487317  0.75317502  0.33837063  1
  H+  H72  1  0.12973216  0.60061243  0.18639843  1
  H+  H73  1  0.25982317  0.38156332  0.65127800  1
  H+  H74  1  0.98636395  0.85563132  0.82847366  1
  H+  H75  1  0.64348515  0.01133393  0.15818294  1
  H+  H76  1  0.82600837  0.40687367  0.46248302  1
  H+  H77  1  0.13751223  0.35825842  0.83425590  1
  H+  H78  1  0.10393370  0.46416682  0.18747127  1
  H+  H79  1  0.64257130  0.03544091  0.83008120  1
  H+  H80  1  0.16092777  0.08022974  0.89292338  1
  H+  H81  1  0.38099931  0.11463404  0.99408845  1
  H+  H82  1  0.72575516  0.35827198  0.52292355  1
  H+  H83  1  0.61093087  0.71491079  0.00974513  1
  H+  H84  1  -0.00848553  0.90565303  0.36886287  1
  H+  H85  1  0.85984343  0.71128711  0.16612143  1
  H+  H86  1  0.50762019  0.36935411  0.50294197  1
  H+  H87  1  0.13112162  0.90211099  0.66643986  1
  H+  H88  1  0.36683213  0.10715082  0.32137091  1
  H+  H89  1  0.41196201  0.08397378  0.60481524  1
  H+  H90  1  0.40073253  0.86393126  0.68239030  1
  H+  H91  1  0.60244794  0.90159492  -0.07192041  1
  H+  H92  1  0.35105434  0.22208692  1.00279621  1
  H+  H93  1  0.41345165  0.56756785  0.89195627  1
  H+  H94  1  0.89682142  0.11782165  0.82984952  1
  H+  H95  1  0.15558863  0.27729445  0.17598203  1
  H+  H96  1  -0.02838981  0.62004300  -0.00257679  1
  H+  H97  1  0.38628840  0.48590484  0.34661773  1
  H+  H98  1  0.37099073  0.86340860  0.32803932  1
  H+  H99  1  0.38293845  0.89333435  0.50110287  1
  H+  H100  1  0.63096966  0.53445390  0.65930222  1
  H+  H101  1  0.28951014  0.87780569  0.49728329  1
  H+  H102  1  0.58802787  0.11158164  0.33341276  1
  H+  H103  1  0.47155275  0.37228053  0.65525976  1
  H+  H104  1  0.13299787  0.16104308  0.50051415  1
  H+  H105  1  0.78500944  0.37980074  0.16044248  1
  H+  H106  1  0.69082485  0.35421924  0.27376286  1
  H+  H107  1  0.51743359  0.37665643  0.05907902  1
  H+  H108  1  0.89800098  0.76344620  0.51886069  1
  H+  H109  1  0.12762501  0.14315467  0.15698767  1
  H+  H110  1  0.13492965  0.11542500  0.98944181  1
  H+  H111  1  0.78102248  0.12681247  0.15619280  1
  H+  H112  1  0.87667101  0.88388882  -0.02258939  1
  H+  H113  1  0.61628622  0.23237352  0.97541499  1
  H+  H114  1  0.71560413  0.37729881  0.66731594  1
  H+  H115  1  0.14090497  0.26791447  0.52950539  1
  H+  H116  1  0.35026935  0.38360115  0.65974156  1
  H+  H117  1  0.13900722  0.53349695  0.34863754  1
  H+  H118  1  0.38434815  0.73704034  0.69542164  1
  H+  H119  1  0.13171066  0.39571814  0.35005100  1
  H+  H120  1  0.39811605  0.08175424  0.89634730  1
  H+  H121  1  0.97419518  0.61540122  0.66515198  1
  H+  H122  1  0.87847435  0.36550019  0.51911734  1
  H+  H123  1  0.82844842  0.40818643  0.89886258  1
  H+  H124  1  0.14685079  0.12450924  0.65601609  1
  H+  H125  1  0.63535016  0.86031315  0.67389838  1
  H+  H126  1  0.10720228  0.50868250  0.59010161  1
  H+  H127  1  0.47895042  0.84915594  0.52636185  1
  H+  H128  1  0.89915884  0.36105358  0.85437980  1
  H+  H129  1  0.14775071  0.87217716  0.97805699  1
  H+  H130  1  0.61214009  0.63149058  0.16158010  1
  H+  H131  1  0.00882496  0.36190814  0.50517381  1
  H+  H132  1  0.24627851  0.37681235  0.33286440  1
  H+  H133  1  0.14947613  0.60192590  0.87631726  1
  H+  H134  1  0.65413027  0.26934845  0.17882878  1
  H+  H135  1  0.08537184  0.65666245  0.10648805  1
  H+  H136  1  0.62041167  0.14614708  0.83404073  1
  H+  H137  1  0.87498122  0.62804834  0.50374200  1
  H+  H138  1  0.11807465  0.23515435  1.00076187  1
  H+  H139  1  0.63368569  0.36347178  0.00304628  1
  H+  H140  1  0.35532257  0.22513502  0.33287979  1
  H+  H141  1  0.98615324  0.63327302  0.33143348  1
  H+  H142  1  0.11507846  0.74358828  1.00345425  1
  H+  H143  1  0.24356927  0.13216778  0.50086476  1
  H+  H144  1  0.60292234  0.62167605  1.00332155  1
  H+  H145  1  0.11959322  0.47058557  0.83547880  1
  H+  H146  1  0.14920460  0.04788394  0.50477182  1
  H+  H147  1  0.92210236  0.34342204  0.57776064  1
  H+  H148  1  0.13243574  0.72774208  0.83900613  1
  H+  H149  1  0.85243671  0.85601166  0.41010500  1
  H+  H150  1  0.52389429  0.63749051  0.68439990  1
  H+  H151  1  0.63193842  0.77819051  0.83503820  1
  H+  H152  1  0.40827858  0.24745125  0.48428839  1
  H+  H153  1  0.85658736  0.20664745  0.36199944  1
  H+  H154  1  0.56685697  0.07661624  0.35689215  1
  H+  H155  1  0.28537642  0.88099019  0.69990379  1
  H+  H156  1  0.89842797  0.27269951  0.84780808  1
  H+  H157  1  0.64750106  0.60303014  0.48341769  1
  H+  H158  1  0.60581835  0.39841390  0.66948487  1
  H+  H159  1  0.39562473  0.27529483  0.14542913  1
  H+  H160  1  0.23810303  0.85061184  0.81700601  1
  H+  H161  1  0.26185823  0.61583921  0.17995136  1
  H+  H162  1  0.93542301  0.33104598  0.07269743  1
  H+  H163  1  0.88214678  0.83895204  0.20359328  1
  H+  H164  1  0.87317604  0.67843534  0.31451470  1
  H+  H165  1  0.86329568  0.48726933  0.00514552  1
  H+  H166  1  0.39963108  0.11715487  0.50933013  1
  H+  H167  1  0.86102709  0.63402197  0.67588249  1
  H+  H168  1  0.41941931  0.58615152  0.61582694  1
  H+  H169  1  0.86051090  0.37416434  0.37461311  1
  H+  H170  1  0.48115918  0.61522146  0.17656549  1
  H+  H171  1  0.54084705  0.38736400  0.16560340  1
  H+  H172  1  0.37316942  0.47860843  0.16156987  1
  H+  H173  1  0.62461999  0.41138091  0.33696209  1
  H+  H174  1  0.13211106  0.75357889  0.31750763  1
  H+  H175  1  0.38740682  0.27974569  0.65637054  1
  H+  H176  1  0.91278088  0.14043238  0.31671977  1
  H+  H177  1  0.58807859  0.10955497  0.68993025  1
  H+  H178  1  0.25064720  0.64601996  0.68702358  1
  H+  H179  1  0.77074309  0.88557063  0.67526764  1
  H+  H180  1  0.72458085  0.61031651  0.18111582  1
  H+  H181  1  0.59965103  0.38875116  0.82365790  1
  H+  H182  1  0.36760877  0.61549470  0.83452024  1
  H+  H183  1  0.86288001  0.48392910  0.68361010  1
  H+  H184  1  0.09539620  0.18632952  0.40415407  1
  H+  H185  1  0.90132909  0.25567341  0.30111625  1
  H+  H186  1  0.41637049  0.33981470  0.26686863  1
  H+  H187  1  0.51040082  0.38827598  0.82403978  1
  H+  H188  1  0.63624727  0.77206112  0.66944635  1
  H+  H189  1  0.60125025  0.71445003  0.49188785  1
  H+  H190  1  0.02523170  0.88164211  -0.00029820  1
  H+  H191  1  -0.02416009  0.38041340  0.67226268  1
  H+  H192  1  0.64751572  0.86075164  0.99814450  1
  H+  H193  1  0.78481270  0.14257186  0.82330803  1
  H+  H194  1  0.22882747  0.37165591  0.98862290  1
  H+  H195  1  0.63534385  0.01551028  0.68564050  1
  H+  H196  1  0.12565657  0.98856967  0.66721922  1
  H+  H197  1  0.76697295  0.84540618  0.48667947  1
  H+  H198  1  0.64950828  0.51569820  0.48746021  1
  H+  H199  1  0.39839582  0.36599396  0.14307508  1
  H+  H200  1  0.71816508  0.37087246  0.84336441  1
  H+  H201  1  0.37249823  0.74090261  0.96285636  1
  H+  H202  1  0.11478723  0.47757776  0.52553976  1
  H+  H203  1  0.64338927  0.85689791  0.51048734  1
  H+  H204  1  0.82286517  0.65903573  0.10440997  1
  H+  H205  1  0.72159430  0.61991026  0.66360745  1
  H+  H206  1  0.89322781  0.02663056  0.83169732  1
  H+  H207  1  0.57559393  0.65014448  0.09967724  1
  H+  H208  1  0.57792727  0.91209083  0.08283783  1
  H+  H209  1  0.65382738  0.35844702  0.18181731  1
  H+  H210  1  0.26724861  0.88099369  0.15345156  1
  H+  H211  1  0.19399421  0.55402208  1.03379255  1
  H+  H212  1  0.70693894  0.09608364  0.31719955  1
  H+  H213  1  0.15608928  0.74011198  0.51559876  1
  H+  H214  1  0.57852294  0.16662316  -0.07869799  1
  H+  H215  1  0.52839015  0.63611703  0.82810565  1
  H+  H216  1  0.26917276  0.64285198  0.31829479  1
  H+  H217  1  0.72317560  0.01731090  0.31461412  1
  H+  H218  1  0.88175276  0.77054460  -0.01914443  1
  H+  H219  1  0.77834602  0.88141340  0.16086586  1
  H+  H220  1  0.62593610  0.50907572  0.99999928  1
  H+  H221  1  0.88730029  0.11206915  0.17606001  1
  H+  H222  1  0.90941190  0.12998622  0.52345369  1
  H+  H223  1  0.35316552  0.42251299  0.40523894  1
  H+  H224  1  0.68223287  0.83201268  0.08924915  1
  H+  H225  1  0.61170550  0.23238829  0.83440923  1
  H+  H226  1  0.89260115  0.76601589  0.82922711  1
  H+  H227  1  0.74555060  0.39631032  0.33348120  1
  H+  H228  1  0.38285960  0.60560878  0.53445588  1
  H+  H229  1  0.47137727  0.11736714  -0.01775572  1
  H+  H230  1  0.37775954  0.84605906  0.15356855  1
  H+  H231  1  0.38068275  0.51203275  0.82771797  1
  H+  H232  1  0.12895969  0.66525293  0.68313272  1
  H+  H233  1  0.26418370  0.13197466  0.00266305  1
  H+  H234  1  -0.07190017  0.84159215  0.74189512  1
  H+  H235  1  0.57179963  0.62088727  0.33094793  1
  H+  H236  1  0.35597424  -0.02630975  0.34225089  1
  H+  H237  1  0.03115748  0.13901820  0.81266383  1
  H+  H238  1  -0.02758706  0.58537074  0.52303272  1
  H+  H239  1  0.38998355  1.02258079  0.51526128  1
  H+  H240  1  0.88628084  0.60209166  0.17180723  1
  H+  H241  1  0.03976051  0.15660486  0.50494820  1
  H+  H242  1  0.26541746  0.62606479  0.53074144  1
  H+  H243  1  0.90011536  1.02826978  -0.02697979  1
  H+  H244  1  0.88193360  0.56439489  0.33016480  1
  H+  H245  1  0.38133020  0.12022254  0.66634045  1
  H+  H246  1  0.87083192  0.21584785  0.13910953  1
  H+  H247  1  0.88258253  0.01621229  0.18802788  1
  H+  H248  1  0.35880504  0.39055686  1.00200095  1
  H+  H249  1  0.27608967  0.62195951  0.84408782  1
  H+  H250  1  0.12898093  0.24466680  0.34447342  1
  H+  H251  1  0.57384683  0.25404993  0.37297086  1
  H+  H252  1  0.63023461  0.53542501  0.33238133  1
  H+  H253  1  0.37373904  0.46889359  0.49684599  1
  H+  H254  1  0.40215538  0.88667102  0.80479991  1
  H+  H255  1  0.87059283  0.48208319  0.85149811  1
  H+  H256  1  0.04767322  0.73024296  0.05197660  1
  H+  H257  1  -0.02676103  0.86097861  0.52318687  1
  H+  H258  1  0.09498334  0.17380878  0.75497923  1
  H+  H259  1  0.47883103  0.87317919  -0.03248541  1
  H+  H260  1  0.37446324  0.27133682  0.83173487  1
  H+  H261  1  0.91309480  0.39722098  -0.00083296  1
  H+  H262  1  0.71122612  0.63192295  0.32489990  1
  H+  H263  1  0.34923043  0.71729158  0.54267631  1
  H+  H264  1  0.92837165  0.09159328  0.24436623  1
  H+  H265  1  1.02059927  0.87079855  0.16711603  1
  H+  H266  1  0.38668137  0.38750894  0.48835362  1
  H+  H267  1  0.26778531  0.12723085  0.15947711  1
  H+  H268  1  0.52947371  0.39764969  0.33857750  1
  H+  H269  1  0.10991652  0.87472901  0.15972850  1
  H+  H270  1  0.45119424  0.88327087  0.86865091  1
  H+  H271  1  0.45295998  0.60010834  0.27439397  1
  H+  H272  1  0.86284942  0.12697373  -0.00435301  1
  H+  H273  1  0.62044335  0.23248853  0.51163200  1
  H+  H274  1  0.93756168  0.38697443  0.26724927  1
  H+  H275  1  0.35818248  0.13892231  0.82503300  1
  H+  H276  1  0.06901980  0.44584538  -0.00847961  1
  H+  H277  1  0.13836620  0.76485597  0.16877268  1
  H+  H278  1  0.34572000  0.70168281  0.15618921  1
  H+  H279  1  0.63026788  0.52092258  0.84084032  1
  H+  H280  1  0.14717277  0.36108208  0.18464860  1
  H+  H281  1  0.36913230  0.76686697  0.30696696  1
  H+  H282  1  0.15353024  0.86191603  0.82506439  1
  H+  H283  1  0.89231831  0.61597738  0.83875076  1
  H+  H284  1  0.13436637  0.10851338  0.83076450  1
  H+  H285  1  0.26781441  0.13657075  0.82178567  1
  H+  H286  1  0.08549189  0.69923601  0.73139649  1
  H+  H287  1  0.11642069  0.64510546  0.80097917  1
  H+  H288  1  0.87347493  0.91658319  0.13686679  1
  H+  H289  1  0.82870991  0.91864090  0.76713424  1
  H+  H290  1  0.60161938  0.16467771  0.10329885  1
  H+  H291  1  0.86617980  0.72526199  0.68624116  1
  H+  H292  1  0.42877606  0.84170352  0.58758924  1
  H+  H293  1  0.09771342  0.92019972  0.76066962  1
  H+  H294  1  0.37832711  0.52130760  0.66941652  1
  H+  H295  1  0.16283103  0.07632309  0.23333258  1
  H+  H296  1  0.11707921  0.51212591  0.68828110  1
  H+  H297  1  0.18089504  0.84083826  0.92034087  1
  H+  H298  1  0.65499300  0.56417255  0.93610660  1
  H+  H299  1  0.14539164  0.42621144  0.98280564  1
  H+  H300  1  0.61842152  0.76204275  0.31297580  1
  H+  H301  1  0.85682377  0.85125111  0.50152289  1
  H+  H302  1  0.03081655  0.14552917  -0.00022628  1
  H+  H303  1  0.82795055  0.42226626  0.74162476  1
  H+  H304  1  0.83362833  0.42167914  0.06208617  1
  H+  H305  1  0.91237950  0.57237243  0.60711106  1
  H+  H306  1  0.28351197  0.39055774  0.16029894  1
  H+  H307  1  0.10199744  0.17915782  0.09946215  1
  H+  H308  1  0.03259414  0.14163493  0.66540687  1
  H+  H309  1  0.33923936  0.91747732  0.40346963  1
  H+  H310  1  0.84612378  0.17659418  0.76561381  1
  H+  H311  1  0.77234143  0.14316336  0.67933768  1
  H+  H312  1  0.73503848  0.11137467  0.98706821  1
  H+  H313  1  0.07226248  0.94167323  0.44162312  1
  H+  H314  1  0.40032851  0.69987694  0.42336918  1
  H+  H315  1  0.65717951  0.34491186  0.89972860  1
  H+  H316  1  0.89553611  0.35522404  0.12804160  1
  H+  H317  1  0.65202324  0.06602954  0.62243261  1
  H+  H318  1  0.79502656  0.63570762  0.48288244  1
  H+  H319  1  0.59011382  0.66852401  0.77080305  1
  H+  H320  1  0.28651804  0.64662338  1.01146852  1
  H+  H321  1  0.53299047  0.13991393  0.51439331  1
  H+  H322  1  0.33762760  0.66334710  0.77892999  1
  H+  H323  1  0.98615144  0.87027698  0.68408746  1
  H+  H324  1  0.13192826  0.02391575  0.99036013  1
  H+  H325  1  0.56725424  0.90501482  0.39415582  1
  H+  H326  1  0.17167616  0.33813315  0.92781528  1
  H+  H327  1  0.33921619  0.17121265  0.39325746  1
  H+  H328  1  0.15499278  0.57781794  0.25129516  1
  H+  H329  1  0.66068618  0.58851298  0.23917363  1
  H+  H330  1  0.14996482  0.79129930  0.66229288  1
  H+  H331  1  0.16737156  0.54028446  0.91925045  1
  H+  H332  1  0.67865099  0.08677522  0.89255958  1
  H+  H333  1  0.47133795  0.60831132  0.51643734  1
  H+  H334  1  0.79344219  0.16016890  0.43457015  1
  H+  H335  1  0.07767741  0.39082979  0.44860168  1
  H+  H336  1  0.39592065  0.32774125  0.92151860  1
  H+  H337  1  0.39610300  0.07054685  0.23291639  1
  H+  H338  1  0.86476355  0.92878745  0.03448306  1
  H+  H339  1  0.44437349  0.20143170  0.43890610  1
  H+  H340  1  0.08593908  0.43662814  0.73601269  1
  H+  H341  1  0.73561686  0.85810607  0.99723690  1
  H+  H342  1  0.77597752  0.72452332  0.04531632  1
  H+  H343  1  0.66084326  0.82087334  0.57156009  1
  H+  H344  1  0.18390675  0.09989980  0.59838891  1
  H+  H345  1  0.55390740  0.14158199  0.74584728  1
  H+  H346  1  0.92159330  0.58706223  0.23412260  1
  H+  H347  1  0.33536524  0.42383605  0.06308825  1
  H+  H348  1  0.68657870  0.96179327  0.44521087  1
  H+  H349  1  0.71652521  0.86957870  0.83145713  1
  H+  H350  1  0.39033965  0.65405288  0.42165307  1
  H+  H351  1  0.13451342  0.12084550  0.32703028  1
  H+  H352  1  0.64478725  0.77009514  0.14575867  1
  H+  H353  1  0.37322257  0.64154102  0.69095701  1
  H+  H354  1  0.26475096  0.61561127  0.08997879  1
  H+  H355  1  0.19671567  0.84497089  0.60461554  1
  H+  H356  1  0.82800119  0.65534782  0.76854088  1
  H+  H357  1  0.92342401  0.82383350  0.91801106  1
  H+  H358  1  1.00936892  0.36950602  0.24063091  1
  H+  H359  1  0.49244097  0.86661319  0.67900840  1
  H+  H360  1  0.94163308  0.34725624  0.95449129  1
  H+  H361  1  0.07138270  0.69956815  0.39178498  1
  H+  H362  1  0.86173201  0.88751654  0.68368668  1
  H+  H363  1  0.88934455  0.77209040  0.24692330  1
  H+  H364  1  0.94065468  0.08886423  0.57081182  1
  H+  H365  1  0.33577046  0.17018850  0.73251450  1
  H+  H366  1  0.08430313  0.62773682  0.45073927  1
  H+  H367  1  0.79473520  0.11889572  0.43382509  1
  H+  H368  1  0.42780563  0.33170934  0.55637401  1
  H+  H369  1  0.60467170  0.42227912  0.08810204  1
  H+  H370  1  0.32386109  0.15296242  0.09725930  1
  H+  H371  1  0.67752942  0.05636373  0.22254008  1
  H+  H372  1  0.57134678  0.42652919  0.72712875  1
  H+  H373  1  0.65866247  0.34223872  0.60774249  1
  H+  H374  1  0.55750772  0.18793330  0.42608525  1
  H+  H375  1  0.88947099  0.02242659  0.66589937  1
  H+  H376  1  0.72708003  0.37303074  0.99464666  1
  H+  H377  1  0.59142161  0.40699624  0.44318424  1
  H+  H378  1  0.85705417  0.87660145  0.33863267  1
  H+  H379  1  0.16984222  0.82380366  0.22746972  1
  H+  H380  1  0.82900919  0.14152318  0.05888183  1
  H+  H381  1  0.62598991  0.47801469  0.17944807  1
  H+  H382  1  0.91644656  0.58816358  0.93697930  1
  H+  H383  1  0.37636873  0.65029905  -0.03301975  1
  O2-  O384  1  0.10649277  0.18208213  0.14437275  1
  O2-  O385  1  0.10276547  0.19365890  0.49080652  1
  O2-  O386  1  0.09305368  0.16944262  0.80044011  1
  O2-  O387  1  0.07340982  0.39963596  0.18472598  1
  O2-  O388  1  0.07159146  0.38374917  0.49357993  1
  O2-  O389  1  0.08836888  0.41425983  0.81441683  1
  O2-  O390  1  0.08461608  0.65387914  0.15132732  1
  O2-  O391  1  0.08948862  0.63657878  0.49521279  1
  O2-  O392  1  0.09918462  0.66210264  0.83806435  1
  O2-  O393  1  0.07674024  0.90322892  0.14640196  1
  O2-  O394  1  0.08395264  0.94967330  0.48861121  1
  O2-  O395  1  0.09302021  0.91197748  0.80598947  1
  O2-  O396  1  0.32825941  0.15364363  0.14286488  1
  O2-  O397  1  0.39198653  0.18880134  0.46232232  1
  O2-  O398  1  0.32875796  0.17028988  0.80760814  1
  O2-  O399  1  0.34217850  0.42162343  0.14098495  1
  O2-  O400  1  0.35300667  0.41490457  0.47376802  1
  O2-  O401  1  0.32686042  0.41563093  0.79778350  1
  O2-  O402  1  0.31353001  0.63695300  0.15312802  1
  O2-  O403  1  0.31881869  0.65571868  0.55395440  1
  O2-  O404  1  0.33553608  0.65179342  0.82561035  1
  O2-  O405  1  0.32903896  0.91824268  0.13999662  1
  O2-  O406  1  0.34896663  0.91798812  0.48301177  1
  O2-  O407  1  0.32087744  0.85681025  0.77906891  1
  O2-  O408  1  0.60392992  0.16638824  0.14754880  1
  O2-  O409  1  0.59069721  0.16980033  0.49550557  1
  O2-  O410  1  0.57945060  0.16824299  0.83198747  1
  O2-  O411  1  0.60485219  0.41786201  0.16451901  1
  O2-  O412  1  0.59102259  0.40699977  0.48778973  1
  O2-  O413  1  0.57154896  0.42157009  0.81030356  1
  O2-  O414  1  0.58218182  0.66137215  0.14439679  1
  O2-  O415  1  0.56644116  0.65486555  0.47576806  1
  O2-  O416  1  0.58997228  0.66902015  0.81724262  1
  O2-  O417  1  0.58089821  0.90839766  0.12696869  1
  O2-  O418  1  0.63147311  0.94059938  0.46596385  1
  O2-  O419  1  0.55140197  0.86245790  0.76981365  1
  O2-  O420  1  0.84228125  0.15173665  0.14216607  1
  O2-  O421  1  0.83267010  0.16732856  0.54895840  1
  O2-  O422  1  0.84642815  0.17379663  0.81092317  1
  O2-  O423  1  0.84304744  0.41245122  0.14050236  1
  O2-  O424  1  0.83200249  0.40551567  0.50643513  1
  O2-  O425  1  0.83592334  0.41713733  0.85489163  1
  O2-  O426  1  0.82708742  0.65178779  0.14865685  1
  O2-  O427  1  0.85932434  0.66769778  0.48394502  1
  O2-  O428  1  0.83299103  0.65929889  0.81459948  1
  O2-  O429  1  0.84142101  0.91366204  0.17340969  1
  O2-  O430  1  0.82653215  0.87083694  0.47223008  1
  O2-  O431  1  0.82958070  0.91900441  0.81318735  1
  O2-  O432  1  0.16832253  0.07529563  0.18800837  1
  O2-  O433  1  0.18692539  0.10954686  0.51932306  1
  O2-  O434  1  0.16240316  0.07681506  0.84766647  1
  O2-  O435  1  0.18535200  0.33739082  0.19396326  1
  O2-  O436  1  0.16813198  0.33083395  0.55002393  1
  O2-  O437  1  0.17044817  0.33031681  0.84910535  1
  O2-  O438  1  0.15641701  0.56952902  0.20631109  1
  O2-  O439  1  0.13307206  0.53140116  0.55042532  1
  O2-  O440  1  0.17877931  0.56790191  0.87809830  1
  O2-  O441  1  0.16823153  0.82653842  0.18105709  1
  O2-  O442  1  0.18483779  0.80394602  0.52322032  1
  O2-  O443  1  0.18335268  0.83187689  0.84138481  1
  O2-  O444  1  0.39216525  0.06697321  0.18668458  1
  O2-  O445  1  0.41726076  0.08105613  0.53369801  1
  O2-  O446  1  0.39989452  0.08589072  0.85129353  1
  O2-  O447  1  0.43422067  0.33784677  0.14093496  1
  O2-  O448  1  0.43614024  0.33320238  0.51175429  1
  O2-  O449  1  0.40303739  0.33212973  0.84776925  1
  O2-  O450  1  0.42483251  0.58323061  0.19827226  1
  O2-  O451  1  0.41569252  0.57511441  0.53886536  1
  O2-  O452  1  0.41160879  0.57186977  0.84622973  1
  O2-  O453  1  0.40182762  0.80800490  0.15960277  1
  O2-  O454  1  0.42285117  0.83641394  0.54156038  1
  O2-  O455  1  0.46468043  0.90728838  0.82689729  1
  O2-  O456  1  0.67783756  0.06850844  0.17815680  1
  O2-  O457  1  0.65991373  0.07371983  0.53944253  1
  O2-  O458  1  0.67786397  0.09314214  0.84661717  1
  O2-  O459  1  0.68681539  0.32985946  0.19414219  1
  O2-  O460  1  0.66228259  0.32713948  0.53211473  1
  O2-  O461  1  0.65649770  0.34032599  0.85435910  1
  O2-  O462  1  0.66300517  0.58264709  0.19369233  1
  O2-  O463  1  0.68511076  0.57884313  0.47765954  1
  O2-  O464  1  0.66543689  0.57895671  0.86041776  1
  O2-  O465  1  0.67972052  0.83289821  0.13487901  1
  O2-  O466  1  0.65900223  0.81527673  0.52639188  1
  O2-  O467  1  0.65397931  0.84117048  0.84064017  1
  O2-  O468  1  0.91554408  0.08006224  0.19652996  1
  O2-  O469  1  0.94588805  0.10343733  0.52684863  1
  O2-  O470  1  0.92900140  0.08862731  0.84334866  1
  O2-  O471  1  0.92697146  0.32400992  0.11742371  1
  O2-  O472  1  0.91584772  0.33432266  0.53290169  1
  O2-  O473  1  0.93035363  0.33113218  0.86663927  1
  O2-  O474  1  0.91955922  0.57623300  0.18894952  1
  O2-  O475  1  0.91324169  0.55995826  0.53826253  1
  O2-  O476  1  0.92219996  0.58662220  0.85697928  1
  O2-  O477  1  0.91014494  0.80410576  0.20690620  1
  O2-  O478  1  0.91570215  0.82055844  0.53862777  1
  O2-  O479  1  0.92374864  0.82928418  0.83890900  1
  O2-  O480  1  0.15633547  0.08293498  0.31212065  1
  O2-  O481  1  0.17855098  0.09379544  0.64346983  1
  O2-  O482  1  0.16343256  0.08331566  0.97364925  1
  O2-  O483  1  0.18510419  0.34676671  0.31844872  1
  O2-  O484  1  0.16221820  0.32634298  0.61737812  1
  O2-  O485  1  0.16871161  0.34469484  0.97288014  1
  O2-  O486  1  0.16200807  0.59079463  0.32946842  1
  O2-  O487  1  0.19399166  0.62638624  0.66591167  1
  O2-  O488  1  0.23604559  0.61364154  1.04901275  1
  O2-  O489  1  0.16594066  0.81216595  0.29920964  1
  O2-  O490  1  0.18992318  0.85135602  0.64854192  1
  O2-  O491  1  0.17745653  0.84042881  0.96582559  1
  O2-  O492  1  0.40027358  0.07834075  0.30816195  1
  O2-  O493  1  0.40849133  0.08388786  0.65134289  1
  O2-  O494  1  0.40816899  0.08216806  0.97735165  1
  O2-  O495  1  0.41502557  0.33343191  0.31097120  1
  O2-  O496  1  0.41122985  0.33796218  0.63882066  1
  O2-  O497  1  0.39995699  0.32829737  0.96781658  1
  O2-  O498  1  0.45086382  0.59977181  0.32055221  1
  O2-  O499  1  0.41421338  0.58454508  0.66146845  1
  O2-  O500  1  0.41725897  0.58262093  0.96650795  1
  O2-  O501  1  0.40247355  0.83550936  0.30752905  1
  O2-  O502  1  0.43097145  0.83630986  0.66230529  1
  O2-  O503  1  0.41960311  0.84716492  0.95157013  1
  O2-  O504  1  0.68416019  0.03936528  0.29891486  1
  O2-  O505  1  0.65903081  0.07398218  0.66742862  1
  O2-  O506  1  0.67552751  0.08312929  0.96652269  1
  O2-  O507  1  0.68680636  0.36666688  0.31739707  1
  O2-  O508  1  0.65607170  0.35044985  0.65272757  1
  O2-  O509  1  0.66627918  0.34270664  0.97891709  1
  O2-  O510  1  0.65003828  0.59453096  0.31429343  1
  O2-  O511  1  0.66192347  0.59701535  0.64953315  1
  O2-  O512  1  0.65390608  0.56738798  0.98198858  1
  O2-  O513  1  0.64692799  0.82217089  0.29884069  1
  O2-  O514  1  0.66597726  0.83269593  0.65362217  1
  O2-  O515  1  0.67526089  0.82775670  1.01238535  1
  O2-  O516  1  0.93615647  0.10083682  0.30826199  1
  O2-  O517  1  0.92397114  0.08328937  0.65134925  1
  O2-  O518  1  0.92870662  0.09091322  0.96554958  1
  O2-  O519  1  0.96822381  0.35648655  0.27657625  1
  O2-  O520  1  0.91533080  0.34142639  0.65843261  1
  O2-  O521  1  0.95524910  0.37675875  0.99434718  1
  O2-  O522  1  0.92556648  0.61462013  0.30862626  1
  O2-  O523  1  0.91312836  0.58073664  0.65378916  1
  O2-  O524  1  0.91234342  0.58422002  0.98200735  1
  O2-  O525  1  0.87810397  0.85177917  0.36855020  1
  O2-  O526  1  0.92470145  0.83851897  0.69739227  1
  O2-  O527  1  0.92220175  0.82814709  0.96345373  1
  O2-  O528  1  0.09093977  0.17471878  0.01557263  1
  O2-  O529  1  0.09376962  0.18345876  0.35907923  1
  O2-  O530  1  0.09516029  0.17614500  0.67514955  1
  O2-  O531  1  0.13262405  0.47464377  -0.01416968  1
  O2-  O532  1  0.09581086  0.41836846  0.36834525  1
  O2-  O533  1  0.07909189  0.44969825  0.69313210  1
  O2-  O534  1  0.07164621  0.69882684  0.03145985  1
  O2-  O535  1  0.06631178  0.65809387  0.36124989  1
  O2-  O536  1  0.08865810  0.68854993  0.68826579  1
  O2-  O537  1  0.08462771  0.91405555  0.01625588  1
  O2-  O538  1  0.05403583  0.92862233  0.37516399  1
  O2-  O539  1  0.09766601  0.92817019  0.68288704  1
  O2-  O540  1  0.32433162  0.16296318  0.01967062  1
  O2-  O541  1  0.32466400  0.16490039  0.34875542  1
  O2-  O542  1  0.33946451  0.16973064  0.68661271  1
  O2-  O543  1  0.33279358  0.42443347  0.01744298  1
  O2-  O544  1  0.35119268  0.42466260  0.35788728  1
  O2-  O545  1  0.31610956  0.41018839  0.67467495  1
  O2-  O546  1  0.33852804  0.67642100  -0.03341162  1
  O2-  O547  1  0.32997881  0.67622130  0.30312418  1
  O2-  O548  1  0.34952160  0.67627265  0.71105982  1
  O2-  O549  1  0.33800986  0.91812369  0.01545560  1
  O2-  O550  1  0.33194903  0.91406494  0.35819472  1
  O2-  O551  1  0.34196718  0.90181769  0.71966786  1
  O2-  O552  1  0.58530904  0.16935653  -0.03396877  1
  O2-  O553  1  0.52906891  0.20035415  0.39106904  1
  O2-  O554  1  0.54942191  0.13205868  0.70160076  1
  O2-  O555  1  0.57790187  0.40886583  0.04608510  1
  O2-  O556  1  0.58896924  0.43532759  0.35276004  1
  O2-  O557  1  0.57186618  0.42768171  0.68211862  1
  O2-  O558  1  0.57385957  0.65284710  0.01940026  1
  O2-  O559  1  0.54034583  0.65233112  0.34281473  1
  O2-  O560  1  0.58507585  0.67043954  0.69759986  1
  O2-  O561  1  0.59564119  0.91369629  -0.02943419  1
  O2-  O562  1  0.55395351  0.89839040  0.35000061  1
  O2-  O563  1  0.58531789  0.90714216  0.71086105  1
  O2-  O564  1  0.82622958  0.14792991  0.01443728  1
  O2-  O565  1  0.86398453  0.19739664  0.31919412  1
  O2-  O566  1  0.83607836  0.17289708  0.68446800  1
  O2-  O567  1  0.83269661  0.42361317  0.01654833  1
  O2-  O568  1  0.85495055  0.42531661  0.37194123  1
  O2-  O569  1  0.83005511  0.42187491  0.69742013  1
  O2-  O570  1  0.80127396  0.69175962  0.02896069  1
  O2-  O571  1  0.83913413  0.70739780  0.30711687  1
  O2-  O572  1  0.83075270  0.66262059  0.69427746  1
  O2-  O573  1  0.84737184  0.91667998  -0.00796823  1
  O2-  O574  1  0.76771168  0.97010397  0.34651134  1
  O2-  O575  1  0.83102769  0.91971168  0.69172338  1
