# generated using pymatgen
data_H2O
_symmetry_space_group_name_H-M   'P 1'
_cell_length_a   17.95850609
_cell_length_b   17.94799226
_cell_length_c   21.99354292
_cell_angle_alpha   90.05907459
_cell_angle_beta   89.94711426
_cell_angle_gamma   120.03497469
_symmetry_Int_Tables_number   1
_chemical_formula_structural   H2O
_chemical_formula_sum   'H384 O192'
_cell_volume   6137.03305355
_cell_formula_units_Z   192
loop_
 _symmetry_equiv_pos_site_id
 _symmetry_equiv_pos_as_xyz
  1  'x, y, z'
loop_
 _atom_type_symbol
 _atom_type_oxidation_number
  H+  1.0
  O2-  -2.0
loop_
 _atom_site_type_symbol
 _atom_site_label
 _atom_site_symmetry_multiplicity
 _atom_site_fract_x
 _atom_site_fract_y
 _atom_site_fract_z
 _atom_site_occupancy
  H+  H0  1  0.11420086  0.13900919  0.66523477  1
  H+  H1  1  0.36017449  0.88261103  0.14784683  1
  H+  H2  1  0.15553316  0.03059002  0.50554210  1
  H+  H3  1  0.59609129  0.22507595  0.16688259  1
  H+  H4  1  0.76125908  0.11593107  0.35406142  1
  H+  H5  1  0.88818610  0.51202711  1.00184417  1
  H+  H6  1  0.65595747  0.14803795  0.32639866  1
  H+  H7  1  0.12123502  0.85104914  0.17753493  1
  H+  H8  1  0.77809220  0.63673576  0.01567970  1
  H+  H9  1  0.51967820  0.96227148  0.33648777  1
  H+  H10  1  0.27845860  0.85978192  -0.00371938  1
  H+  H11  1  0.96385417  0.09061708  0.51278630  1
  H+  H12  1  0.89207604  1.03386329  0.80544878  1
  H+  H13  1  0.69237483  0.99026690  0.38414083  1
  H+  H14  1  0.33638346  0.67463373  0.75887062  1
  H+  H15  1  0.70615886  0.20386382  1.06803220  1
  H+  H16  1  0.50002907  0.62079392  0.32247003  1
  H+  H17  1  0.96962484  0.84661258  0.50648015  1
  H+  H18  1  0.36093898  0.25657808  0.33732352  1
  H+  H19  1  0.34641017  0.15576407  0.76497735  1
  H+  H20  1  0.10513548  0.23172292  -0.00464012  1
  H+  H21  1  0.63667613  0.61071529  1.00260291  1
  H+  H22  1  0.58905970  0.75170968  0.83769908  1
  H+  H23  1  0.68646317  0.66208585  0.87129229  1
  H+  H24  1  0.56328796  0.50266635  0.80884590  1
  H+  H25  1  0.14373688  0.11968601  0.83348857  1
  H+  H26  1  0.59492703  0.22124779  0.34252097  1
  H+  H27  1  0.47375845  0.59038457  0.16445665  1
  H+  H28  1  0.13262007  0.74438956  0.49890064  1
  H+  H29  1  0.87850672  0.60493509  0.32778901  1
  H+  H30  1  0.79114509  0.37859212  0.01419549  1
  H+  H31  1  0.86313205  0.21191100  0.00563081  1
  H+  H32  1  0.22465924  0.61692527  0.16279563  1
  H+  H33  1  0.78427951  0.66962939  0.82046600  1
  H+  H34  1  0.14106935  0.60882181  0.65191852  1
  H+  H35  1  0.64789713  -0.01142758  0.52751661  1
  H+  H36  1  0.82395211  0.41367307  0.57347859  1
  H+  H37  1  0.42133703  0.83382286  0.89962082  1
  H+  H38  1  0.26101165  0.42281651  0.32732602  1
  H+  H39  1  0.46711954  0.58725460  0.48911777  1
  H+  H40  1  0.61699462  0.22163744  0.82324870  1
  H+  H41  1  0.75491294  0.62287591  0.33236381  1
  H+  H42  1  0.89517557  0.78990389  0.18911590  1
  H+  H43  1  0.60416633  0.69895380  0.49212352  1
  H+  H44  1  0.73371098  0.86892835  0.18214896  1
  H+  H45  1  0.60423480  0.84949111  0.50436728  1
  H+  H46  1  0.38557752  0.26937864  0.16930238  1
  H+  H47  1  0.25592965  0.87429559  0.34886425  1
  H+  H48  1  0.87925795  0.75743082  0.50647940  1
  H+  H49  1  0.65782016  0.54186727  -0.02531782  1
  H+  H50  1  0.90800439  0.06805117  0.57289341  1
  H+  H51  1  0.27865982  0.62908068  0.48287566  1
  H+  H52  1  0.72785711  0.35117390  0.82358289  1
  H+  H53  1  0.38921264  0.36807486  0.51478434  1
  H+  H54  1  0.46444284  0.85142320  0.17914374  1
  H+  H55  1  0.62990844  0.46836539  0.87788747  1
  H+  H56  1  0.15021487  0.52824930  0.49880988  1
  H+  H57  1  0.38193569  0.60222334  0.66483761  1
  H+  H58  1  0.65191314  0.33254923  -0.01006314  1
  H+  H59  1  0.38739517  0.27565369  0.83561162  1
  H+  H60  1  0.26947139  0.13641529  0.17080307  1
  H+  H61  1  0.76350065  0.38590221  0.16906045  1
  H+  H62  1  0.11244731  0.14709390  0.99674909  1
  H+  H63  1  0.36962879  -0.01616414  0.82820336  1
  H+  H64  1  0.60994238  0.38032889  0.49349963  1
  H+  H65  1  0.64897396  0.09790047  0.99195753  1
  H+  H66  1  0.36742708  0.23625816  0.49645769  1
  H+  H67  1  0.89058315  0.34441876  0.00404283  1
  H+  H68  1  0.24074342  0.11403893  0.64364814  1
  H+  H69  1  0.38475097  0.51757215  -0.01499073  1
  H+  H70  1  0.63428806  0.90942198  0.83986303  1
  H+  H71  1  0.48484471  0.38168476  0.32250730  1
  H+  H72  1  0.86416406  0.63162018  0.00455302  1
  H+  H73  1  0.61627448  0.73299074  0.99686620  1
  H+  H74  1  0.91243695  0.83373783  0.60226493  1
  H+  H75  1  0.77500483  0.63810322  0.67147861  1
  H+  H76  1  0.15286257  0.86728267  0.83374413  1
  H+  H77  1  0.62555620  0.35762734  0.17016918  1
  H+  H78  1  0.14166785  0.73678394  0.97934884  1
  H+  H79  1  0.64367102  0.86540279  0.99754580  1
  H+  H80  1  0.61478345  0.59834824  0.15430611  1
  H+  H81  1  0.61324161  0.47862271  0.67489300  1
  H+  H82  1  0.71741082  0.53215430  0.19128163  1
  H+  H83  1  0.97764527  0.61247826  0.50374050  1
  H+  H84  1  0.61338443  0.77008975  0.80853800  1
  H+  H85  1  0.27413231  0.15161036  0.49241134  1
  H+  H86  1  0.14433361  0.42923535  0.32534268  1
  H+  H87  1  0.04672013  0.89459147  0.83255059  1
  H+  H88  1  0.36965702  0.88263793  0.50294312  1
  H+  H89  1  0.83127282  0.17652022  0.72327478  1
  H+  H90  1  0.36490399  0.61309851  0.48474007  1
  H+  H91  1  0.47070223  0.13984670  1.00791028  1
  H+  H92  1  0.86565824  0.39556060  0.80563193  1
  H+  H93  1  0.48615612  0.87099222  0.84296297  1
  H+  H94  1  0.71203049  0.35322159  0.32469342  1
  H+  H95  1  0.67344694  0.25761890  0.98720621  1
  H+  H96  1  0.89107400  0.76767566  1.00278052  1
  H+  H97  1  0.88320967  0.35871838  0.51063332  1
  H+  H98  1  0.37298254  0.88683377  0.83017436  1
  H+  H99  1  0.90480561  0.92145607  0.77890735  1
  H+  H100  1  0.88531989  0.01244860  1.00341093  1
  H+  H101  1  0.37942174  0.09991466  0.83138644  1
  H+  H102  1  0.86289110  0.88090578  0.35121605  1
  H+  H103  1  0.85564562  0.87128249  0.50084550  1
  H+  H104  1  0.66166039  0.17421893  0.05577199  1
  H+  H105  1  0.86096988  0.87514769  0.02037452  1
  H+  H106  1  0.52483147  0.38868316  0.49365954  1
  H+  H107  1  0.90574937  0.78356564  0.84359740  1
  H+  H108  1  0.10551043  0.72475389  0.16050191  1
  H+  H109  1  0.50919657  0.40438434  0.82979252  1
  H+  H110  1  0.02042175  0.13059339  0.66978283  1
  H+  H111  1  0.60437874  0.46325762  0.14119247  1
  H+  H112  1  0.88118265  0.11221234  0.33926127  1
  H+  H113  1  0.10375560  0.65106026  0.33465071  1
  H+  H114  1  0.39877168  0.25792522  0.64510836  1
  H+  H115  1  0.36049092  0.87529864  0.66779809  1
  H+  H116  1  0.35511706  0.96431050  0.50544019  1
  H+  H117  1  0.60477730  0.61170232  0.49118138  1
  H+  H118  1  0.20648372  0.35681256  0.16461420  1
  H+  H119  1  0.90802614  0.87080381  0.85725682  1
  H+  H120  1  0.47963072  0.35368703  0.66089955  1
  H+  H121  1  0.11154151  0.22949597  0.82128669  1
  H+  H122  1  0.11889137  0.47681065  0.66007556  1
  H+  H123  1  0.86587479  0.89179711  0.18039296  1
  H+  H124  1  1.01752060  0.90584778  0.67507857  1
  H+  H125  1  0.47550372  0.53042849  0.78272007  1
  H+  H126  1  0.45804277  0.10272180  0.17824699  1
  H+  H127  1  0.14830454  0.61604514  0.49614719  1
  H+  H128  1  0.01857645  -0.00910299  1.06427192  1
  H+  H129  1  0.34320589  0.07729604  0.97785940  1
  H+  H130  1  0.74733348  0.11837967  0.48917075  1
  H+  H131  1  0.13298166  0.13200194  0.32387637  1
  H+  H132  1  0.97531420  0.34227071  0.99313970  1
  H+  H133  1  -0.02479944  0.38366023  0.35757421  1
  H+  H134  1  1.02254225  0.16916607  0.32982026  1
  H+  H135  1  0.87774633  0.53076219  0.17586557  1
  H+  H136  1  0.88094541  0.02942939  0.18237885  1
  H+  H137  1  1.01839895  0.63411910  0.15856353  1
  H+  H138  1  0.37666152  0.73653372  0.34610015  1
  H+  H139  1  0.52321038  0.24273830  0.01777270  1
  H+  H140  1  0.22475545  0.83097160  0.50609505  1
  H+  H141  1  0.37416620  0.73984676  0.82272718  1
  H+  H142  1  0.01400793  0.62992061  0.00403573  1
  H+  H143  1  0.60594431  0.40596113  -0.02884391  1
  H+  H144  1  0.62080472  0.10897587  0.17122389  1
  H+  H145  1  0.36909655  0.11152505  0.50595628  1
  H+  H146  1  0.62419779  1.02397015  0.67434409  1
  H+  H147  1  0.79039780  0.66302061  0.16657084  1
  H+  H148  1  0.84361988  0.59004594  0.84951262  1
  H+  H149  1  0.71697507  0.35839592  0.65514252  1
  H+  H150  1  0.22108313  0.84104844  0.65633506  1
  H+  H151  1  0.61548131  0.10771443  0.66386283  1
  H+  H152  1  0.76239927  0.38252185  0.51770102  1
  H+  H153  1  0.61880940  0.26456085  0.50544605  1
  H+  H154  1  0.16661140  0.61048941  0.25328203  1
  H+  H155  1  0.30982595  0.39421251  0.23319535  1
  H+  H156  1  0.98315985  0.87216221  0.34107390  1
  H+  H157  1  0.02393693  0.89470657  0.17967944  1
  H+  H158  1  0.59280482  0.22173159  0.67249085  1
  H+  H159  1  0.37994347  0.53277646  0.83361700  1
  H+  H160  1  0.76429621  1.13393389  0.15787355  1
  H+  H161  1  -0.02065699  0.38431027  0.81947504  1
  H+  H162  1  0.15137774  0.88622027  0.48955722  1
  H+  H163  1  0.64511282  0.77987383  0.17980366  1
  H+  H164  1  0.36482937  0.72684950  0.67539539  1
  H+  H165  1  0.72368010  0.83537946  0.51132724  1
  H+  H166  1  0.39677381  0.55207303  0.32375593  1
  H+  H167  1  0.20875292  0.73640841  -0.06514316  1
  H+  H168  1  0.97804531  0.11882882  0.82203390  1
  H+  H169  1  0.74190599  0.88024372  0.66274146  1
  H+  H170  1  0.10545831  0.43821200  0.42478083  1
  H+  H171  1  0.22362459  0.36477894  0.98294971  1
  H+  H172  1  0.10905286  0.38432660  0.48080945  1
  H+  H173  1  0.24348957  0.35448870  0.47888450  1
  H+  H174  1  0.35895078  0.37085321  -0.01016700  1
  H+  H175  1  -0.02869330  0.36207849  0.49509096  1
  H+  H176  1  0.09873546  0.39019882  0.15386886  1
  H+  H177  1  0.60911440  0.88478241  0.16768498  1
  H+  H178  1  0.22363125  0.97391596  0.46399902  1
  H+  H179  1  0.92290249  0.84572489  0.25149897  1
  H+  H180  1  0.39440527  0.85984560  0.98972251  1
  H+  H181  1  0.76651574  0.14297802  0.66717552  1
  H+  H182  1  0.89008568  0.55817227  0.93946928  1
  H+  H183  1  0.89281083  0.29279876  0.81797554  1
  H+  H184  1  0.48327282  0.85090650  0.51095569  1
  H+  H185  1  0.52790270  0.88038911  0.00565843  1
  H+  H186  1  0.62973906  0.48532627  0.34330679  1
  H+  H187  1  0.38716902  0.35999997  0.17601086  1
  H+  H188  1  0.60920140  0.88437103  0.68589414  1
  H+  H189  1  0.11207198  0.26948169  0.15680692  1
  H+  H190  1  0.35853324  0.46251275  0.66855640  1
  H+  H191  1  0.68628948  0.12150982  0.26667143  1
  H+  H192  1  0.12941173  0.36727624  0.83154115  1
  H+  H193  1  0.47191493  0.61092056  -0.01529104  1
  H+  H194  1  1.13682321  0.72343425  0.81532561  1
  H+  H195  1  0.35973189  0.37432881  0.67151247  1
  H+  H196  1  0.35740288  0.47258784  0.18805627  1
  H+  H197  1  0.38237374  0.40372010  0.81974342  1
  H+  H198  1  0.12919648  0.60737204  0.99915829  1
  H+  H199  1  0.14379394  1.03508435  0.65519699  1
  H+  H200  1  0.72529431  0.60725540  0.50459569  1
  H+  H201  1  0.14802947  0.02499988  0.18796194  1
  H+  H202  1  0.88587287  0.27726516  0.65372408  1
  H+  H203  1  0.39195119  0.76889397  -0.01079671  1
  H+  H204  1  0.10784255  0.47541686  0.00096692  1
  H+  H205  1  0.64254227  0.11746255  0.83764011  1
  H+  H206  1  0.88060351  0.11463086  0.65919762  1
  H+  H207  1  0.97460189  0.46892755  0.23606384  1
  H+  H208  1  0.36047725  -0.00337266  0.98331613  1
  H+  H209  1  0.98087509  0.61512004  0.65952541  1
  H+  H210  1  0.22503534  0.13861012  0.33333509  1
  H+  H211  1  0.84518807  0.46212299  0.33862771  1
  H+  H212  1  0.38170718  1.00292179  0.32863647  1
  H+  H213  1  0.27817371  0.13414942  0.81996906  1
  H+  H214  1  0.00559892  0.14408045  0.15299111  1
  H+  H215  1  0.96828792  0.10328366  0.98888530  1
  H+  H216  1  0.36200899  0.63168730  0.15422845  1
  H+  H217  1  0.53070547  0.96166739  0.30359830  1
  H+  H218  1  0.61868960  0.96841320  0.00679271  1
  H+  H219  1  0.86042590  0.11889287  0.00504875  1
  H+  H220  1  0.62786101  0.72089074  0.34053798  1
  H+  H221  1  0.92176748  0.69491349  0.37749814  1
  H+  H222  1  -0.00807618  0.41162195  0.19012836  1
  H+  H223  1  0.77519022  0.90998686  0.84397434  1
  H+  H224  1  0.27335401  0.71980321  0.29814479  1
  H+  H225  1  0.13273590  -0.01513520  0.82703193  1
  H+  H226  1  0.84353492  0.37480462  0.35220821  1
  H+  H227  1  0.72423008  0.49775962  0.90280716  1
  H+  H228  1  0.36597646  0.64014189  0.82655832  1
  H+  H229  1  0.50565332  0.13759102  0.49865666  1
  H+  H230  1  0.41878591  0.67306408  0.34812724  1
  H+  H231  1  0.11228964  0.25778842  0.48908873  1
  H+  H232  1  0.86859043  0.39212698  0.65600628  1
  H+  H233  1  0.21802992  0.49573314  0.36289602  1
  H+  H234  1  0.47852804  0.85841433  0.66734208  1
  H+  H235  1  0.13560701  0.36801431  0.98903937  1
  H+  H236  1  0.35972748  0.63292737  1.00034368  1
  H+  H237  1  0.60795608  0.72902136  0.66667364  1
  H+  H238  1  0.51366792  0.12586759  0.34184376  1
  H+  H239  1  0.78772383  0.98433626  0.88574790  1
  H+  H240  1  0.27397601  0.88033662  0.82656600  1
  H+  H241  1  0.89681383  0.77677709  0.34155515  1
  H+  H242  1  0.73430591  0.85203701  0.33741367  1
  H+  H243  1  0.38715163  0.17699912  0.03415270  1
  H+  H244  1  0.36957474  0.10142183  0.17495425  1
  H+  H245  1  0.77481103  0.88020663  1.02132136  1
  H+  H246  1  0.08795232  0.64795421  0.72389518  1
  H+  H247  1  0.11966054  0.26363763  0.64141607  1
  H+  H248  1  0.88188226  0.77943476  0.66271735  1
  H+  H249  1  0.21948104  0.61002054  -0.00499491  1
  H+  H250  1  0.63831130  0.51384572  0.50617958  1
  H+  H251  1  0.44869249  0.34315009  0.98203521  1
  H+  H252  1  0.78295853  0.15064577  0.81775881  1
  H+  H253  1  0.00063323  0.90932471  0.02607860  1
  H+  H254  1  0.11585896  0.50315498  0.80935192  1
  H+  H255  1  -0.03315848  0.60600941  0.32798817  1
  H+  H256  1  0.04102378  0.57049220  0.46035138  1
  H+  H257  1  0.71130598  0.68046653  0.90030068  1
  H+  H258  1  0.27316536  0.63709735  0.67520355  1
  H+  H259  1  0.30663985  0.33598816  0.43771085  1
  H+  H260  1  0.11874348  0.77581899  0.33538097  1
  H+  H261  1  0.13796011  0.29582634  0.31020871  1
  H+  H262  1  0.10546173  0.12009125  0.48487449  1
  H+  H263  1  0.83080005  0.49600356  0.84188291  1
  H+  H264  1  0.52573764  0.13172540  0.82623982  1
  H+  H265  1  0.86718663  0.64319125  0.67204720  1
  H+  H266  1  0.85164451  0.95864243  0.50544927  1
  H+  H267  1  0.11572321  0.71303496  0.66632760  1
  H+  H268  1  0.36033231  0.72032891  0.15474287  1
  H+  H269  1  0.16803653  0.57263082  0.31835927  1
  H+  H270  1  0.51441040  0.37691857  0.14265672  1
  H+  H271  1  0.88545524  0.52758546  0.51780212  1
  H+  H272  1  -0.07866331  0.33268696  0.59290140  1
  H+  H273  1  0.85933974  0.63558824  0.49440486  1
  H+  H274  1  0.12277385  0.35434964  0.63971248  1
  H+  H275  1  0.35849748  0.97100981  0.14841790  1
  H+  H276  1  0.83139519  0.20550146  0.46997497  1
  H+  H277  1  0.87152520  0.02087925  0.66100926  1
  H+  H278  1  0.87079583  0.14958209  0.80943347  1
  H+  H279  1  0.17863756  0.81787312  0.88647032  1
  H+  H280  1  0.62241635  0.98968331  0.83333866  1
  H+  H281  1  0.62737571  0.36138550  0.32630196  1
  H+  H282  1  0.35149381  0.23234990  1.00049033  1
  H+  H283  1  0.37570198  0.49984920  0.48349554  1
  H+  H284  1  0.87654160  0.66038378  0.16861848  1
  H+  H285  1  0.46944977  0.60464756  0.65207856  1
  H+  H286  1  0.66364738  0.62028745  0.32911007  1
  H+  H287  1  0.74096806  0.10292591  0.99142968  1
  H+  H288  1  0.02591252  0.39082720  0.66378105  1
  H+  H289  1  0.32016917  0.16681203  0.10661022  1
  H+  H290  1  0.91382232  0.58761101  0.23609999  1
  H+  H291  1  0.42432323  0.82734040  0.60423489  1
  H+  H292  1  0.40070957  0.58573050  0.89728777  1
  H+  H293  1  0.67950753  0.08992259  0.89610133  1
  H+  H294  1  0.56848945  0.16299887  0.73169710  1
  H+  H295  1  0.43118989  0.34562171  0.26191666  1
  H+  H296  1  0.06252223  0.17183208  0.09069650  1
  H+  H297  1  0.33113420  0.91118931  0.72215188  1
  H+  H298  1  0.86848971  0.48417976  0.65673353  1
  H+  H299  1  0.22419576  0.11564552  -0.00678854  1
  H+  H300  1  0.92897436  0.83490375  0.94732318  1
  H+  H301  1  0.18250717  0.58934526  0.59337280  1
  H+  H302  1  0.59927850  0.90426902  0.44831892  1
  H+  H303  1  0.42391925  0.33680896  0.57135775  1
  H+  H304  1  0.07595408  0.92915297  0.11820978  1
  H+  H305  1  0.36837726  0.68071680  0.42094806  1
  H+  H306  1  0.33414857  0.66541510  0.06040156  1
  H+  H307  1  0.16903098  0.09003386  0.56394938  1
  H+  H308  1  0.17302917  0.09135404  0.89391953  1
  H+  H309  1  0.66286919  0.79411385  0.56973275  1
  H+  H310  1  0.58020475  0.42541445  0.73668412  1
  H+  H311  1  0.58739135  0.42176094  0.40012728  1
  H+  H312  1  0.39981249  0.06453104  0.89324239  1
  H+  H313  1  0.57717405  0.90883582  0.10732811  1
  H+  H314  1  0.82391640  0.90391533  0.40860473  1
  H+  H315  1  0.13118114  0.87154715  0.33023556  1
  H+  H316  1  0.68511887  0.31952860  0.88866197  1
  H+  H317  1  0.64080331  0.61584248  0.65330489  1
  H+  H318  1  0.17690010  0.09206561  0.24304142  1
  H+  H319  1  0.35408489  0.42744750  0.75496562  1
  H+  H320  1  0.83586063  0.66954588  0.43223330  1
  H+  H321  1  0.15967418  0.80457674  0.59857844  1
  H+  H322  1  0.33200211  0.41037812  0.04898711  1
  H+  H323  1  0.84152520  0.68154745  0.76233825  1
  H+  H324  1  0.87452478  0.11529165  0.17433773  1
  H+  H325  1  0.30807394  0.44118592  0.39158586  1
  H+  H326  1  0.82739468  0.42423549  0.74919742  1
  H+  H327  1  0.09517620  0.20549676  0.38340631  1
  H+  H328  1  0.82387821  0.15477948  0.09947080  1
  H+  H329  1  0.56978839  0.55899280  0.09360771  1
  H+  H330  1  0.11133343  0.93896404  0.40117740  1
  H+  H331  1  0.52852928  0.61607531  0.81665031  1
  H+  H332  1  0.58162455  0.38792890  0.04344602  1
  H+  H333  1  0.32231247  0.89567623  0.40482623  1
  H+  H334  1  0.67031611  0.57811627  0.59888462  1
  H+  H335  1  0.07090923  0.65878001  0.40195536  1
  H+  H336  1  0.58118596  0.67029770  0.05419392  1
  H+  H337  1  0.68726245  0.57317218  0.24181732  1
  H+  H338  1  0.64611558  0.32360813  0.56597019  1
  H+  H339  1  0.38489299  0.80923259  0.22773457  1
  H+  H340  1  0.08917465  0.17013672  0.76183257  1
  H+  H341  1  0.58057147  0.91597518  0.74540535  1
  H+  H342  1  0.56365777  0.16408601  0.43838275  1
  H+  H343  1  0.12725363  0.03863403  0.99802878  1
  H+  H344  1  0.57283107  0.64988393  0.71531516  1
  H+  H345  1  0.07619473  0.41743468  0.06075365  1
  H+  H346  1  0.39079512  0.76662320  0.51141664  1
  H+  H347  1  0.03341455  0.09855439  0.43516870  1
  H+  H348  1  0.07329264  0.66617817  0.06499642  1
  H+  H349  1  0.65139984  0.33103527  0.23510517  1
  H+  H350  1  0.63101193  0.36262231  0.66477296  1
  H+  H351  1  0.33327696  0.19435380  0.39640298  1
  H+  H352  1  0.08560739  0.93117435  0.72915404  1
  H+  H353  1  0.64471659  0.89227774  0.36207276  1
  H+  H354  1  0.67156354  0.82909579  0.27856420  1
  H+  H355  1  0.64849861  0.86610919  0.61307686  1
  H+  H356  1  0.67154254  0.05852947  0.57983994  1
  H+  H357  1  0.11843651  0.99724044  0.34390330  1
  H+  H358  1  0.92957602  0.35283463  0.29521505  1
  H+  H359  1  0.14326968  0.31608210  0.55062538  1
  H+  H360  1  0.32790800  0.81719291  0.32339990  1
  H+  H361  1  0.91735455  0.10974343  0.27149617  1
  H+  H362  1  0.15350808  0.33336302  0.89050556  1
  H+  H363  1  0.11155414  0.48565494  0.15347193  1
  H+  H364  1  0.62409320  1.02190886  0.17645465  1
  H+  H365  1  0.13514657  0.62019479  0.16150075  1
  H+  H366  1  0.15555361  0.34552144  0.24596611  1
  H+  H367  1  0.86127020  0.40570760  0.17939488  1
  H+  H368  1  0.69797273  0.86203996  0.94080491  1
  H+  H369  1  0.14917395  0.81953908  0.23589280  1
  H+  H370  1  0.54518013  0.17157489  0.10883979  1
  H+  H371  1  0.59131897  0.65214902  0.39621524  1
  H+  H372  1  0.43490096  0.59664376  0.22909545  1
  H+  H373  1  0.92379642  0.59760074  0.59947580  1
  H+  H374  1  0.83429390  0.91178371  0.11695491  1
  H+  H375  1  0.39808237  0.32460351  0.90006725  1
  H+  H376  1  0.40281007  0.06183600  0.27026321  1
  H+  H377  1  0.09239562  0.43547420  0.75539523  1
  H+  H378  1  0.38196444  0.09263572  0.57237116  1
  H+  H379  1  0.44420919  0.14128805  0.68671717  1
  H+  H380  1  0.83982887  0.41281043  0.07781278  1
  H+  H381  1  0.83925251  0.88406017  0.65876741  1
  H+  H382  1  0.33547595  0.90922551  0.05758366  1
  H+  H383  1  0.82575275  0.91246398  0.74111616  1
  O2-  O384  1  0.06483278  0.17850496  0.13550981  1
  O2-  O385  1  0.06829655  0.14145566  0.46565329  1
  O2-  O386  1  0.08765632  0.16780766  0.80722095  1
  O2-  O387  1  0.07053629  0.42444290  0.14213284  1
  O2-  O388  1  0.08812578  0.42431623  0.46810865  1
  O2-  O389  1  0.09085682  0.44131207  0.80052367  1
  O2-  O390  1  0.07772396  0.66430100  0.14130391  1
  O2-  O391  1  0.07104251  0.63200080  0.46942963  1
  O2-  O392  1  0.10768077  0.66072712  0.80447837  1
  O2-  O393  1  0.08309797  0.91895172  0.16147687  1
  O2-  O394  1  0.16197519  0.94291113  0.47253554  1
  O2-  O395  1  0.10502674  0.92281410  0.81421470  1
  O2-  O396  1  0.33010494  0.16835291  0.15094376  1
  O2-  O397  1  0.33433891  0.17832938  0.47698259  1
  O2-  O398  1  0.34069794  0.15958397  0.80955715  1
  O2-  O399  1  0.32300836  0.40785142  0.19016185  1
  O2-  O400  1  0.30438847  0.38133606  0.46071511  1
  O2-  O401  1  0.37928260  0.45056279  0.79760994  1
  O2-  O402  1  0.33056935  0.65976391  0.13814894  1
  O2-  O403  1  0.34263985  0.65575430  0.47288549  1
  O2-  O404  1  0.34197524  0.67884761  0.80727359  1
  O2-  O405  1  0.33932122  0.91630515  0.12547575  1
  O2-  O406  1  0.33221466  0.90554857  0.48826632  1
  O2-  O407  1  0.33995674  0.91556778  0.81385884  1
  O2-  O408  1  0.56180125  0.16499206  0.15049033  1
  O2-  O409  1  0.56513417  0.17027278  0.48369035  1
  O2-  O410  1  0.58424675  0.15861550  0.80906293  1
  O2-  O411  1  0.57448884  0.40477671  0.12450823  1
  O2-  O412  1  0.58469735  0.41609914  0.47748056  1
  O2-  O413  1  0.56783409  0.45017320  0.81521603  1
  O2-  O414  1  0.57136412  0.59707798  0.12624614  1
  O2-  O415  1  0.57372305  0.64012126  0.47321390  1
  O2-  O416  1  0.53644094  0.58191253  0.78523104  1
  O2-  O417  1  0.57297298  0.90854539  0.15244857  1
  O2-  O418  1  0.57940481  0.88591090  0.49269430  1
  O2-  O419  1  0.59254875  0.92545087  0.82469578  1
  O2-  O420  1  0.82499771  0.16032688  0.14440449  1
  O2-  O421  1  0.77344807  0.16286686  0.45591041  1
  O2-  O422  1  0.84032596  0.18189821  0.79807293  1
  O2-  O423  1  0.82460700  0.42175962  0.15503549  1
  O2-  O424  1  0.82529490  0.41569576  0.52862897  1
  O2-  O425  1  0.82641718  0.42008624  0.79389091  1
  O2-  O426  1  0.85201850  0.69765877  0.15780981  1
  O2-  O427  1  0.82769805  0.66495048  0.48003816  1
  O2-  O428  1  0.84290805  0.68598469  0.80854109  1
  O2-  O429  1  0.83077894  0.91609387  0.16206307  1
  O2-  O430  1  0.82055871  0.89742404  0.48880171  1
  O2-  O431  1  0.84855436  0.91551992  0.78591117  1
  O2-  O432  1  0.18119103  0.08724777  0.19817534  1
  O2-  O433  1  0.16765875  0.08887135  0.51751202  1
  O2-  O434  1  0.17547164  0.09021950  0.84858719  1
  O2-  O435  1  0.14473915  0.33290621  0.17287964  1
  O2-  O436  1  0.14802365  0.31777203  0.50275811  1
  O2-  O437  1  0.15106067  0.32938298  0.84544603  1
  O2-  O438  1  0.16479156  0.58966988  0.17916992  1
  O2-  O439  1  0.18469618  0.59027127  0.51098570  1
  O2-  O440  1  0.15784851  0.62992124  0.82857577  1
  O2-  O441  1  0.14460965  0.81377162  0.19116460  1
  O2-  O442  1  0.16197466  0.80332066  0.51568252  1
  O2-  O443  1  0.18340795  0.83375114  0.84215121  1
  O2-  O444  1  0.39574518  0.06642955  0.18836461  1
  O2-  O445  1  0.38743214  0.07631871  0.53024238  1
  O2-  O446  1  0.40696416  0.06587067  0.84739069  1
  O2-  O447  1  0.42357501  0.33288824  0.17909538  1
  O2-  O448  1  0.42266529  0.34022787  0.52492860  1
  O2-  O449  1  0.40951641  0.33331417  0.85366093  1
  O2-  O450  1  0.42057619  0.58028188  0.18514129  1
  O2-  O451  1  0.40369453  0.55990332  0.49684693  1
  O2-  O452  1  0.40010858  0.59134628  0.85178839  1
  O2-  O453  1  0.40062330  0.81792676  0.18392129  1
  O2-  O454  1  0.42134056  0.82653773  0.52610024  1
  O2-  O455  1  0.42306651  0.83931843  0.85343859  1
  O2-  O456  1  0.65611055  0.08433653  0.18570169  1
  O2-  O457  1  0.69424525  0.04416812  0.54350804  1
  O2-  O458  1  0.67749857  0.09057427  0.85074179  1
  O2-  O459  1  0.65636792  0.33043071  0.18888085  1
  O2-  O460  1  0.65277276  0.32720900  0.52094178  1
  O2-  O461  1  0.67155858  0.31650997  0.84504806  1
  O2-  O462  1  0.68461520  0.56180958  0.19623856  1
  O2-  O463  1  0.66573461  0.57456548  0.52227541  1
  O2-  O464  1  0.66443561  0.48000411  0.91619570  1
  O2-  O465  1  0.67021717  0.83855884  0.19505368  1
  O2-  O466  1  0.66171667  0.79586671  0.52488625  1
  O2-  O467  1  0.74440147  0.92542140  0.87448382  1
  O2-  O468  1  0.91079460  0.09164804  0.19209054  1
  O2-  O469  1  0.90519785  0.05584609  0.52843222  1
  O2-  O470  1  0.91400876  0.08931070  0.82648938  1
  O2-  O471  1  0.94814981  0.41078530  0.21958907  1
  O2-  O472  1  0.91485537  0.32677952  0.51485169  1
  O2-  O473  1  0.91686067  0.35428590  0.82884218  1
  O2-  O474  1  0.91432595  0.59124961  0.19025164  1
  O2-  O475  1  0.91876464  0.59159433  0.52257851  1
  O2-  O476  1  0.82864184  0.53695101  0.87211807  1
  O2-  O477  1  0.92343778  0.85081890  0.20579605  1
  O2-  O478  1  0.91210881  0.81920244  0.52376768  1
  O2-  O479  1  0.93971597  0.84057372  0.86477730  1
  O2-  O480  1  0.16319619  0.09855081  0.31947663  1
  O2-  O481  1  0.17866090  0.09388946  0.63597981  1
  O2-  O482  1  0.16689260  0.09058407  0.97387418  1
  O2-  O483  1  0.16808518  0.35522606  0.29105499  1
  O2-  O484  1  0.13941275  0.31689271  0.61702414  1
  O2-  O485  1  0.16177406  0.33483697  0.97120021  1
  O2-  O486  1  0.17422865  0.62496790  0.29794949  1
  O2-  O487  1  0.17848845  0.58451384  0.63846345  1
  O2-  O488  1  0.15889873  0.57842465  0.98129318  1
  O2-  O489  1  0.15698172  0.83531789  0.31916420  1
  O2-  O490  1  0.15962007  0.80445809  0.64350418  1
  O2-  O491  1  0.19200582  0.77658675  0.95137789  1
  O2-  O492  1  0.41281996  0.06320723  0.31467354  1
  O2-  O493  1  0.38354612  0.12683120  0.69510230  1
  O2-  O494  1  0.38218568  0.05652988  0.96499641  1
  O2-  O495  1  0.42578143  0.35611340  0.30549128  1
  O2-  O496  1  0.42161761  0.32236988  0.64175713  1
  O2-  O497  1  0.38825853  0.31672010  0.97012365  1
  O2-  O498  1  0.44194362  0.60833615  0.30661139  1
  O2-  O499  1  0.40635266  0.56861951  0.64734186  1
  O2-  O500  1  0.41027620  0.57971214  0.97241365  1
  O2-  O501  1  0.33301314  0.77041225  0.30134485  1
  O2-  O502  1  0.41908249  0.82501668  0.64965683  1
  O2-  O503  1  0.42531078  0.83004477  0.97360870  1
  O2-  O504  1  0.70671952  0.15101949  0.30604796  1
  O2-  O505  1  0.65280789  0.08253730  0.65601394  1
  O2-  O506  1  0.67781240  0.06967536  0.97364224  1
  O2-  O507  1  0.65129304  0.32666349  0.30810428  1
  O2-  O508  1  0.65441099  0.32756826  0.64628797  1
  O2-  O509  1  0.69507526  0.31699461  0.97467970  1
  O2-  O510  1  0.69609904  0.59083594  0.31510621  1
  O2-  O511  1  0.67116182  0.58286526  0.64449926  1
  O2-  O512  1  0.66048516  0.57310620  1.01283488  1
  O2-  O513  1  0.67103105  0.81905412  0.32275506  1
  O2-  O514  1  0.65556854  0.83830007  0.64890748  1
  O2-  O515  1  0.67784033  0.83854291  0.98234262  1
  O2-  O516  1  0.93325734  0.12538576  0.31484989  1
  O2-  O517  1  0.91124364  0.08248143  0.64948920  1
  O2-  O518  1  0.90554117  0.06667292  0.98049080  1
  O2-  O519  1  0.92142536  0.34104682  0.33925047  1
  O2-  O520  1  0.91973943  0.33817452  0.63832436  1
  O2-  O521  1  0.91218107  0.30844082  0.98589647  1
  O2-  O522  1  0.90696044  0.57347682  0.31045924  1
  O2-  O523  1  0.91984210  0.59152215  0.64499184  1
  O2-  O524  1  0.91050039  0.56988502  0.98232063  1
  O2-  O525  1  0.92293158  0.83860224  0.32598138  1
  O2-  O526  1  0.90786986  0.83944657  0.64694689  1
  O2-  O527  1  0.91960342  0.83206029  0.99175902  1
  O2-  O528  1  0.07528563  0.17042724  0.01011438  1
  O2-  O529  1  0.08972134  0.20023664  0.33918369  1
  O2-  O530  1  0.08208959  0.16603449  0.68208255  1
  O2-  O531  1  0.08079942  0.41408904  0.01590398  1
  O2-  O532  1  0.15770840  0.47913398  0.35281335  1
  O2-  O533  1  0.08708382  0.41750409  0.67739964  1
  O2-  O534  1  0.07463593  0.66287016  0.01943855  1
  O2-  O535  1  0.06669526  0.66965125  0.35590698  1
  O2-  O536  1  0.08259810  0.64871611  0.67916756  1
  O2-  O537  1  0.04784307  0.96211522  0.04738491  1
  O2-  O538  1  0.09222173  0.93585942  0.35855976  1
  O2-  O539  1  0.07876850  0.94260374  0.68635678  1
  O2-  O540  1  0.33175667  0.17230683  0.02262676  1
  O2-  O541  1  0.32103329  0.19741320  0.35298213  1
  O2-  O542  1  0.35699102  0.15250301  0.63923330  1
  O2-  O543  1  0.33408693  0.41316942  0.00474798  1
  O2-  O544  1  0.30426023  0.46986553  0.35422730  1
  O2-  O545  1  0.33115089  0.40454932  0.68828215  1
  O2-  O546  1  0.33412910  0.66805244  0.01489506  1
  O2-  O547  1  0.40407089  0.71070352  0.37373022  1
  O2-  O548  1  0.33214449  0.66747704  0.69427960  1
  O2-  O549  1  0.33593547  0.90551647  0.01030448  1
  O2-  O550  1  0.31691183  0.89176661  0.35986969  1
  O2-  O551  1  0.32497203  0.90185603  0.67826193  1
  O2-  O552  1  0.49684294  0.18662119  0.03866216  1
  O2-  O553  1  0.57188942  0.16300733  0.36048835  1
  O2-  O554  1  0.55524041  0.16164255  0.68742455  1
  O2-  O555  1  0.57624037  0.36035598  0.00315413  1
  O2-  O556  1  0.58919437  0.42447847  0.35459752  1
  O2-  O557  1  0.58343905  0.41884992  0.69192868  1
  O2-  O558  1  0.58040774  0.67107530  0.00957619  1
  O2-  O559  1  0.59825176  0.65665295  0.35080164  1
  O2-  O560  1  0.58336097  0.66535512  0.67169839  1
  O2-  O561  1  0.58669590  0.90901564  0.02427855  1
  O2-  O562  1  0.63540877  0.93481336  0.38440716  1
  O2-  O563  1  0.57712877  0.91459755  0.70025138  1
  O2-  O564  1  0.82769349  0.14865929  0.01863303  1
  O2-  O565  1  0.78711624  0.08778172  0.37962257  1
  O2-  O566  1  0.82898673  0.17361305  0.67747714  1
  O2-  O567  1  0.84892571  0.41255463  0.03300530  1
  O2-  O568  1  0.80836465  0.40330721  0.35463001  1
  O2-  O569  1  0.83206831  0.41985828  0.66163686  1
  O2-  O570  1  0.84160809  0.67105960  0.01300290  1
  O2-  O571  1  0.86321182  0.68073743  0.36724813  1
  O2-  O572  1  0.83533325  0.67195846  0.68774231  1
  O2-  O573  1  0.83403708  0.90713529  0.03867969  1
  O2-  O574  1  0.82470051  0.90375649  0.36348462  1
  O2-  O575  1  0.81009587  0.91420362  0.67575894  1
