# generated using pymatgen
data_H2O
_symmetry_space_group_name_H-M   'P 1'
_cell_length_a   17.99046076
_cell_length_b   17.98711703
_cell_length_c   21.99313852
_cell_angle_alpha   89.99218970
_cell_angle_beta   90.00316464
_cell_angle_gamma   119.98992197
_symmetry_Int_Tables_number   1
_chemical_formula_structural   H2O
_chemical_formula_sum   'H384 O192'
_cell_volume   6164.04468914
_cell_formula_units_Z   192
loop_
 _symmetry_equiv_pos_site_id
 _symmetry_equiv_pos_as_xyz
  1  'x, y, z'
loop_
 _atom_type_symbol
 _atom_type_oxidation_number
  H+  1.0
  O2-  -2.0
loop_
 _atom_site_type_symbol
 _atom_site_label
 _atom_site_symmetry_multiplicity
 _atom_site_fract_x
 _atom_site_fract_y
 _atom_site_fract_z
 _atom_site_occupancy
  H+  H0  1  0.10227882  0.95923862  -0.00441647  1
  H+  H1  1  0.73275459  0.10582541  0.32408602  1
  H+  H2  1  0.86375556  0.48740577  0.16390943  1
  H+  H3  1  0.40701025  0.56515502  0.63413910  1
  H+  H4  1  0.61269462  0.88506086  0.01025564  1
  H+  H5  1  0.88968502  0.62118618  0.16464711  1
  H+  H6  1  0.51885456  0.12623694  0.67183661  1
  H+  H7  1  0.62500479  0.60710218  0.84468015  1
  H+  H8  1  0.46990006  0.61070838  0.30855767  1
  H+  H9  1  0.36901006  0.74387074  0.50300264  1
  H+  H10  1  0.60631246  0.63418601  0.68051811  1
  H+  H11  1  0.23133245  0.86790293  0.65831216  1
  H+  H12  1  0.33911891  0.49225224  0.34265731  1
  H+  H13  1  0.61800483  0.26090208  0.66131023  1
  H+  H14  1  0.29211836  0.18379643  0.16532141  1
  H+  H15  1  0.89416451  -0.02712898  0.76176073  1
  H+  H16  1  0.11602450  0.51421992  0.83466057  1
  H+  H17  1  0.89416157  0.03056164  0.66122033  1
  H+  H18  1  0.85443597  0.38430817  0.48819713  1
  H+  H19  1  0.65785315  0.63073791  0.17437927  1
  H+  H20  1  0.43813367  0.27942537  0.15659173  1
  H+  H21  1  0.21896983  0.11621729  0.33091674  1
  H+  H22  1  0.38716472  1.02318583  0.64226501  1
  H+  H23  1  0.11776470  0.64045372  0.66876447  1
  H+  H24  1  0.69880072  0.73709857  0.96554588  1
  H+  H25  1  0.87693147  -0.01272610  0.50576535  1
  H+  H26  1  0.47452082  0.60765270  0.68708141  1
  H+  H27  1  0.87478784  0.13385942  0.33563565  1
  H+  H28  1  0.29859126  0.31550738  0.33030023  1
  H+  H29  1  0.36562376  0.89391493  0.49880791  1
  H+  H30  1  0.41392465  0.79527483  0.15430000  1
  H+  H31  1  0.77364473  0.38073104  0.33779460  1
  H+  H32  1  0.42591172  0.83822557  0.37651047  1
  H+  H33  1  0.87442644  -0.01108641  0.33206469  1
  H+  H34  1  0.26970043  0.65540293  0.49605134  1
  H+  H35  1  0.11857491  0.72457167  1.00961030  1
  H+  H36  1  0.14052397  0.33074588  0.89804965  1
  H+  H37  1  0.83117725  0.44365116  0.68877362  1
  H+  H38  1  0.37116891  0.50559243  0.84911290  1
  H+  H39  1  0.47829959  0.86580132  0.51543761  1
  H+  H40  1  0.85298803  0.63606606  0.50438132  1
  H+  H41  1  0.42552820  0.09587925  0.55690588  1
  H+  H42  1  0.12078799  0.11757810  0.99887537  1
  H+  H43  1  0.86887126  0.78755579  0.81837937  1
  H+  H44  1  0.89882201  0.27683076  0.99623617  1
  H+  H45  1  1.01633771  0.38046381  0.66293473  1
  H+  H46  1  0.11044367  0.76496784  0.34595918  1
  H+  H47  1  0.14603504  0.09306383  0.83448970  1
  H+  H48  1  0.99394373  0.62585310  0.49387266  1
  H+  H49  1  0.52602927  0.88674152  0.01393171  1
  H+  H50  1  0.35570981  0.64903565  0.46612241  1
  H+  H51  1  0.36788848  -0.02451469  1.00189814  1
  H+  H52  1  0.23842409  0.09868183  0.83581793  1
  H+  H53  1  0.11404879  0.25881637  0.33372349  1
  H+  H54  1  0.13312629  0.76028483  0.83944425  1
  H+  H55  1  0.82954467  0.15322844  0.42584501  1
  H+  H56  1  0.24180689  0.36065425  0.50755131  1
  H+  H57  1  0.87754999  0.51766365  0.31578952  1
  H+  H58  1  0.37073359  0.86290053  0.33768725  1
  H+  H59  1  0.10399724  0.60523818  0.33280349  1
  H+  H60  1  0.66323807  0.58951975  0.90352164  1
  H+  H61  1  0.32263471  0.67390897  0.10352536  1
  H+  H62  1  0.60892911  0.89448904  0.49304963  1
  H+  H63  1  0.10158022  0.19045797  0.83613119  1
  H+  H64  1  0.13867984  0.10906464  0.65716248  1
  H+  H65  1  0.11499085  -0.11014265  0.48998802  1
  H+  H66  1  0.89025305  0.78392099  0.51741241  1
  H+  H67  1  0.27325028  0.12968545  0.67276867  1
  H+  H68  1  0.68415127  0.36975040  0.57498998  1
  H+  H69  1  0.35090229  0.64188119  0.00745348  1
  H+  H70  1  0.10678458  0.87411710  0.00277647  1
  H+  H71  1  0.60970127  0.12873085  0.67416736  1
  H+  H72  1  0.36166293  0.21958444  0.67490033  1
  H+  H73  1  0.63692293  0.77840149  0.67304324  1
  H+  H74  1  0.85699614  0.63713149  0.64726232  1
  H+  H75  1  0.70375549  0.96615740  0.55639439  1
  H+  H76  1  0.65808318  0.90279074  0.16382002  1
  H+  H77  1  0.24813964  0.87254373  0.35312189  1
  H+  H78  1  0.12735981  0.73741977  0.48782488  1
  H+  H79  1  0.11606400  0.47776408  0.00469325  1
  H+  H80  1  0.94067913  0.33311420  0.49354484  1
  H+  H81  1  0.82371533  0.60752625  0.31702255  1
  H+  H82  1  0.37934362  0.21955908  0.33666220  1
  H+  H83  1  0.42018395  0.35501311  0.30723964  1
  H+  H84  1  0.35435077  0.21314897  0.01029550  1
  H+  H85  1  0.78970176  0.65437271  0.15838157  1
  H+  H86  1  0.31096783  0.34158979  0.30127710  1
  H+  H87  1  0.61080563  0.22079359  0.82541800  1
  H+  H88  1  0.13025572  0.87452685  0.82629421  1
  H+  H89  1  0.52266304  0.12876235  0.01388547  1
  H+  H90  1  0.63632994  0.11261743  0.17762241  1
  H+  H91  1  0.13713294  1.01935036  0.66105600  1
  H+  H92  1  0.61558086  0.60023268  0.49893909  1
  H+  H93  1  0.85953357  0.37926234  0.83617541  1
  H+  H94  1  0.37549657  0.10661640  0.17757868  1
  H+  H95  1  0.02975611  0.09507614  0.81360465  1
  H+  H96  1  0.90341306  0.33976367  0.13143404  1
  H+  H97  1  0.34808170  0.72144343  0.32794811  1
  H+  H98  1  0.86843086  0.40282586  0.17759058  1
  H+  H99  1  0.22263333  0.60827080  0.65943640  1
  H+  H100  1  0.88724004  0.02429213  0.83846139  1
  H+  H101  1  0.35381335  0.42007639  0.12907987  1
  H+  H102  1  0.14328288  0.50125602  0.49014544  1
  H+  H103  1  0.41018526  0.82445281  0.71967689  1
  H+  H104  1  0.90404045  1.02387527  -0.00576736  1
  H+  H105  1  0.13115173  0.61243077  0.99283087  1
  H+  H106  1  0.23594620  0.08570646  0.15491410  1
  H+  H107  1  0.63673504  0.40616425  1.01227403  1
  H+  H108  1  0.51355405  0.53764434  0.42505285  1
  H+  H109  1  0.43695434  0.60089685  0.44342685  1
  H+  H110  1  0.86400507  0.13185333  0.48838459  1
  H+  H111  1  0.71732710  0.62288944  1.00025550  1
  H+  H112  1  0.52849828  0.38205269  0.49651252  1
  H+  H113  1  0.68962231  0.59446361  0.23158343  1
  H+  H114  1  0.02392345  0.64432675  0.15850431  1
  H+  H115  1  0.46369436  0.79039521  0.84031261  1
  H+  H116  1  0.34644274  0.37943918  0.01660766  1
  H+  H117  1  0.10967575  0.05869015  0.16269211  1
  H+  H118  1  0.87198147  0.89870862  0.32844023  1
  H+  H119  1  0.68188394  0.78727984  1.01373401  1
  H+  H120  1  0.89537286  0.10998429  0.17045420  1
  H+  H121  1  0.87180087  0.38759868  0.01238170  1
  H+  H122  1  0.63806395  0.73235028  0.32525923  1
  H+  H123  1  0.87603811  0.34693374  0.65846937  1
  H+  H124  1  0.42055382  0.55071430  0.16662439  1
  H+  H125  1  0.61011736  0.12627461  0.01662083  1
  H+  H126  1  0.12020253  0.91008943  0.14772172  1
  H+  H127  1  0.55431076  0.39558605  0.34012522  1
  H+  H128  1  0.97121846  0.35952364  0.32533565  1
  H+  H129  1  0.66375478  0.67791844  1.05884971  1
  H+  H130  1  0.51713199  0.88560386  0.68359003  1
  H+  H131  1  0.33767090  0.15677321  0.76596362  1
  H+  H132  1  0.11237789  0.52123578  0.32824305  1
  H+  H133  1  0.12359946  0.85976623  0.33779387  1
  H+  H134  1  0.71259671  0.60772374  0.65180524  1
  H+  H135  1  0.85390043  0.64791038  0.81239431  1
  H+  H136  1  0.14314860  0.77776119  0.65899158  1
  H+  H137  1  0.77325493  0.13173674  0.68238533  1
  H+  H138  1  0.70499692  0.85558519  0.84145694  1
  H+  H139  1  0.35901687  0.97683922  0.15643813  1
  H+  H140  1  0.35675859  0.72114005  0.67909749  1
  H+  H141  1  0.02687818  0.89164950  0.49462508  1
  H+  H142  1  1.03264211  0.64640225  0.66324805  1
  H+  H143  1  0.59352914  0.71704551  0.83760945  1
  H+  H144  1  -0.08829522  0.83174135  0.88012434  1
  H+  H145  1  0.10785685  0.38381013  0.66572734  1
  H+  H146  1  0.14628066  0.63053880  0.50056707  1
  H+  H147  1  0.33964667  0.54379405  0.41934163  1
  H+  H148  1  0.60369464  0.47054764  0.67876108  1
  H+  H149  1  0.45268736  0.35984343  0.99694044  1
  H+  H150  1  0.11500649  0.88230351  0.67474533  1
  H+  H151  1  0.78634977  0.90700155  0.51683727  1
  H+  H152  1  0.98987331  0.88029987  0.16866056  1
  H+  H153  1  0.35495736  0.47261057  0.01995491  1
  H+  H154  1  0.15019145  0.58239976  0.23475575  1
  H+  H155  1  0.27882205  0.13867261  0.49085577  1
  H+  H156  1  0.26002536  0.63376529  0.32599669  1
  H+  H157  1  0.86392172  0.21820202  0.33555920  1
  H+  H158  1  0.50710716  0.62532684  0.83488903  1
  H+  H159  1  0.41079774  0.87888843  0.15094442  1
  H+  H160  1  0.35826384  0.63101129  0.68513492  1
  H+  H161  1  0.12880487  0.79188162  0.15613279  1
  H+  H162  1  0.37035235  0.46580464  0.49169680  1
  H+  H163  1  0.10786748  -0.01207374  0.33774012  1
  H+  H164  1  0.38801125  0.10859632  0.99687691  1
  H+  H165  1  0.86772918  0.13453695  0.00726741  1
  H+  H166  1  0.63671343  0.02074502  0.66899194  1
  H+  H167  1  0.85550935  0.10356981  0.85069267  1
  H+  H168  1  0.14144999  0.02420290  0.50103878  1
  H+  H169  1  0.47879453  0.10153375  0.84024402  1
  H+  H170  1  0.35543077  0.37108570  0.84152079  1
  H+  H171  1  0.63182000  0.01929027  0.50456107  1
  H+  H172  1  0.58150511  0.15512698  0.76750673  1
  H+  H173  1  0.07206812  0.41268986  0.75462461  1
  H+  H174  1  0.22085060  0.33328804  0.86560841  1
  H+  H175  1  0.13202417  0.52139927  0.65339742  1
  H+  H176  1  0.36829200  0.59318462  0.84299147  1
  H+  H177  1  0.12743876  0.26206499  0.17938569  1
  H+  H178  1  0.85335544  0.71431683  -0.00169921  1
  H+  H179  1  0.89163714  0.62485420  0.98143471  1
  H+  H180  1  0.89198554  0.78062212  0.31977376  1
  H+  H181  1  0.63418137  0.35341102  0.84322395  1
  H+  H182  1  0.63170025  0.15380910  0.51949019  1
  H+  H183  1  0.87201341  0.89391530  0.67601235  1
  H+  H184  1  0.81782867  0.87403177  -0.00150052  1
  H+  H185  1  0.20607557  0.59903180  0.83523928  1
  H+  H186  1  0.11527756  0.47434624  0.16255046  1
  H+  H187  1  0.09445085  0.37579577  0.33790074  1
  H+  H188  1  0.44167944  0.83857707  0.93719657  1
  H+  H189  1  0.52194710  0.37101007  0.16054070  1
  H+  H190  1  0.89359162  0.87510908  0.51662713  1
  H+  H191  1  0.10024172  0.62981542  0.82173358  1
  H+  H192  1  0.13008832  0.61367088  0.17264511  1
  H+  H193  1  0.11745324  0.13808876  0.49517465  1
  H+  H194  1  0.13254056  0.12247584  0.33056387  1
  H+  H195  1  0.60392042  0.38112467  0.68040449  1
  H+  H196  1  -0.00255952  0.12950386  0.33097386  1
  H+  H197  1  0.82413649  0.66816995  0.59274408  1
  H+  H198  1  0.10818451  0.38702021  0.81145493  1
  H+  H199  1  -0.01535198  0.83614457  -0.03192921  1
  H+  H200  1  0.62129811  0.97363797  0.33232416  1
  H+  H201  1  1.02673074  0.64554887  0.99917158  1
  H+  H202  1  0.70727649  0.34230958  0.67224743  1
  H+  H203  1  0.46887538  0.11374733  0.17764438  1
  H+  H204  1  0.64669881  0.36989287  0.17851378  1
  H+  H205  1  0.94260042  0.74414487  0.93830857  1
  H+  H206  1  0.38629067  0.11080833  0.65457195  1
  H+  H207  1  0.34075983  0.96200314  0.34591587  1
  H+  H208  1  0.89182630  0.11779187  0.66722387  1
  H+  H209  1  0.91457811  0.53361340  0.63307250  1
  H+  H210  1  0.19494216  0.36264006  0.33288135  1
  H+  H211  1  0.87724863  0.52030507  0.83316697  1
  H+  H212  1  0.76748595  0.37460162  0.83140880  1
  H+  H213  1  0.39162352  0.01148337  0.84418477  1
  H+  H214  1  0.88058519  0.74167011  0.15489349  1
  H+  H215  1  0.97440070  0.36110552  0.84188926  1
  H+  H216  1  0.58134523  0.41405331  0.77652782  1
  H+  H217  1  0.99290146  0.36547098  0.16176238  1
  H+  H218  1  0.02913682  0.13954355  0.67119562  1
  H+  H219  1  0.83699305  0.42233855  0.42773341  1
  H+  H220  1  0.74760063  0.40898295  0.51790524  1
  H+  H221  1  0.73589072  0.13185615  0.84585349  1
  H+  H222  1  0.86504108  0.38679776  0.33432799  1
  H+  H223  1  0.67511022  0.52837255  0.33078671  1
  H+  H224  1  0.13424233  0.97189406  0.82585419  1
  H+  H225  1  0.64768251  0.50678767  0.15540784  1
  H+  H226  1  0.27065184  0.64346547  0.16499910  1
  H+  H227  1  -0.01709324  0.87054407  0.32411538  1
  H+  H228  1  0.46686052  0.46884327  0.04381721  1
  H+  H229  1  0.61050713  0.22391856  0.16809740  1
  H+  H230  1  0.59207434  0.88569004  0.84766892  1
  H+  H231  1  0.22831138  0.84214680  0.84771598  1
  H+  H232  1  0.06669464  0.41389031  0.50957977  1
  H+  H233  1  0.39070045  0.26887896  0.50962994  1
  H+  H234  1  0.39187482  0.77668618  0.99410945  1
  H+  H235  1  0.32945007  0.70311943  0.83031868  1
  H+  H236  1  0.87154332  0.22016916  0.15833531  1
  H+  H237  1  0.38374125  0.10009285  0.33192297  1
  H+  H238  1  0.63170184  0.72809876  0.49101445  1
  H+  H239  1  0.55258048  0.16461633  0.50987944  1
  H+  H240  1  0.45080964  0.60646595  1.00138450  1
  H+  H241  1  0.99022654  0.36692855  0.99625133  1
  H+  H242  1  1.02843749  0.11962689  0.15847154  1
  H+  H243  1  0.62309290  0.51707182  0.50622564  1
  H+  H244  1  0.59096568  0.36974152  0.01064401  1
  H+  H245  1  0.61156984  0.20656493  0.33755612  1
  H+  H246  1  0.61020128  0.47147310  0.83679085  1
  H+  H247  1  0.64907611  0.25374679  0.98950798  1
  H+  H248  1  0.92969831  0.84881678  0.60428716  1
  H+  H249  1  0.65010232  0.86350139  0.32240020  1
  H+  H250  1  0.22054609  0.87691359  0.15485764  1
  H+  H251  1  0.91403702  0.93119774  0.82002758  1
  H+  H252  1  0.26527917  0.37794871  0.68528640  1
  H+  H253  1  0.78438186  0.89612928  0.68541827  1
  H+  H254  1  0.74026292  0.34113209  -0.01316848  1
  H+  H255  1  0.63508043  0.86570900  0.68117715  1
  H+  H256  1  0.34080153  0.16853861  0.39853500  1
  H+  H257  1  0.73248310  0.11261615  0.99497741  1
  H+  H258  1  0.22777834  0.09735258  -0.00728258  1
  H+  H259  1  0.33085411  0.87693363  0.78034093  1
  H+  H260  1  0.12172981  0.22895855  0.49721150  1
  H+  H261  1  0.65698910  0.77505815  0.49856881  1
  H+  H262  1  0.91693076  0.32968372  0.26378657  1
  H+  H263  1  0.47541147  0.35501456  0.84461313  1
  H+  H264  1  0.53207774  0.88690401  0.32728093  1
  H+  H265  1  0.63692689  0.12586812  0.84286443  1
  H+  H266  1  0.61139065  0.56464575  0.00252119  1
  H+  H267  1  0.63344209  0.74357599  0.15889843  1
  H+  H268  1  0.76052842  0.63204961  0.50971997  1
  H+  H269  1  0.85676652  0.24550211  0.49935834  1
  H+  H270  1  0.89511656  0.02140888  0.17429128  1
  H+  H271  1  0.64635085  0.35667932  0.33567834  1
  H+  H272  1  0.57135989  0.91782680  0.74458880  1
  H+  H273  1  -0.01406421  0.12503316  0.50803732  1
  H+  H274  1  0.26729130  0.64937789  0.00187769  1
  H+  H275  1  0.39718801  0.03503247  0.49938616  1
  H+  H276  1  0.74677499  0.87566022  0.31995047  1
  H+  H277  1  -0.03529485  0.60960233  0.82612083  1
  H+  H278  1  0.37076181  0.88771757  0.00262769  1
  H+  H279  1  0.23207036  0.86014478  0.99676876  1
  H+  H280  1  0.64301809  0.02234704  0.99291464  1
  H+  H281  1  0.52373070  0.11703455  0.33550948  1
  H+  H282  1  0.37931957  0.35257591  0.67019606  1
  H+  H283  1  0.23257886  0.87336670  0.50684422  1
  H+  H284  1  0.16131519  0.37465981  0.50413958  1
  H+  H285  1  0.87414131  0.88713152  0.16345822  1
  H+  H286  1  0.13774972  0.27441087  0.65839842  1
  H+  H287  1  0.86651595  0.23194073  0.83615569  1
  H+  H288  1  0.42123692  0.08258649  0.93685448  1
  H+  H289  1  0.33330926  0.92024311  0.09548840  1
  H+  H290  1  0.64036363  0.57452471  0.60271096  1
  H+  H291  1  0.82154161  0.38764850  0.74533914  1
  H+  H292  1  0.42459180  0.83714343  0.57850117  1
  H+  H293  1  0.89931927  0.31519332  0.59649371  1
  H+  H294  1  0.58078593  0.66442395  0.74261021  1
  H+  H295  1  -0.00410349  0.64119750  0.38953845  1
  H+  H296  1  0.40575219  0.06605916  0.27204637  1
  H+  H297  1  0.09361682  0.16551860  0.72763476  1
  H+  H298  1  0.31772313  0.65522790  0.76640752  1
  H+  H299  1  0.92402708  0.33424017  0.90692591  1
  H+  H300  1  0.56531584  0.63078415  0.39851270  1
  H+  H301  1  0.36145083  0.95411561  0.71287400  1
  H+  H302  1  0.67195955  0.09558827  0.90926354  1
  H+  H303  1  0.36315421  0.55006757  0.56195264  1
  H+  H304  1  0.54457997  0.46602572  0.07564773  1
  H+  H305  1  0.65055621  1.00135670  0.16192885  1
  H+  H306  1  0.13927524  0.31726690  0.23927473  1
  H+  H307  1  0.39902094  0.57447238  0.93917098  1
  H+  H308  1  0.91165947  0.58637429  0.22564461  1
  H+  H309  1  0.66768403  0.32593188  0.27345084  1
  H+  H310  1  0.35449419  0.46294570  0.69843825  1
  H+  H311  1  0.89188613  0.07108576  0.91126064  1
  H+  H312  1  0.38857416  0.26340869  0.84028824  1
  H+  H313  1  0.31839202  0.14884296  0.06788910  1
  H+  H314  1  0.07729059  0.92552770  0.39641711  1
  H+  H315  1  0.02396568  0.88140533  0.68008184  1
  H+  H316  1  0.31437257  0.42520154  0.39875463  1
  H+  H317  1  0.17342771  0.59750280  0.56264407  1
  H+  H318  1  0.68123448  0.84445257  0.23582233  1
  H+  H319  1  0.83287311  0.41083444  0.06943417  1
  H+  H320  1  0.08054455  0.66823892  0.76161493  1
  H+  H321  1  0.65293284  0.45065829  0.09914100  1
  H+  H322  1  0.61197060  0.93037185  0.10254461  1
  H+  H323  1  0.84575633  0.91623582  0.10376255  1
  H+  H324  1  0.67090096  0.07639433  0.60792157  1
  H+  H325  1  0.83523054  0.16161755  0.06604441  1
  H+  H326  1  0.64030297  0.10375500  0.32452199  1
  H+  H327  1  0.08879625  0.14552248  0.10023124  1
  H+  H328  1  0.09120767  0.41787723  0.06289419  1
  H+  H329  1  0.40294733  0.62624827  0.15565685  1
  H+  H330  1  0.38328236  0.61519456  0.31142985  1
  H+  H331  1  0.16919355  0.83906445  0.56387648  1
  H+  H332  1  0.91429181  0.90421915  0.01500231  1
  H+  H333  1  0.37017340  0.14119643  0.48992851  1
  H+  H334  1  0.67078302  0.82226380  0.90715213  1
  H+  H335  1  0.73123095  0.36470867  0.18032907  1
  H+  H336  1  0.41064961  0.56574502  0.55729547  1
  H+  H337  1  0.15770561  0.58213447  0.93220524  1
  H+  H338  1  0.37200458  0.87932376  0.67366573  1
  H+  H339  1  0.57947198  0.16218621  0.10989815  1
  H+  H340  1  0.09539688  0.90704114  0.76208243  1
  H+  H341  1  0.08218277  0.17235804  0.39513372  1
  H+  H342  1  0.86102984  0.22105521  0.67828320  1
  H+  H343  1  0.83304440  0.17035614  0.77535496  1
  H+  H344  1  0.40499302  0.39836036  0.17544134  1
  H+  H345  1  0.88843117  0.77831799  0.65461193  1
  H+  H346  1  0.62973676  0.40952566  0.50394236  1
  H+  H347  1  0.60256465  0.42311597  0.40449935  1
  H+  H348  1  0.40451524  0.31659278  0.93531234  1
  H+  H349  1  0.67194032  0.08341197  0.23606023  1
  H+  H350  1  -0.01186067  0.11505650  -0.01362180  1
  H+  H351  1  0.74216926  0.86978604  0.17501629  1
  H+  H352  1  0.08969254  0.67274418  0.42674441  1
  H+  H353  1  0.17501134  0.33821042  0.60137600  1
  H+  H354  1  0.16830922  0.82371124  0.93996261  1
  H+  H355  1  0.57559880  0.90742250  0.42758041  1
  H+  H356  1  0.32935509  0.91535141  0.43747292  1
  H+  H357  1  0.93033405  0.84094564  0.22889627  1
  H+  H358  1  0.41801252  0.32671603  0.57098061  1
  H+  H359  1  0.37593647  0.37907550  0.49705149  1
  H+  H360  1  0.92374666  0.61024292  0.91677246  1
  H+  H361  1  0.47065881  0.35765377  0.66937397  1
  H+  H362  1  0.76634894  0.64485407  0.82001031  1
  H+  H363  1  0.95988256  0.61160583  0.31726582  1
  H+  H364  1  0.36861751  0.12660014  0.82546422  1
  H+  H365  1  0.83116143  0.66990461  0.06435747  1
  H+  H366  1  0.17186826  0.08044883  0.56171656  1
  H+  H367  1  0.92570522  0.09900447  0.56738603  1
  H+  H368  1  0.38489937  0.87500680  0.83530504  1
  H+  H369  1  0.90375255  0.53483406  0.49347679  1
  H+  H370  1  0.15645367  0.24922084  0.96103178  1
  H+  H371  1  0.07595345  0.41632247  0.39715664  1
  H+  H372  1  0.77844846  0.13633509  0.16196794  1
  H+  H373  1  0.17394221  0.06886202  0.93002828  1
  H+  H374  1  0.64587250  0.64728585  0.32413272  1
  H+  H375  1  0.67649300  0.87760269  0.58916855  1
  H+  H376  1  0.93331837  0.09395276  0.27006419  1
  H+  H377  1  0.11294604  0.38147800  0.16322807  1
  H+  H378  1  0.72871229  0.09873615  0.50500017  1
  H+  H379  1  0.08113139  0.66756368  0.09921914  1
  H+  H380  1  0.31413282  0.39385846  0.78574781  1
  H+  H381  1  0.93660014  0.59847361  0.57978999  1
  H+  H382  1  0.66930319  0.31381269  0.89625289  1
  H+  H383  1  0.46313541  0.32608678  0.25857699  1
  O2-  O384  1  0.08846713  0.13839358  0.14474568  1
  O2-  O385  1  0.08593234  0.16854522  0.48371142  1
  O2-  O386  1  0.08996672  0.14162316  0.80919595  1
  O2-  O387  1  0.08672116  0.41523542  0.14471903  1
  O2-  O388  1  0.11372357  0.43805535  0.48047437  1
  O2-  O389  1  0.07329933  0.41262846  0.80075349  1
  O2-  O390  1  0.08459366  0.67495527  0.14429181  1
  O2-  O391  1  0.10050350  0.67607181  0.47477468  1
  O2-  O392  1  0.07576939  0.66596523  0.80707758  1
  O2-  O393  1  0.08827623  0.94470955  0.13852321  1
  O2-  O394  1  0.08572621  0.92175919  0.47644899  1
  O2-  O395  1  0.10336381  0.90922046  0.80953902  1
  O2-  O396  1  0.29558831  0.13632401  0.14681941  1
  O2-  O397  1  0.33967583  0.17293371  0.47661905  1
  O2-  O398  1  0.33744571  0.15655126  0.81174199  1
  O2-  O399  1  0.37048317  0.42634099  0.17220399  1
  O2-  O400  1  0.34260839  0.40564216  0.47919199  1
  O2-  O401  1  0.31817938  0.39639147  0.83129638  1
  O2-  O402  1  0.32963825  0.67357356  0.14802562  1
  O2-  O403  1  0.33106032  0.69051832  0.47784755  1
  O2-  O404  1  0.31326972  0.64745829  0.81257737  1
  O2-  O405  1  0.32806345  0.91720826  0.14053159  1
  O2-  O406  1  0.33657087  0.92426491  0.48334259  1
  O2-  O407  1  0.34200556  0.89168839  0.82347119  1
  O2-  O408  1  0.57837431  0.16257063  0.15553741  1
  O2-  O409  1  0.61363511  0.19685082  0.52112013  1
  O2-  O410  1  0.58363488  0.15775965  0.81355051  1
  O2-  O411  1  0.62014647  0.44732401  0.13542784  1
  O2-  O412  1  0.58703331  0.41983700  0.47968826  1
  O2-  O413  1  0.58113717  0.41079292  0.82194599  1
  O2-  O414  1  0.62329331  0.69027055  0.13672495  1
  O2-  O415  1  0.53366001  0.59710596  0.43645881  1
  O2-  O416  1  0.56810973  0.65826677  0.82080495  1
  O2-  O417  1  0.64979983  0.95038927  0.13933671  1
  O2-  O418  1  0.56895857  0.90975727  0.47264403  1
  O2-  O419  1  0.55560222  0.90809313  0.83035075  1
  O2-  O420  1  0.83689222  0.15974536  0.14390543  1
  O2-  O421  1  0.82553512  0.15285042  0.47183559  1
  O2-  O422  1  0.83071642  0.17005645  0.82137360  1
  O2-  O423  1  0.83333696  0.42263424  0.15659420  1
  O2-  O424  1  0.84111297  0.42813950  0.47318882  1
  O2-  O425  1  0.82856929  0.40588086  0.81624961  1
  O2-  O426  1  0.84779093  0.68074945  0.13961578  1
  O2-  O427  1  0.82366727  0.66774049  0.51666212  1
  O2-  O428  1  0.82310160  0.67819560  0.80043288  1
  O2-  O429  1  0.84113339  0.91580546  0.14850223  1
  O2-  O430  1  0.84391779  0.92377146  0.50131913  1
  O2-  O431  1  0.92192462  0.98937855  0.80304822  1
  O2-  O432  1  0.13538140  0.02221583  0.17543570  1
  O2-  O433  1  0.17355220  0.08495493  0.51668168  1
  O2-  O434  1  0.17658517  0.06311110  0.84998737  1
  O2-  O435  1  0.14069559  0.31894680  0.19374105  1
  O2-  O436  1  0.18193557  0.33834211  0.52325182  1
  O2-  O437  1  0.16193356  0.29387695  0.88306004  1
  O2-  O438  1  0.15653143  0.58075230  0.18971765  1
  O2-  O439  1  0.17936837  0.60135059  0.51726031  1
  O2-  O440  1  0.14612337  0.57418319  0.85025057  1
  O2-  O441  1  0.15797122  0.85503421  0.16117444  1
  O2-  O442  1  0.17037736  0.84003516  0.51863483  1
  O2-  O443  1  0.16703150  0.82065075  0.85675896  1
  O2-  O444  1  0.40825474  0.07940770  0.19195581  1
  O2-  O445  1  0.42593135  0.09660615  0.51164166  1
  O2-  O446  1  0.41849360  0.07246305  0.85601061  1
  O2-  O447  1  0.46567677  0.33219243  0.18030069  1
  O2-  O448  1  0.42280023  0.32958932  0.52579911  1
  O2-  O449  1  0.41374082  0.32209156  0.85804654  1
  O2-  O450  1  0.44624353  0.60874190  0.14905544  1
  O2-  O451  1  0.37631799  0.58506749  0.45199674  1
  O2-  O452  1  0.40149520  0.56799067  0.86069800  1
  O2-  O453  1  0.45164079  0.85759786  0.14848722  1
  O2-  O454  1  0.41927130  0.83581858  0.53403857  1
  O2-  O455  1  0.46871360  0.84525851  0.85290796  1
  O2-  O456  1  0.67229331  0.08674074  0.18962298  1
  O2-  O457  1  0.67459165  0.06759663  0.52958888  1
  O2-  O458  1  0.67422469  0.10175236  0.86215677  1
  O2-  O459  1  0.66936798  0.33354516  0.19355173  1
  O2-  O460  1  0.70479875  0.41416339  0.54299385  1
  O2-  O461  1  0.66299973  0.31903436  0.85034390  1
  O2-  O462  1  0.68576262  0.59651274  0.18643215  1
  O2-  O463  1  0.64759857  0.57799197  0.52172913  1
  O2-  O464  1  0.65849658  0.58008053  0.85901551  1
  O2-  O465  1  0.68062647  0.84593770  0.18867659  1
  O2-  O466  1  0.68671120  0.90612828  0.54852194  1
  O2-  O467  1  0.65256430  0.82995243  0.86575565  1
  O2-  O468  1  0.92826336  0.08318340  0.18616320  1
  O2-  O469  1  0.92436777  0.09705039  0.52222366  1
  O2-  O470  1  0.86152301  0.05498786  0.86956651  1
  O2-  O471  1  0.92659833  0.33230225  0.16960029  1
  O2-  O472  1  0.88658867  0.30721011  0.51569337  1
  O2-  O473  1  0.91657306  0.32987516  0.86078794  1
  O2-  O474  1  0.91540138  0.58638981  0.17992885  1
  O2-  O475  1  0.93236347  0.59577726  0.50795491  1
  O2-  O476  1  0.90507105  0.58266871  0.84210809  1
  O2-  O477  1  0.92917532  0.84193702  0.18303199  1
  O2-  O478  1  0.92693568  0.84507611  0.52878317  1
  O2-  O479  1  0.89614076  0.84447609  0.83953278  1
  O2-  O480  1  0.15869781  0.08626290  0.31786634  1
  O2-  O481  1  0.16943438  0.07831921  0.64413058  1
  O2-  O482  1  0.16818140  0.06883759  0.97501640  1
  O2-  O483  1  0.13679885  0.32478306  0.31674200  1
  O2-  O484  1  0.16739401  0.33655734  0.64670444  1
  O2-  O485  1  0.15592703  0.24011108  1.00549156  1
  O2-  O486  1  0.13871962  0.58185870  0.31450725  1
  O2-  O487  1  0.16434588  0.58292656  0.64058128  1
  O2-  O488  1  0.16535683  0.58600837  0.97694180  1
  O2-  O489  1  0.15236461  0.82526729  0.33357930  1
  O2-  O490  1  0.17004174  0.83891623  0.64516692  1
  O2-  O491  1  0.16979521  0.82680884  0.98487507  1
  O2-  O492  1  0.40857895  0.06438692  0.31718716  1
  O2-  O493  1  0.42038134  0.08628189  0.63608967  1
  O2-  O494  1  0.42159917  0.08147533  0.98207737  1
  O2-  O495  1  0.45688367  0.32952933  0.30339476  1
  O2-  O496  1  0.41076206  0.32524794  0.65252543  1
  O2-  O497  1  0.39754709  0.31430008  0.98064320  1
  O2-  O498  1  0.40768830  0.57664925  0.30422673  1
  O2-  O499  1  0.41025615  0.57311090  0.67844073  1
  O2-  O500  1  0.39302874  0.57594735  0.98440693  1
  O2-  O501  1  0.41115202  0.83917313  0.33403913  1
  O2-  O502  1  0.41068253  0.82861599  0.67537684  1
  O2-  O503  1  0.43127086  0.83872132  0.98109720  1
  O2-  O504  1  0.67255821  0.07456102  0.30782668  1
  O2-  O505  1  0.67047977  0.08073372  0.65322231  1
  O2-  O506  1  0.67211950  0.08307137  0.97821857  1
  O2-  O507  1  0.67044528  0.32180888  0.31845391  1
  O2-  O508  1  0.65062534  0.32391312  0.65371124  1
  O2-  O509  1  0.69067437  0.29845964  0.96184048  1
  O2-  O510  1  0.70354855  0.58524865  0.30821418  1
  O2-  O511  1  0.64864263  0.57660701  0.64778120  1
  O2-  O512  1  0.66149257  0.61805454  0.98587462  1
  O2-  O513  1  0.68356485  0.83817680  0.30497476  1
  O2-  O514  1  0.66943955  0.84099337  0.66392110  1
  O2-  O515  1  0.70704499  0.79515974  0.97255530  1
  O2-  O516  1  0.93065958  0.09500505  0.31498535  1
  O2-  O517  1  0.92475205  0.09233228  0.64875829  1
  O2-  O518  1  0.92500545  0.08268098  0.97726944  1
  O2-  O519  1  0.91067830  0.32784313  0.30813081  1
  O2-  O520  1  0.90887088  0.32057599  0.64138041  1
  O2-  O521  1  0.92808160  0.33647191  0.98054182  1
  O2-  O522  1  0.90005142  0.57750703  0.29977533  1
  O2-  O523  1  0.93483663  0.59425286  0.62635741  1
  O2-  O524  1  0.94326468  0.64059281  0.95676536  1
  O2-  O525  1  0.92353825  0.83907396  0.30381262  1
  O2-  O526  1  0.92513454  0.84199216  0.65020824  1
  O2-  O527  1  0.92992529  0.79085590  0.94690265  1
  O2-  O528  1  0.08991647  0.14931636  0.01372605  1
  O2-  O529  1  0.08259550  0.17498881  0.35051761  1
  O2-  O530  1  0.09161178  0.16852888  0.68269252  1
  O2-  O531  1  0.08663289  0.41671751  0.01781614  1
  O2-  O532  1  0.06740998  0.41175456  0.35284723  1
  O2-  O533  1  0.07621943  0.41391002  0.67926616  1
  O2-  O534  1  0.08206162  0.66220253  0.02031657  1
  O2-  O535  1  0.04811795  0.65737504  0.36637826  1
  O2-  O536  1  0.08997604  0.67332314  0.68367430  1
  O2-  O537  1  0.06685744  0.89722892  0.00469406  1
  O2-  O538  1  0.07551834  0.92497027  0.35123389  1
  O2-  O539  1  0.08537197  0.91083063  0.69511677  1
  O2-  O540  1  0.32691540  0.15141694  0.02302799  1
  O2-  O541  1  0.34010650  0.16205114  0.35324412  1
  O2-  O542  1  0.33352538  0.15814143  0.68864114  1
  O2-  O543  1  0.35776217  0.42739915  0.04381766  1
  O2-  O544  1  0.29285470  0.45472942  0.37275772  1
  O2-  O545  1  0.32143139  0.40016460  0.70697972  1
  O2-  O546  1  0.32771670  0.68014321  0.01779433  1
  O2-  O547  1  0.32181992  0.65909266  0.33495794  1
  O2-  O548  1  0.32315732  0.65903229  0.69339414  1
  O2-  O549  1  0.33631710  0.91426489  0.01558069  1
  O2-  O550  1  0.31223147  0.90366032  0.36484656  1
  O2-  O551  1  0.33976248  0.91778615  0.67692088  1
  O2-  O552  1  0.58111514  0.15665200  0.03271265  1
  O2-  O553  1  0.58534665  0.14462220  0.34659193  1
  O2-  O554  1  0.57681429  0.15504254  0.69149840  1
  O2-  O555  1  0.52513338  0.47566346  0.03628227  1
  O2-  O556  1  0.61228524  0.42753404  0.35913721  1
  O2-  O557  1  0.57423969  0.41165475  0.69664808  1
  O2-  O558  1  0.67935872  0.72952463  0.08388591  1
  O2-  O559  1  0.60658648  0.66907497  0.33369026  1
  O2-  O560  1  0.57771432  0.66567809  0.69727854  1
  O2-  O561  1  0.58888177  0.91938401  0.02602505  1
  O2-  O562  1  0.58929457  0.91186717  0.34647214  1
  O2-  O563  1  0.57827296  0.91769313  0.69997859  1
  O2-  O564  1  0.83528804  0.16300190  0.02035428  1
  O2-  O565  1  0.83659495  0.15815910  0.35062727  1
  O2-  O566  1  0.83343786  0.16375863  0.69886185  1
  O2-  O567  1  0.83255052  0.40872210  0.02472059  1
  O2-  O568  1  0.83584042  0.41824127  0.34934523  1
  O2-  O569  1  0.81717466  0.38534743  0.69881536  1
  O2-  O570  1  0.81701754  0.65884010  0.01987032  1
  O2-  O571  1  0.79093788  0.63514045  0.33337451  1
  O2-  O572  1  0.82430866  0.66649424  0.63861522  1
  O2-  O573  1  0.86965053  0.91978161  0.01913087  1
  O2-  O574  1  0.83854730  0.92603548  0.34123610  1
  O2-  O575  1  0.84738473  0.92904978  0.69267789  1
