# generated using pymatgen
data_H2O
_symmetry_space_group_name_H-M   'P 1'
_cell_length_a   17.99460102
_cell_length_b   17.99518561
_cell_length_c   22.00033030
_cell_angle_alpha   89.97837047
_cell_angle_beta   90.02859634
_cell_angle_gamma   120.00040995
_symmetry_Int_Tables_number   1
_chemical_formula_structural   H2O
_chemical_formula_sum   'H384 O192'
_cell_volume   6169.59324453
_cell_formula_units_Z   192
loop_
 _symmetry_equiv_pos_site_id
 _symmetry_equiv_pos_as_xyz
  1  'x, y, z'
loop_
 _atom_type_symbol
 _atom_type_oxidation_number
  H+  1.0
  O2-  -2.0
loop_
 _atom_site_type_symbol
 _atom_site_label
 _atom_site_symmetry_multiplicity
 _atom_site_fract_x
 _atom_site_fract_y
 _atom_site_fract_z
 _atom_site_occupancy
  H+  H0  1  0.85763216  0.88273836  0.67130087  1
  H+  H1  1  0.15112854  1.02119272  0.83385416  1
  H+  H2  1  0.12929235  0.26073531  0.66717818  1
  H+  H3  1  0.62056896  0.13242689  0.33029629  1
  H+  H4  1  0.58026824  0.66384386  0.09103911  1
  H+  H5  1  0.38386462  0.01789087  0.16918821  1
  H+  H6  1  0.52058628  0.12561668  0.15637977  1
  H+  H7  1  0.36322770  0.72424600  0.66996721  1
  H+  H8  1  0.52503032  0.39315621  -0.03419677  1
  H+  H9  1  0.39676154  0.90260113  0.36515678  1
  H+  H10  1  0.96927111  0.63127093  0.17653004  1
  H+  H11  1  0.82607631  0.66231639  0.06047445  1
  H+  H12  1  0.88207464  0.54035250  0.17818732  1
  H+  H13  1  0.59792362  0.67041294  0.69365243  1
  H+  H14  1  -0.01910267  0.37242282  0.84015074  1
  H+  H15  1  0.40667899  0.06510563  0.74905769  1
  H+  H16  1  0.47169849  0.20247938  0.28020284  1
  H+  H17  1  0.61094313  0.12926034  0.67754108  1
  H+  H18  1  0.61844577  0.48208845  0.81719165  1
  H+  H19  1  0.81840275  0.53503499  0.52993299  1
  H+  H20  1  0.11619089  0.39193695  0.16440376  1
  H+  H21  1  0.58784598  0.16769302  0.76954262  1
  H+  H22  1  0.34910321  0.37478694  0.33396288  1
  H+  H23  1  0.88282119  0.53138997  0.82791068  1
  H+  H24  1  0.16051841  0.11617039  0.83292040  1
  H+  H25  1  0.18386950  0.76715561  0.31950147  1
  H+  H26  1  0.85232449  -0.02239773  0.49398521  1
  H+  H27  1  0.63738845  0.27712735  1.00616786  1
  H+  H28  1  0.72237048  0.10815732  0.66661810  1
  H+  H29  1  0.65098636  0.13850207  0.49183198  1
  H+  H30  1  0.63839697  0.11106352  1.00341954  1
  H+  H31  1  0.36409018  0.63826123  0.31220832  1
  H+  H32  1  0.35686109  0.37580886  0.82688565  1
  H+  H33  1  0.40010343  1.01100352  -0.01049126  1
  H+  H34  1  0.88858244  -0.02572375  0.17799832  1
  H+  H35  1  0.65462922  0.32013164  0.23837239  1
  H+  H36  1  0.17223610  0.83525742  0.60733080  1
  H+  H37  1  0.40542403  0.77785213  0.33522834  1
  H+  H38  1  0.60460933  0.36959778  0.67066462  1
  H+  H39  1  0.23601688  0.85966035  0.66836841  1
  H+  H40  1  0.86167767  0.72551827  0.00345859  1
  H+  H41  1  0.85535180  0.62361009  0.33918369  1
  H+  H42  1  0.11493670  0.46891642  0.67608921  1
  H+  H43  1  0.39274966  0.10952375  0.83556433  1
  H+  H44  1  0.63402666  0.51199936  0.50091932  1
  H+  H45  1  0.90470181  0.53379710  0.68016041  1
  H+  H46  1  0.35970152  0.95549055  0.81797455  1
  H+  H47  1  0.88026353  0.14318940  0.33271070  1
  H+  H48  1  0.16489972  0.57243591  0.24187152  1
  H+  H49  1  0.36395893  0.71921870  -0.00575472  1
  H+  H50  1  0.88634347  0.34059285  0.50747083  1
  H+  H51  1  0.14056512  0.61948828  1.03138495  1
  H+  H52  1  0.46237266  0.61013629  0.65941752  1
  H+  H53  1  0.35203011  0.46185424  0.82643511  1
  H+  H54  1  0.76689239  0.90334958  0.82352774  1
  H+  H55  1  -0.01895222  0.94466326  0.37321298  1
  H+  H56  1  0.46243673  0.60332440  0.83950351  1
  H+  H57  1  0.35761180  0.13231992  0.15260478  1
  H+  H58  1  0.10762699  0.12278458  0.49610180  1
  H+  H59  1  0.51282631  0.88629804  0.67685275  1
  H+  H60  1  0.58249403  0.56519835  0.67387915  1
  H+  H61  1  0.36692994  0.87893817  0.00910906  1
  H+  H62  1  0.62947403  0.79336525  0.65479622  1
  H+  H63  1  0.90219922  0.37354174  -0.00255023  1
  H+  H64  1  0.12786820  0.73415060  0.67273566  1
  H+  H65  1  0.88616881  0.35926221  0.32801647  1
  H+  H66  1  0.12714442  0.10289206  0.15718034  1
  H+  H67  1  0.37363516  0.85336780  0.66663963  1
  H+  H68  1  0.63694121  0.35429895  0.33319951  1
  H+  H69  1  0.35289313  0.95012595  0.68395130  1
  H+  H70  1  0.27572060  0.63285179  0.80956702  1
  H+  H71  1  0.77541972  0.38365127  0.33931617  1
  H+  H72  1  0.61663976  0.64098857  0.99419301  1
  H+  H73  1  -0.02577047  0.10423035  0.50042167  1
  H+  H74  1  0.27646125  0.63355028  1.01280196  1
  H+  H75  1  0.27959609  0.88315695  1.01066788  1
  H+  H76  1  0.74062300  0.64246253  0.17766593  1
  H+  H77  1  0.36383839  0.63266480  0.49605999  1
  H+  H78  1  0.36663024  0.13435800  0.69236718  1
  H+  H79  1  0.14050238  0.51645026  0.50893354  1
  H+  H80  1  0.46180844  0.60328166  0.16381191  1
  H+  H81  1  0.60357460  0.45708069  0.34151777  1
  H+  H82  1  0.02598891  0.39786157  0.16667564  1
  H+  H83  1  0.73182987  0.11322458  0.16640110  1
  H+  H84  1  0.06581720  0.11607928  0.31171247  1
  H+  H85  1  0.02735749  0.38477361  0.01059697  1
  H+  H86  1  0.52717123  0.64074441  0.99897206  1
  H+  H87  1  0.96470096  0.86068834  0.30017502  1
  H+  H88  1  1.03906133  0.64530194  0.67076830  1
  H+  H89  1  0.90237753  0.02113054  1.01358651  1
  H+  H90  1  0.50809654  0.85204370  0.48904501  1
  H+  H91  1  0.07426134  0.99165698  0.34441402  1
  H+  H92  1  0.31751989  0.39912817  0.39447452  1
  H+  H93  1  0.22042777  0.11265828  0.16752694  1
  H+  H94  1  0.53842587  0.14647971  0.47386712  1
  H+  H95  1  0.58351063  0.36887070  0.19905023  1
  H+  H96  1  0.06389349  0.92006492  0.43796054  1
  H+  H97  1  0.12794666  0.89342929  0.82603708  1
  H+  H98  1  0.78072155  0.87996525  0.01682352  1
  H+  H99  1  0.13120729  0.26723223  0.85014117  1
  H+  H100  1  0.63689521  0.36509215  0.82951575  1
  H+  H101  1  0.62768947  0.76781180  0.16851599  1
  H+  H102  1  0.39137312  0.36985742  0.99507378  1
  H+  H103  1  0.41777339  0.08930063  0.22316671  1
  H+  H104  1  0.13656002  0.51369612  0.17561259  1
  H+  H105  1  0.74062790  0.61427477  0.82590075  1
  H+  H106  1  0.87585615  0.78420105  0.51015806  1
  H+  H107  1  0.35683435  0.22160512  0.14607408  1
  H+  H108  1  0.61328216  0.39280979  -0.02726950  1
  H+  H109  1  0.72453776  0.61523150  0.98108448  1
  H+  H110  1  0.64416083  0.26877501  0.32949927  1
  H+  H111  1  0.13679738  0.77238146  0.84008137  1
  H+  H112  1  0.59700136  0.93892231  0.46996825  1
  H+  H113  1  0.60313461  0.37199517  0.49663201  1
  H+  H114  1  0.38134261  0.85098124  0.83690091  1
  H+  H115  1  0.08585284  0.67281816  0.76415502  1
  H+  H116  1  0.74683158  0.12893370  0.48906882  1
  H+  H117  1  0.61661691  0.58484701  0.69829646  1
  H+  H118  1  0.67887323  0.59388015  0.88197471  1
  H+  H119  1  0.96609005  0.49141734  0.04760560  1
  H+  H120  1  0.74642282  0.86826475  0.31758748  1
  H+  H121  1  0.04288523  0.10680790  0.84658612  1
  H+  H122  1  0.72535933  0.36570553  0.82586807  1
  H+  H123  1  0.86176175  0.12622513  0.48496671  1
  H+  H124  1  0.61252871  0.62841284  0.50109682  1
  H+  H125  1  0.61223029  0.12894644  0.15886135  1
  H+  H126  1  0.13053801  0.72846088  0.48977808  1
  H+  H127  1  0.47101057  0.59850311  0.50718509  1
  H+  H128  1  0.84912918  0.03472240  0.18735150  1
  H+  H129  1  0.64730878  1.01916140  0.16733453  1
  H+  H130  1  0.22121921  0.34739225  0.66432547  1
  H+  H131  1  0.61670859  0.26219684  0.17830714  1
  H+  H132  1  0.19808467  0.16542768  0.62418647  1
  H+  H133  1  0.39377959  0.11029274  0.46256560  1
  H+  H134  1  0.37198016  0.22661904  0.67652739  1
  H+  H135  1  0.60731777  0.85488382  0.48913830  1
  H+  H136  1  0.11673268  0.37846976  0.49385722  1
  H+  H137  1  0.59300385  0.46238995  0.19800344  1
  H+  H138  1  0.83843715  0.15078124  0.82005465  1
  H+  H139  1  0.11153397  -0.02529825  1.00461896  1
  H+  H140  1  0.60835329  0.63930204  0.15353058  1
  H+  H141  1  0.63020759  1.02438108  0.66565751  1
  H+  H142  1  0.13492478  0.51803684  0.33042628  1
  H+  H143  1  0.33802758  0.39351252  0.16447422  1
  H+  H144  1  -0.05119492  0.13048798  0.81076210  1
  H+  H145  1  0.38963225  0.61203212  0.99024758  1
  H+  H146  1  0.72470300  0.87406376  0.65233314  1
  H+  H147  1  0.35417830  0.46496217  0.67431652  1
  H+  H148  1  0.88626517  0.77440796  0.66420864  1
  H+  H149  1  0.72956681  0.11132266  0.32146666  1
  H+  H150  1  0.11301634  0.26537996  0.31334689  1
  H+  H151  1  0.39505757  0.27955841  0.84155851  1
  H+  H152  1  0.26779323  0.14426904  0.99957386  1
  H+  H153  1  0.22397454  0.38100206  0.16503675  1
  H+  H154  1  0.35789423  0.63039228  0.17620812  1
  H+  H155  1  0.85441537  0.76255387  0.83893770  1
  H+  H156  1  0.47336000  0.10416764  0.69593529  1
  H+  H157  1  0.70878383  0.11513571  0.85376639  1
  H+  H158  1  0.37336063  0.59663260  0.84029308  1
  H+  H159  1  0.54137870  0.89647448  0.16985238  1
  H+  H160  1  0.87404683  0.21797922  0.67564993  1
  H+  H161  1  0.11206518  0.73318395  0.00529300  1
  H+  H162  1  0.33569138  0.90636016  0.44512171  1
  H+  H163  1  0.11432616  0.86672753  0.36419218  1
  H+  H164  1  0.48191016  0.86129766  0.99405087  1
  H+  H165  1  0.62192478  0.88092262  0.16189128  1
  H+  H166  1  0.71745823  0.58846263  0.33196670  1
  H+  H167  1  0.50010850  0.73587694  0.81263968  1
  H+  H168  1  0.62058666  0.11247366  0.84902868  1
  H+  H169  1  0.89215512  0.52479877  0.32648106  1
  H+  H170  1  0.51579660  0.37695160  0.49505011  1
  H+  H171  1  0.84508588  0.43275331  0.50123168  1
  H+  H172  1  0.34513594  0.22805099  0.33061001  1
  H+  H173  1  0.71685059  0.35692291  -0.02272258  1
  H+  H174  1  0.87217906  0.22784360  0.33496327  1
  H+  H175  1  0.70713018  0.39430956  0.53397509  1
  H+  H176  1  0.97631903  0.86296608  0.66217025  1
  H+  H177  1  0.00424932  0.10110497  0.13472126  1
  H+  H178  1  0.64522422  0.86569190  0.99844840  1
  H+  H179  1  0.70764752  0.33566969  0.65549459  1
  H+  H180  1  0.47382607  0.35656130  0.32690735  1
  H+  H181  1  0.11292683  0.38050034  0.83359558  1
  H+  H182  1  0.57228503  0.39885626  0.40170143  1
  H+  H183  1  0.86251355  0.73770410  0.14609112  1
  H+  H184  1  0.09469345  0.91311674  0.10236825  1
  H+  H185  1  0.49193800  0.84772339  0.36794526  1
  H+  H186  1  0.13449443  0.85981228  0.50846859  1
  H+  H187  1  0.88029065  0.16070957  0.15072116  1
  H+  H188  1  0.89496084  0.25829362  0.50373492  1
  H+  H189  1  0.35606006  0.46406737  0.48998747  1
  H+  H190  1  0.22583572  0.86368325  0.51212043  1
  H+  H191  1  0.02836016  0.37825244  0.49463386  1
  H+  H192  1  0.38624410  0.35733105  0.66093498  1
  H+  H193  1  0.75800914  0.34827189  0.49363629  1
  H+  H194  1  0.66127007  0.77974066  0.32568716  1
  H+  H195  1  0.38088927  0.26325217  0.50343708  1
  H+  H196  1  0.23889122  0.61137925  0.18466851  1
  H+  H197  1  0.13414879  0.64127280  0.48890884  1
  H+  H198  1  0.14070402  0.61133192  0.80811353  1
  H+  H199  1  0.88265453  1.01292092  0.65268545  1
  H+  H200  1  0.58562726  0.90982487  0.06907166  1
  H+  H201  1  0.12083812  -0.02537460  0.15951472  1
  H+  H202  1  0.37264252  0.60287827  0.65693874  1
  H+  H203  1  0.60472135  0.98271841  0.83083376  1
  H+  H204  1  0.61536983  -0.02736481  1.01168822  1
  H+  H205  1  0.90435029  0.50749777  1.00672106  1
  H+  H206  1  0.88660603  0.28650308  0.17048369  1
  H+  H207  1  0.36283052  0.51209863  0.31839335  1
  H+  H208  1  0.61029293  0.71634408  0.50241089  1
  H+  H209  1  0.86315021  0.14749858  0.72677279  1
  H+  H210  1  0.88959511  0.85811510  1.00063382  1
  H+  H211  1  0.47761229  0.36113902  0.65782481  1
  H+  H212  1  0.14199845  0.52289087  0.81129461  1
  H+  H213  1  0.83764134  0.17572427  0.09213272  1
  H+  H214  1  0.94932881  0.61322875  0.49498212  1
  H+  H215  1  0.01185475  0.11861634  0.67763330  1
  H+  H216  1  0.22312658  0.35230265  0.84718490  1
  H+  H217  1  0.15176371  0.86226732  0.35351408  1
  H+  H218  1  0.77358392  0.13503362  1.00710650  1
  H+  H219  1  0.62297740  0.23839561  0.49009040  1
  H+  H220  1  0.10232783  0.12267877  0.68626451  1
  H+  H221  1  0.89057442  0.99161427  0.34645127  1
  H+  H222  1  0.66449080  0.49882506  0.65300004  1
  H+  H223  1  0.38346105  0.48088695  0.01858681  1
  H+  H224  1  0.86535065  0.03827706  0.80351690  1
  H+  H225  1  0.40499881  0.35670383  0.10753777  1
  H+  H226  1  0.64337018  0.77605116  -0.00845677  1
  H+  H227  1  0.87795624  0.85698380  0.30043183  1
  H+  H228  1  0.13381959  0.60785719  0.32692520  1
  H+  H229  1  0.62668729  0.63532007  0.34683572  1
  H+  H230  1  0.10693210  0.21081815  0.49594606  1
  H+  H231  1  0.14510860  0.86874150  0.99324427  1
  H+  H232  1  0.01488218  0.88700485  0.50024959  1
  H+  H233  1  0.49731064  0.96120674  0.23142715  1
  H+  H234  1  0.38585510  0.76097326  0.51110781  1
  H+  H235  1  0.36584384  0.96657301  0.50106186  1
  H+  H236  1  0.28833086  0.13886963  0.83437716  1
  H+  H237  1  0.19683654  0.11536800  0.31830579  1
  H+  H238  1  0.98239208  0.35446592  0.66050838  1
  H+  H239  1  0.91357780  0.07768358  0.55914456  1
  H+  H240  1  0.64260868  0.88660994  0.84883108  1
  H+  H241  1  0.10689635  0.38127784  0.33852104  1
  H+  H242  1  0.87041759  0.40010729  0.81752451  1
  H+  H243  1  0.10350916  0.73100774  0.16207704  1
  H+  H244  1  0.39181309  0.85408401  0.51129662  1
  H+  H245  1  0.22715379  0.60477299  0.66301989  1
  H+  H246  1  0.86182100  0.22610503  1.00358407  1
  H+  H247  1  0.17554268  0.07283266  0.56307716  1
  H+  H248  1  0.83177679  0.42657410  0.62835798  1
  H+  H249  1  0.91627745  0.58939013  0.26946447  1
  H+  H250  1  0.24316382  0.12906925  0.66570124  1
  H+  H251  1  0.27467061  0.12601826  0.48690864  1
  H+  H252  1  -0.04246497  0.58202597  0.51265101  1
  H+  H253  1  0.35583797  0.37505103  0.49047926  1
  H+  H254  1  0.88487122  0.29176425  0.84430602  1
  H+  H255  1  0.63660630  0.52776469  0.96331827  1
  H+  H256  1  0.32602026  0.40487454  0.73403396  1
  H+  H257  1  0.34230377  0.68568814  0.22405107  1
  H+  H258  1  0.23259291  0.85856696  0.17140122  1
  H+  H259  1  0.48247346  0.11055666  0.83189034  1
  H+  H260  1  0.84938812  0.88765487  0.49927393  1
  H+  H261  1  0.38274256  0.27639285  0.98727138  1
  H+  H262  1  0.27654518  0.63396023  0.49959045  1
  H+  H263  1  0.16432080  0.32046911  0.56564049  1
  H+  H264  1  0.22340416  0.35075365  0.50555889  1
  H+  H265  1  0.14033649  0.53050332  1.02999856  1
  H+  H266  1  0.20867231  0.34584824  0.32414959  1
  H+  H267  1  0.87639930  0.65109508  0.68061899  1
  H+  H268  1  0.02282915  0.63775759  0.82237847  1
  H+  H269  1  0.88594225  0.10313744  0.65100449  1
  H+  H270  1  0.97656199  0.36128571  0.32850744  1
  H+  H271  1  0.88039227  0.61609669  -0.01430021  1
  H+  H272  1  0.79317026  0.19068127  0.78190154  1
  H+  H273  1  0.37702176  0.89402830  0.16899103  1
  H+  H274  1  0.61608218  0.23347001  0.82648635  1
  H+  H275  1  0.12032217  0.88379713  0.67159011  1
  H+  H276  1  1.02017314  0.64772685  0.99979827  1
  H+  H277  1  0.53245087  0.13133513  0.00211163  1
  H+  H278  1  0.02686764  0.88292891  0.00469316  1
  H+  H279  1  0.75253260  0.59461746  0.65706963  1
  H+  H280  1  0.58339641  0.41299520  0.72818568  1
  H+  H281  1  0.11646796  0.97059662  0.66789045  1
  H+  H282  1  0.86692459  0.37062931  0.65945224  1
  H+  H283  1  0.60607425  0.89529221  0.67194323  1
  H+  H284  1  0.11410448  0.37874856  0.67353538  1
  H+  H285  1  0.41423871  0.04897336  0.42206446  1
  H+  H286  1  0.13534112  0.01026487  0.50565010  1
  H+  H287  1  0.22921381  0.85602982  0.83758533  1
  H+  H288  1  0.17515644  0.83756732  0.93466790  1
  H+  H289  1  0.40743077  0.56734873  0.56406871  1
  H+  H290  1  0.61720015  0.44598890  0.06514780  1
  H+  H291  1  0.34482429  0.14167332  0.33016964  1
  H+  H292  1  0.84799922  0.89412114  0.82462822  1
  H+  H293  1  0.20913905  0.82971918  0.26352815  1
  H+  H294  1  0.36422057  0.72040188  0.82676705  1
  H+  H295  1  0.49399354  0.14260380  0.31693048  1
  H+  H296  1  0.40200192  0.56877090  0.25879408  1
  H+  H297  1  0.85527109  0.44561658  0.10739338  1
  H+  H298  1  0.67743935  0.56668887  0.56060636  1
  H+  H299  1  0.84847045  0.68408324  0.74013876  1
  H+  H300  1  0.16710356  0.57413672  0.56938882  1
  H+  H301  1  0.90877260  0.83926858  0.57189285  1
  H+  H302  1  0.09848202  0.92294125  0.76631261  1
  H+  H303  1  0.42744693  0.06189905  0.92651012  1
  H+  H304  1  0.41784552  0.57259440  0.93686799  1
  H+  H305  1  0.91175836  0.58863937  0.92454745  1
  H+  H306  1  0.86244895  0.64917447  0.16111308  1
  H+  H307  1  0.92385734  0.31689599  0.60005940  1
  H+  H308  1  0.90151023  0.56987687  0.61733542  1
  H+  H309  1  0.66901599  0.82772855  0.22796402  1
  H+  H310  1  0.16124179  0.34254028  0.22447474  1
  H+  H311  1  0.58117894  0.92380726  0.76984010  1
  H+  H312  1  0.93881939  0.07556801  0.26118708  1
  H+  H313  1  0.86821636  0.40821316  0.16782917  1
  H+  H314  1  0.45806391  0.87412558  0.26510152  1
  H+  H315  1  0.41488328  0.82957276  0.60682714  1
  H+  H316  1  0.16505294  0.07765939  0.93076719  1
  H+  H317  1  0.67323686  0.08375584  0.26151249  1
  H+  H318  1  0.82449368  0.91601917  0.72755496  1
  H+  H319  1  0.14060606  0.60746179  0.66380523  1
  H+  H320  1  0.67525042  0.85115344  0.90600738  1
  H+  H321  1  0.60114014  0.21376913  0.67234877  1
  H+  H322  1  0.47503366  0.86131889  0.83909981  1
  H+  H323  1  0.62003804  0.44062054  0.09888790  1
  H+  H324  1  0.82397650  0.66520046  0.39063383  1
  H+  H325  1  0.89253941  0.62675135  0.82957803  1
  H+  H326  1  0.93570239  0.74298693  0.79792303  1
  H+  H327  1  0.03227766  0.64008922  0.33696880  1
  H+  H328  1  0.40918626  0.32175485  0.56429289  1
  H+  H329  1  0.76764234  0.63924024  0.48981578  1
  H+  H330  1  0.83775315  0.41774181  0.75446453  1
  H+  H331  1  0.91504714  0.33627293  0.23383769  1
  H+  H332  1  0.90428501  0.82619422  0.93699887  1
  H+  H333  1  0.36625725  0.51155117  0.16459914  1
  H+  H334  1  0.08117162  0.41494467  0.07186648  1
  H+  H335  1  0.65750156  0.56908114  0.27485880  1
  H+  H336  1  0.59545380  0.76465582  0.83040807  1
  H+  H337  1  0.06466514  0.67531479  0.10186770  1
  H+  H338  1  0.78742522  0.77429891  0.87983357  1
  H+  H339  1  0.46558399  0.36301620  0.16303900  1
  H+  H340  1  0.66093180  0.84428767  0.56303528  1
  H+  H341  1  0.32653879  0.16871300  0.05718010  1
  H+  H342  1  0.58421910  0.16257493  0.06575941  1
  H+  H343  1  0.91485254  0.85303205  0.20433907  1
  H+  H344  1  0.42874989  0.34341402  0.26365979  1
  H+  H345  1  0.52709561  0.39526265  0.82315155  1
  H+  H346  1  0.84048665  0.16225785  0.42283887  1
  H+  H347  1  0.09729000  0.66837548  0.39433759  1
  H+  H348  1  0.05756389  0.14038657  0.07528940  1
  H+  H349  1  0.76609918  0.51701283  0.59211307  1
  H+  H350  1  0.42673634  0.08417194  0.57976478  1
  H+  H351  1  0.65004181  0.31461047  0.59402561  1
  H+  H352  1  0.42189234  0.83342886  0.93417034  1
  H+  H353  1  0.65778474  0.07575510  0.94328970  1
  H+  H354  1  0.60018904  0.67198819  0.40306215  1
  H+  H355  1  0.18754694  0.62787026  0.90155378  1
  H+  H356  1  0.13131359  0.11447624  0.98238014  1
  H+  H357  1  0.90210492  0.10782059  1.00839715  1
  H+  H358  1  0.45340324  0.06271315  0.57830957  1
  H+  H359  1  0.08229582  0.41084167  0.40072196  1
  H+  H360  1  0.06340574  0.14583246  0.77742008  1
  H+  H361  1  0.34352543  0.17420394  0.77415565  1
  H+  H362  1  0.33929072  0.66459246  0.72901402  1
  H+  H363  1  0.34420352  0.90938991  0.10350276  1
  H+  H364  1  0.28168809  0.64979323  0.31758255  1
  H+  H365  1  0.84558110  0.92587562  0.40271811  1
  H+  H366  1  0.72200978  0.86893508  0.50229205  1
  H+  H367  1  0.32398939  0.88974583  0.75899811  1
  H+  H368  1  0.16869284  0.30053743  0.94171273  1
  H+  H369  1  0.14604715  0.08112899  0.25557091  1
  H+  H370  1  0.59652346  0.16708595  0.39096848  1
  H+  H371  1  0.08329969  0.40180645  0.76965076  1
  H+  H372  1  0.17654840  0.62279662  0.93488546  1
  H+  H373  1  0.14832801  0.86687787  0.17609585  1
  H+  H374  1  0.84059876  0.89515709  0.07676058  1
  H+  H375  1  0.32224970  0.16725980  0.42434175  1
  H+  H376  1  0.55714522  0.71055607  0.73621555  1
  H+  H377  1  0.30853846  0.89406349  0.34817592  1
  H+  H378  1  0.91892854  0.34117777  0.93447235  1
  H+  H379  1  0.86604428  0.66233678  0.48418741  1
  H+  H380  1  0.41755299  0.34205294  0.89858161  1
  H+  H381  1  0.83357680  0.40600625  0.39821172  1
  H+  H382  1  0.70457305  0.68338490  0.22333553  1
  H+  H383  1  0.33771562  0.42256964  0.07790774  1
  O2-  O384  1  0.06288736  0.13140979  0.11888062  1
  O2-  O385  1  0.07366529  0.14956157  0.48353914  1
  O2-  O386  1  0.06093913  0.15794619  0.82193173  1
  O2-  O387  1  0.08590513  0.42762114  0.15121273  1
  O2-  O388  1  0.08835806  0.41095079  0.47917893  1
  O2-  O389  1  0.08177119  0.40746644  0.81471182  1
  O2-  O390  1  0.06040754  0.67302777  0.14682094  1
  O2-  O391  1  0.10927120  0.67305734  0.46849572  1
  O2-  O392  1  0.08438971  0.66952973  0.80967227  1
  O2-  O393  1  0.10041445  0.91439864  0.14715145  1
  O2-  O394  1  0.07323343  0.91192417  0.48187279  1
  O2-  O395  1  0.10334915  0.92924601  0.81109723  1
  O2-  O396  1  0.32269528  0.15819805  0.13938884  1
  O2-  O397  1  0.33282095  0.16173194  0.46835904  1
  O2-  O398  1  0.34887140  0.17239587  0.81921418  1
  O2-  O399  1  0.31490936  0.42647854  0.14493675  1
  O2-  O400  1  0.32380322  0.40322806  0.47506357  1
  O2-  O401  1  0.32112518  0.40120111  0.81139672  1
  O2-  O402  1  0.32856342  0.66624205  0.18125766  1
  O2-  O403  1  0.33740456  0.66807624  0.48599126  1
  O2-  O404  1  0.34104451  0.66221777  0.80802638  1
  O2-  O405  1  0.34157956  0.91449294  0.14898047  1
  O2-  O406  1  0.33201402  0.90487384  0.49154814  1
  O2-  O407  1  0.32743545  0.89388657  0.80738920  1
  O2-  O408  1  0.58220484  0.15932491  0.14387848  1
  O2-  O409  1  0.60273183  0.18078499  0.47092012  1
  O2-  O410  1  0.58547354  0.16992910  0.81514029  1
  O2-  O411  1  0.55161726  0.40213780  0.20511487  1
  O2-  O412  1  0.57643522  0.40619638  0.48007663  1
  O2-  O413  1  0.58437030  0.42094816  0.80289564  1
  O2-  O414  1  0.57297394  0.66202340  0.13625087  1
  O2-  O415  1  0.57946041  0.65636654  0.48782171  1
  O2-  O416  1  0.54317595  0.71835913  0.80843970  1
  O2-  O417  1  0.59475153  0.91644512  0.14616692  1
  O2-  O418  1  0.63253061  1.01932477  0.51210472  1
  O2-  O419  1  0.58121245  0.92241198  0.81550619  1
  O2-  O420  1  0.83919100  0.17836154  0.13902117  1
  O2-  O421  1  0.83490444  0.16009391  0.46888752  1
  O2-  O422  1  0.80915923  0.18607681  0.82358233  1
  O2-  O423  1  0.84316421  0.44216021  0.15137962  1
  O2-  O424  1  0.82042073  0.37760514  0.48032548  1
  O2-  O425  1  0.83759270  0.42576799  0.79858058  1
  O2-  O426  1  0.82965773  0.67446844  0.14017157  1
  O2-  O427  1  0.82687489  0.68357349  0.47557811  1
  O2-  O428  1  0.87454555  0.70169712  0.80224550  1
  O2-  O429  1  0.85264784  0.88772863  0.15044995  1
  O2-  O430  1  0.81867236  0.91555750  0.48041176  1
  O2-  O431  1  0.82563919  0.92903654  0.80471807  1
  O2-  O432  1  0.15963321  0.08204824  0.18230033  1
  O2-  O433  1  0.17236197  0.07237589  0.51837967  1
  O2-  O434  1  0.18333190  0.08286238  0.85200699  1
  O2-  O435  1  0.16022600  0.34787048  0.17994892  1
  O2-  O436  1  0.16244940  0.32014219  0.52054276  1
  O2-  O437  1  0.16475655  0.32599316  0.86669854  1
  O2-  O438  1  0.17133374  0.57523258  0.19540677  1
  O2-  O439  1  0.17087932  0.57669780  0.52406892  1
  O2-  O440  1  0.17523666  0.58372174  0.79863982  1
  O2-  O441  1  0.17500076  0.83187773  0.19050696  1
  O2-  O442  1  0.16501153  0.83206085  0.52650139  1
  O2-  O443  1  0.16986444  0.83305531  0.85488637  1
  O2-  O444  1  0.41515866  0.08110692  0.17852037  1
  O2-  O445  1  0.43027507  0.08290045  0.45970329  1
  O2-  O446  1  0.41873271  0.07157614  0.83744490  1
  O2-  O447  1  0.40537594  0.33073983  0.14662348  1
  O2-  O448  1  0.40948170  0.32357206  0.51891017  1
  O2-  O449  1  0.41992366  0.34133355  0.85221901  1
  O2-  O450  1  0.40383817  0.57607936  0.18198888  1
  O2-  O451  1  0.40903860  0.56679994  0.51877068  1
  O2-  O452  1  0.40343708  0.56497468  0.85367818  1
  O2-  O453  1  0.46540762  0.90058797  0.22362598  1
  O2-  O454  1  0.42364355  0.82425719  0.52386021  1
  O2-  O455  1  0.41512106  0.82451858  0.85411319  1
  O2-  O456  1  0.67215169  0.08015559  0.18224740  1
  O2-  O457  1  0.68707870  0.11210978  0.51000527  1
  O2-  O458  1  0.64745477  0.07860389  0.86520483  1
  O2-  O459  1  0.63341570  0.31875973  0.19654927  1
  O2-  O460  1  0.66380576  0.33421271  0.52588563  1
  O2-  O461  1  0.66624873  0.33299024  0.84179878  1
  O2-  O462  1  0.68724426  0.62967003  0.20184452  1
  O2-  O463  1  0.66832303  0.57272098  0.51656666  1
  O2-  O464  1  0.68014873  0.58880470  0.83668002  1
  O2-  O465  1  0.66107647  0.82802562  0.18297534  1
  O2-  O466  1  0.66010556  0.83390086  0.51748355  1
  O2-  O467  1  0.67260478  0.85413425  0.86000719  1
  O2-  O468  1  0.90368931  0.03637655  0.19292084  1
  O2-  O469  1  0.91156137  0.07769191  0.51373689  1
  O2-  O470  1  0.88813530  0.10126946  0.79753194  1
  O2-  O471  1  0.91708712  0.34457644  0.18886722  1
  O2-  O472  1  0.92258746  0.31680568  0.52236952  1
  O2-  O473  1  0.92103156  0.35348659  0.85468998  1
  O2-  O474  1  0.90852690  0.60095851  0.19437609  1
  O2-  O475  1  0.80600384  0.50194873  0.56739941  1
  O2-  O476  1  0.91541785  0.58939809  0.84653684  1
  O2-  O477  1  0.91001151  0.85352029  0.15872040  1
  O2-  O478  1  0.90781115  0.84374868  0.52639204  1
  O2-  O479  1  0.84597612  0.80666992  0.86438463  1
  O2-  O480  1  0.13810119  0.08349077  0.30118149  1
  O2-  O481  1  0.18598021  0.11242821  0.64475507  1
  O2-  O482  1  0.15743484  0.07783895  0.97545559  1
  O2-  O483  1  0.14930777  0.32646555  0.30736370  1
  O2-  O484  1  0.16081673  0.31834712  0.64834570  1
  O2-  O485  1  0.17249921  0.27553321  0.98232243  1
  O2-  O486  1  0.16467058  0.57680567  0.31229152  1
  O2-  O487  1  0.16600083  0.57247612  0.64891658  1
  O2-  O488  1  0.17559078  0.59272966  1.04026187  1
  O2-  O489  1  0.23088784  0.82168570  0.30323149  1
  O2-  O490  1  0.17143543  0.83541627  0.65258264  1
  O2-  O491  1  0.17598224  0.83789821  0.98009085  1
  O2-  O492  1  0.44503068  0.14393961  0.29576364  1
  O2-  O493  1  0.40970857  0.07467328  0.70474407  1
  O2-  O494  1  0.43864142  0.06754914  0.97057494  1
  O2-  O495  1  0.41554875  0.33177812  0.30690191  1
  O2-  O496  1  0.41616763  0.32747338  0.64435398  1
  O2-  O497  1  0.41428159  0.33720805  0.97128348  1
  O2-  O498  1  0.39703439  0.57172128  0.30404421  1
  O2-  O499  1  0.40349970  0.57115934  0.64452348  1
  O2-  O500  1  0.42596095  0.58407262  0.98102158  1
  O2-  O501  1  0.44591476  0.84185231  0.34174682  1
  O2-  O502  1  0.41225254  0.82764698  0.65184697  1
  O2-  O503  1  0.42125254  0.83386638  0.97950392  1
  O2-  O504  1  0.66987138  0.08512829  0.30667861  1
  O2-  O505  1  0.66269579  0.08603574  0.65382310  1
  O2-  O506  1  0.66621462  0.07748508  0.98822489  1
  O2-  O507  1  0.67347685  0.33094872  0.31769204  1
  O2-  O508  1  0.64790512  0.31163829  0.64176388  1
  O2-  O509  1  0.66635319  0.34060820  1.00293912  1
  O2-  O510  1  0.65440786  0.55759839  0.31895187  1
  O2-  O511  1  0.71303834  0.54630380  0.62902859  1
  O2-  O512  1  0.66821598  0.59318522  0.96026779  1
  O2-  O513  1  0.68630075  0.83665691  0.30474844  1
  O2-  O514  1  0.66497139  0.85179994  0.63643705  1
  O2-  O515  1  0.67730129  0.83876400  0.98025139  1
  O2-  O516  1  0.94343229  0.09105906  0.30642601  1
  O2-  O517  1  0.91777338  0.07372288  0.63758103  1
  O2-  O518  1  0.93929652  0.08267854  1.00409489  1
  O2-  O519  1  0.91609228  0.32861011  0.31251532  1
  O2-  O520  1  0.92138309  0.32001951  0.64556968  1
  O2-  O521  1  0.91480981  0.33044766  0.97904476  1
  O2-  O522  1  0.92098527  0.58638070  0.31510774  1
  O2-  O523  1  0.92750161  0.58825947  0.65802274  1
  O2-  O524  1  0.91528109  0.59071986  0.96996838  1
  O2-  O525  1  0.91004687  0.83500339  0.27787642  1
  O2-  O526  1  0.91524724  0.83538052  0.64863087  1
  O2-  O527  1  0.91808457  0.82783222  0.98080603  1
  O2-  O528  1  0.10260201  0.19700284  -0.01395789  1
  O2-  O529  1  0.03433360  0.14841242  0.32034979  1
  O2-  O530  1  0.06771741  0.14797836  0.70076694  1
  O2-  O531  1  0.08583752  0.42042233  0.02678962  1
  O2-  O532  1  0.07811163  0.41249989  0.35545860  1
  O2-  O533  1  0.08275569  0.40720600  0.68973356  1
  O2-  O534  1  0.07603360  0.67372314  0.02154817  1
  O2-  O535  1  0.09365123  0.66481053  0.34857445  1
  O2-  O536  1  0.09819031  0.67223176  0.68690691  1
  O2-  O537  1  0.08764864  0.91422683  0.01873674  1
  O2-  O538  1  0.03329798  0.94040888  0.36853420  1
  O2-  O539  1  0.08576689  0.91245656  0.68428278  1
  O2-  O540  1  0.32840699  0.17763726  0.01271464  1
  O2-  O541  1  0.31146799  0.16759766  0.34575501  1
  O2-  O542  1  0.33585036  0.16855415  0.69527187  1
  O2-  O543  1  0.36127210  0.42240298  0.03516368  1
  O2-  O544  1  0.31183144  0.39652728  0.34936382  1
  O2-  O545  1  0.32643378  0.40396981  0.68821310  1
  O2-  O546  1  0.33442882  0.65595566  -0.00616275  1
  O2-  O547  1  0.34418117  0.68234223  0.30979521  1
  O2-  O548  1  0.33386248  0.66225293  0.68368580  1
  O2-  O549  1  0.33937775  0.91053706  0.02715732  1
  O2-  O550  1  0.36050826  0.92839825  0.37471843  1
  O2-  O551  1  0.32096603  0.88812700  0.69219096  1
  O2-  O552  1  0.59143485  0.16626809  0.02060429  1
  O2-  O553  1  0.59007282  0.16367451  0.34609877  1
  O2-  O554  1  0.57814624  0.15755621  0.69407300  1
  O2-  O555  1  0.58734109  0.42593403  -0.04400333  1
  O2-  O556  1  0.57202160  0.39558968  0.35625785  1
  O2-  O557  1  0.58363830  0.40992450  0.68212161  1
  O2-  O558  1  0.58932568  0.67249134  0.01265681  1
  O2-  O559  1  0.61725106  0.68256256  0.36001818  1
  O2-  O560  1  0.56522749  0.70039046  0.69197403  1
  O2-  O561  1  0.58598310  0.91046787  0.02345528  1
  O2-  O562  1  0.56552625  0.87334450  0.46515937  1
  O2-  O563  1  0.57398088  0.91979640  0.69235737  1
  O2-  O564  1  0.83430760  0.16735520  0.02181033  1
  O2-  O565  1  0.84476963  0.16623387  0.34920056  1
  O2-  O566  1  0.84073110  0.15600608  0.68808787  1
  O2-  O567  1  0.90717033  0.46233707  0.03257120  1
  O2-  O568  1  0.83695664  0.41334415  0.35358341  1
  O2-  O569  1  0.83361166  0.40142273  0.66745152  1
  O2-  O570  1  0.82751286  0.66299954  0.01509064  1
  O2-  O571  1  0.81442351  0.64439135  0.34859682  1
  O2-  O572  1  0.83823013  0.67378674  0.69153430  1
  O2-  O573  1  0.84077786  0.90435804  0.03120118  1
  O2-  O574  1  0.86607690  0.93121373  0.35986516  1
  O2-  O575  1  0.82599478  0.91367460  0.68201897  1
