# generated using pymatgen
data_H2O
_symmetry_space_group_name_H-M   'P 1'
_cell_length_a   17.99505064
_cell_length_b   17.99789292
_cell_length_c   22.00520077
_cell_angle_alpha   89.97810564
_cell_angle_beta   89.99757636
_cell_angle_gamma   119.98563802
_symmetry_Int_Tables_number   1
_chemical_formula_structural   H2O
_chemical_formula_sum   'H384 O192'
_cell_volume   6172.96037755
_cell_formula_units_Z   192
loop_
 _symmetry_equiv_pos_site_id
 _symmetry_equiv_pos_as_xyz
  1  'x, y, z'
loop_
 _atom_type_symbol
 _atom_type_oxidation_number
  H+  1.0
  O2-  -2.0
loop_
 _atom_site_type_symbol
 _atom_site_label
 _atom_site_symmetry_multiplicity
 _atom_site_fract_x
 _atom_site_fract_y
 _atom_site_fract_z
 _atom_site_occupancy
  H+  H0  1  0.63476833  1.04535186  0.83006642  1
  H+  H1  1  0.86597865  0.46901555  0.49963740  1
  H+  H2  1  0.14807838  0.78896163  0.65595382  1
  H+  H3  1  0.62545180  0.87018423  0.35176642  1
  H+  H4  1  0.12008103  0.51522707  0.49527803  1
  H+  H5  1  0.37659546  0.14723685  0.66820084  1
  H+  H6  1  0.62911737  0.37966430  0.15811944  1
  H+  H7  1  0.04506590  0.94101155  0.49117415  1
  H+  H8  1  -0.02750786  0.60221833  0.16591891  1
  H+  H9  1  0.12828923  0.51012757  0.65240296  1
  H+  H10  1  0.87010249  0.59267026  0.51877719  1
  H+  H11  1  0.11130325  0.89593255  0.01041769  1
  H+  H12  1  0.14048219  0.11089630  0.17926365  1
  H+  H13  1  0.27412423  0.65239450  0.98081861  1
  H+  H14  1  0.37698165  0.39875079  0.34471270  1
  H+  H15  1  0.67508994  0.58603511  0.59144389  1
  H+  H16  1  0.29325449  0.15701594  0.49833708  1
  H+  H17  1  0.15587496  0.03497059  0.32702556  1
  H+  H18  1  0.19342430  0.84147991  0.85444326  1
  H+  H19  1  0.84905055  0.15992663  0.83423107  1
  H+  H20  1  0.10961515  0.12936959  0.33820584  1
  H+  H21  1  0.12416158  0.85961710  0.16680245  1
  H+  H22  1  0.64008459  0.52181031  0.83947345  1
  H+  H23  1  0.91222740  0.83237965  0.93431140  1
  H+  H24  1  0.39195626  0.52143233  0.65188219  1
  H+  H25  1  0.27815783  0.39944006  0.66999213  1
  H+  H26  1  0.58835384  0.42850265  0.76455402  1
  H+  H27  1  0.13432969  0.86603394  0.50724190  1
  H+  H28  1  0.68245228  0.58900633  0.92484712  1
  H+  H29  1  0.64742822  0.37255993  -0.00626288  1
  H+  H30  1  0.61807445  0.97803950  0.00448160  1
  H+  H31  1  0.59470854  0.42310080  0.43040915  1
  H+  H32  1  0.64665101  0.93553587  0.80587758  1
  H+  H33  1  0.22717012  0.35816469  0.18359290  1
  H+  H34  1  0.60408505  0.61606763  0.82156322  1
  H+  H35  1  0.86147753  0.14331785  0.35125392  1
  H+  H36  1  0.48829040  0.36346519  0.17073614  1
  H+  H37  1  0.41927630  0.09754350  0.93176233  1
  H+  H38  1  0.16267184  0.05308193  0.66972258  1
  H+  H39  1  0.36738021  0.85411402  0.15112981  1
  H+  H40  1  0.14598092  0.28654592  0.83688538  1
  H+  H41  1  0.89746973  0.41643940  0.34083419  1
  H+  H42  1  -0.03027109  0.86699080  0.83812243  1
  H+  H43  1  0.60974755  0.14202419  1.00388407  1
  H+  H44  1  0.85719785  0.63596606  0.82580795  1
  H+  H45  1  0.75070427  0.63025178  0.98921981  1
  H+  H46  1  0.70756263  0.83169774  0.84311685  1
  H+  H47  1  0.10087524  0.97903932  0.00400305  1
  H+  H48  1  0.76831446  0.37795514  0.00718950  1
  H+  H49  1  0.39231921  0.52615551  0.18466280  1
  H+  H50  1  0.95992554  0.60083231  0.99192890  1
  H+  H51  1  0.62874884  0.77255521  0.65442491  1
  H+  H52  1  0.87610016  0.01949360  0.51385350  1
  H+  H53  1  0.62303355  0.25964048  0.65562688  1
  H+  H54  1  0.20896575  0.09872509  0.99747935  1
  H+  H55  1  0.36386200  0.48223323  0.83656521  1
  H+  H56  1  0.42488489  0.59510936  0.27468574  1
  H+  H57  1  0.96933273  0.86110191  0.17890389  1
  H+  H58  1  0.63111378  1.02252561  0.18973465  1
  H+  H59  1  0.35098030  0.97518399  0.15571965  1
  H+  H60  1  0.90678636  0.57432821  0.61068579  1
  H+  H61  1  0.41277375  0.08123029  0.23323500  1
  H+  H62  1  0.61740681  0.97118223  0.36379898  1
  H+  H63  1  0.47945194  0.61648416  0.17984645  1
  H+  H64  1  -0.03968235  0.60526859  0.84373818  1
  H+  H65  1  0.02434851  0.39335752  0.82900369  1
  H+  H66  1  0.16284602  0.05352867  0.51682315  1
  H+  H67  1  0.66144650  0.84536706  0.10313102  1
  H+  H68  1  0.35483256  0.71666242  0.14632834  1
  H+  H69  1  0.25852303  0.88831829  0.14776810  1
  H+  H70  1  0.13628600  0.60244687  0.64499737  1
  H+  H71  1  0.37021771  0.26883637  1.03734353  1
  H+  H72  1  0.97354226  0.86350378  0.99351771  1
  H+  H73  1  0.63794538  0.47249330  0.16380064  1
  H+  H74  1  0.52260743  0.13366377  0.66724673  1
  H+  H75  1  0.36923364  0.89742836  0.00401727  1
  H+  H76  1  0.36812886  0.89659377  0.49018964  1
  H+  H77  1  0.12202967  0.27182103  0.99492240  1
  H+  H78  1  0.59413268  0.30790416  0.61057735  1
  H+  H79  1  0.61911451  0.24540231  0.82113931  1
  H+  H80  1  0.86733020  0.46869772  0.16176639  1
  H+  H81  1  0.21972695  0.61533346  0.33454550  1
  H+  H82  1  0.39126575  0.70895611  0.78580092  1
  H+  H83  1  0.62445473  0.64991639  0.34654013  1
  H+  H84  1  0.63314235  0.26536619  0.17254730  1
  H+  H85  1  0.35535777  0.63210754  0.16465685  1
  H+  H86  1  0.10846130  0.14083337  0.49675422  1
  H+  H87  1  0.71654779  0.86264665  0.65530400  1
  H+  H88  1  0.65938353  0.53595549  0.99314659  1
  H+  H89  1  0.39340580  0.02897519  0.50357990  1
  H+  H90  1  0.08978115  0.33471744  0.15819493  1
  H+  H91  1  0.88541573  0.29220768  0.84198935  1
  H+  H92  1  0.88048843  1.02063136  0.00019407  1
  H+  H93  1  0.39263347  0.61076463  0.64579320  1
  H+  H94  1  0.10693233  0.37957884  0.34517211  1
  H+  H95  1  0.13931048  0.37294831  0.83850400  1
  H+  H96  1  0.87240855  0.35115126  0.65677575  1
  H+  H97  1  0.71785541  0.85826237  0.49958971  1
  H+  H98  1  0.62543592  0.38566758  0.48558653  1
  H+  H99  1  0.43803891  0.86357417  0.93892270  1
  H+  H100  1  0.23656005  0.64354495  0.17917896  1
  H+  H101  1  0.61668095  0.74345758  0.49670832  1
  H+  H102  1  0.66717854  0.58331153  0.24989129  1
  H+  H103  1  0.14347482  0.61991385  0.82179973  1
  H+  H104  1  0.39672679  0.27741668  0.17380049  1
  H+  H105  1  0.52064824  0.88559284  0.66848317  1
  H+  H106  1  0.62017168  0.73866424  0.34773381  1
  H+  H107  1  0.10439899  0.63317627  -0.01872621  1
  H+  H108  1  0.86436627  0.25162143  0.16901604  1
  H+  H109  1  0.28859361  0.90057370  0.66737788  1
  H+  H110  1  0.54795727  0.12148824  0.49340050  1
  H+  H111  1  0.59043835  0.16607332  0.39848462  1
  H+  H112  1  0.52888833  0.15870214  0.82388605  1
  H+  H113  1  0.37775249  0.48858043  0.34473136  1
  H+  H114  1  0.32580060  0.37464453  0.02278653  1
  H+  H115  1  0.86184749  0.39477126  0.82854614  1
  H+  H116  1  0.63243151  0.13308429  0.83616318  1
  H+  H117  1  0.62113417  0.64857536  0.16914349  1
  H+  H118  1  0.13265777  0.36931890  0.66294996  1
  H+  H119  1  0.42935276  0.09504593  0.59165547  1
  H+  H120  1  0.05252889  0.15779714  0.82820623  1
  H+  H121  1  0.72380900  0.10311435  0.19269555  1
  H+  H122  1  0.61614516  0.82075729  0.85825693  1
  H+  H123  1  0.38268208  0.24116096  0.49124478  1
  H+  H124  1  0.32553681  0.64237617  0.71266101  1
  H+  H125  1  0.72862182  0.61414007  0.83637405  1
  H+  H126  1  0.87044181  0.25829653  0.51061146  1
  H+  H127  1  0.84587690  0.88057911  0.66884042  1
  H+  H128  1  0.36651199  0.23728318  0.82403624  1
  H+  H129  1  0.63478307  0.27676839  0.99167619  1
  H+  H130  1  0.09431070  0.51068386  0.18246264  1
  H+  H131  1  0.86119715  0.13499776  0.16207444  1
  H+  H132  1  0.39568827  0.28347238  0.65703315  1
  H+  H133  1  0.63582244  0.85933092  1.00149510  1
  H+  H134  1  0.31838914  0.92209749  0.81707481  1
  H+  H135  1  -0.03754869  0.33160224  0.16506584  1
  H+  H136  1  0.95650514  0.02890494  0.85417283  1
  H+  H137  1  0.06404216  0.92525111  0.67882731  1
  H+  H138  1  0.23339991  0.61955875  0.81979733  1
  H+  H139  1  0.60087137  0.70083254  0.82590187  1
  H+  H140  1  0.40717740  0.26071395  0.03128340  1
  H+  H141  1  0.38937362  0.76870093  0.65677477  1
  H+  H142  1  0.86236688  0.88762150  0.16725487  1
  H+  H143  1  0.87922962  1.02782512  0.32673079  1
  H+  H144  1  0.35699448  0.63731838  0.34234181  1
  H+  H145  1  0.85338719  0.75150716  0.65706719  1
  H+  H146  1  0.40372403  0.12267859  0.50314259  1
  H+  H147  1  0.24519644  0.13171220  0.32883127  1
  H+  H148  1  0.59183317  0.53569706  0.20328342  1
  H+  H149  1  0.92661580  0.80595725  0.50076815  1
  H+  H150  1  0.62850966  0.01364459  0.65756399  1
  H+  H151  1  0.39400146  0.77717694  0.33938915  1
  H+  H152  1  0.45904068  0.86295755  0.15803054  1
  H+  H153  1  0.46453151  0.60572373  0.99852863  1
  H+  H154  1  0.01290251  0.87863746  0.34060898  1
  H+  H155  1  0.96695356  0.60875056  0.51574583  1
  H+  H156  1  0.52165905  0.63355473  0.66153342  1
  H+  H157  1  0.11213277  0.47314170  0.34394904  1
  H+  H158  1  0.33330823  0.92776579  1.06130240  1
  H+  H159  1  0.52548102  0.88151370  0.36318384  1
  H+  H160  1  0.42784542  0.35511238  0.99090463  1
  H+  H161  1  0.16374697  0.58593871  0.91195206  1
  H+  H162  1  0.15109168  0.32327827  0.27682363  1
  H+  H163  1  0.73406908  0.61215731  0.33508575  1
  H+  H164  1  0.11674676  0.14960672  0.67431531  1
  H+  H165  1  0.76793487  0.63111538  0.16418680  1
  H+  H166  1  0.77352090  0.88354541  1.01433252  1
  H+  H167  1  0.86254101  0.63748500  0.00758299  1
  H+  H168  1  0.86028339  0.72715195  0.82537584  1
  H+  H169  1  0.66095847  0.08829321  0.93299168  1
  H+  H170  1  0.52123246  0.13456608  0.16059981  1
  H+  H171  1  0.81794403  0.94713221  0.82249266  1
  H+  H172  1  0.10453560  0.63126494  0.49493551  1
  H+  H173  1  0.56293152  0.64664143  0.07232505  1
  H+  H174  1  0.55899807  0.42377823  0.00801927  1
  H+  H175  1  0.39570508  0.86536280  0.33797005  1
  H+  H176  1  0.61440349  0.43815485  0.06936626  1
  H+  H177  1  0.26965918  0.63380303  0.49069838  1
  H+  H178  1  0.09246537  0.71874362  0.83729707  1
  H+  H179  1  0.88114753  0.77058735  0.17772356  1
  H+  H180  1  0.88239640  0.36302151  0.99771034  1
  H+  H181  1  0.63141576  0.21134336  0.48822777  1
  H+  H182  1  1.01666314  0.13876214  1.01168355  1
  H+  H183  1  0.76060004  0.15693598  0.82738322  1
  H+  H184  1  0.72050181  0.10168825  0.35099647  1
  H+  H185  1  0.87546224  0.10804887  0.51626941  1
  H+  H186  1  0.85427859  0.13550985  0.00765469  1
  H+  H187  1  0.81242725  0.68241210  0.50237759  1
  H+  H188  1  0.10656285  0.14141240  0.00676279  1
  H+  H189  1  0.76375951  0.89050678  0.34387250  1
  H+  H190  1  0.85235347  0.88781930  0.34129753  1
  H+  H191  1  0.10884797  0.97862087  0.16657720  1
  H+  H192  1  1.10548793  0.39226326  0.49723420  1
  H+  H193  1  0.10062036  0.88810661  0.83981883  1
  H+  H194  1  0.52233205  0.15485533  0.34729487  1
  H+  H195  1  0.52375548  0.39486725  0.34402289  1
  H+  H196  1  0.15082443  0.79205045  1.01080082  1
  H+  H197  1  0.88000544  0.60747010  0.66915014  1
  H+  H198  1  0.12833845  0.84894597  0.30994544  1
  H+  H199  1  0.38227814  0.27296597  0.33069659  1
  H+  H200  1  0.40943068  1.05154489  0.83498930  1
  H+  H201  1  0.88903559  1.02977524  0.17796499  1
  H+  H202  1  0.11726980  0.39575085  0.00536826  1
  H+  H203  1  0.76203285  0.38217754  0.67059411  1
  H+  H204  1  0.58716093  0.93147777  0.47026878  1
  H+  H205  1  0.52923343  0.89052065  0.00899607  1
  H+  H206  1  1.00789437  0.37831797  0.67022970  1
  H+  H207  1  0.01279295  0.12565811  0.49551496  1
  H+  H208  1  0.63369525  0.61520348  0.64651235  1
  H+  H209  1  0.97184841  0.11122045  0.32705733  1
  H+  H210  1  0.63983888  0.52701452  0.33615328  1
  H+  H211  1  0.36910269  0.52255737  0.99651799  1
  H+  H212  1  0.86437164  0.37955538  0.49187129  1
  H+  H213  1  0.36224042  0.38703323  0.82899216  1
  H+  H214  1  0.36432202  0.39510668  0.66686149  1
  H+  H215  1  0.14328036  0.26420412  0.18098584  1
  H+  H216  1  0.38332344  0.14865544  0.32128339  1
  H+  H217  1  0.48366135  0.62706288  0.33438870  1
  H+  H218  1  0.39797591  0.03457120  0.65093911  1
  H+  H219  1  0.37036167  0.38930879  0.16660793  1
  H+  H220  1  0.72558536  0.37294020  0.83912647  1
  H+  H221  1  0.72701801  0.35148821  0.17582096  1
  H+  H222  1  0.15104621  0.12660098  0.83533754  1
  H+  H223  1  0.36909969  0.40034234  0.49280983  1
  H+  H224  1  0.88566316  0.64612448  0.35753094  1
  H+  H225  1  0.47510305  0.59885248  0.84038654  1
  H+  H226  1  0.63188189  0.28639914  0.33467569  1
  H+  H227  1  0.14106368  0.03257781  0.84041879  1
  H+  H228  1  0.73715915  0.35909282  0.49127465  1
  H+  H229  1  0.38368959  0.10706019  0.17456629  1
  H+  H230  1  0.93913478  0.83687621  0.64228115  1
  H+  H231  1  1.02442803  0.13543732  0.16677870  1
  H+  H232  1  0.97277825  0.36683878  0.99885889  1
  H+  H233  1  0.51771292  0.64153541  0.49264540  1
  H+  H234  1  0.59913707  0.89518245  0.15960355  1
  H+  H235  1  0.07493288  0.46305762  0.17757039  1
  H+  H236  1  0.85015824  0.22047773  0.66772620  1
  H+  H237  1  0.91839377  0.07991448  0.82146783  1
  H+  H238  1  0.59445282  0.70630007  1.01533586  1
  H+  H239  1  0.62871861  0.10978616  0.66298401  1
  H+  H240  1  0.85744149  0.22589828  1.00809275  1
  H+  H241  1  0.88297043  0.28431440  0.34258636  1
  H+  H242  1  0.41159897  0.80416608  0.84902746  1
  H+  H243  1  0.47977934  0.37599015  0.82667786  1
  H+  H244  1  0.91044746  1.07864809  0.60496018  1
  H+  H245  1  0.36005502  0.64787800  -0.01392173  1
  H+  H246  1  0.27538002  0.13891220  0.17152766  1
  H+  H247  1  0.11541848  0.26026216  0.33330556  1
  H+  H248  1  0.27762878  0.89590858  0.49333145  1
  H+  H249  1  0.97693728  0.36436925  0.33726180  1
  H+  H250  1  0.12566018  0.77066153  0.15950874  1
  H+  H251  1  0.52254295  0.14553421  0.00313358  1
  H+  H252  1  0.71999961  0.11525449  -0.00739985  1
  H+  H253  1  0.36827872  0.62308101  0.82013091  1
  H+  H254  1  0.87058674  0.51862088  0.83890491  1
  H+  H255  1  0.13726215  0.28363481  0.66175464  1
  H+  H256  1  0.39595303  0.79801382  0.49761744  1
  H+  H257  1  0.88280504  0.59864827  0.17047854  1
  H+  H258  1  0.76031608  0.62824592  0.67067281  1
  H+  H259  1  0.17581834  0.35956448  0.56798429  1
  H+  H260  1  0.40420320  0.92003100  0.82102852  1
  H+  H261  1  0.39568591  0.13340407  0.83746663  1
  H+  H262  1  0.61557885  0.73301174  0.15446213  1
  H+  H263  1  0.08727620  0.71268074  0.33523878  1
  H+  H264  1  0.39228864  0.86011925  0.65722723  1
  H+  H265  1  0.61809668  0.48633908  0.66793970  1
  H+  H266  1  0.11471969  0.47925583  0.81864506  1
  H+  H267  1  0.49138871  0.37881561  0.50396391  1
  H+  H268  1  0.50342999  0.88597443  0.83476712  1
  H+  H269  1  0.39207117  0.78769222  -0.01340647  1
  H+  H270  1  0.34092392  0.10243662  0.01248231  1
  H+  H271  1  0.26973071  0.62137457  0.65312950  1
  H+  H272  1  0.36092621  0.63829710  0.49261360  1
  H+  H273  1  0.87497446  0.85580056  0.83649619  1
  H+  H274  1  0.24700383  0.14288124  0.66530255  1
  H+  H275  1  0.61712183  0.39707764  0.67482732  1
  H+  H276  1  0.87885499  0.35548998  0.16731619  1
  H+  H277  1  0.08550183  0.67244855  0.59889310  1
  H+  H278  1  0.26469711  0.86486379  0.33731618  1
  H+  H279  1  0.84480665  0.87727871  0.48846524  1
  H+  H280  1  0.26593321  0.38796210  0.83618090  1
  H+  H281  1  0.85406469  0.46857013  1.00968478  1
  H+  H282  1  0.39195167  0.02991614  -0.01260015  1
  H+  H283  1  0.07400668  0.69571643  -0.04244020  1
  H+  H284  1  0.39220183  0.52864369  0.49722999  1
  H+  H285  1  0.33127585  0.17571284  0.39203122  1
  H+  H286  1  0.61212342  0.39250905  0.82483598  1
  H+  H287  1  0.88177941  0.77170106  0.33490874  1
  H+  H288  1  0.91891918  0.34697958  0.90315479  1
  H+  H289  1  0.66396022  0.81470782  0.95074526  1
  H+  H290  1  0.26680883  0.04130693  0.05641065  1
  H+  H291  1  0.61382877  0.39470920  0.33906855  1
  H+  H292  1  0.82535377  0.64750499  0.40949229  1
  H+  H293  1  0.15048951  0.82974488  0.91806093  1
  H+  H294  1  0.86383607  0.88679453  0.00873337  1
  H+  H295  1  0.57962984  0.65875445  0.72168585  1
  H+  H296  1  0.82448382  0.41304189  0.76687953  1
  H+  H297  1  0.66199880  0.06419021  0.29316662  1
  H+  H298  1  0.06618276  0.66412177  0.44283946  1
  H+  H299  1  0.12200305  0.65408377  0.16320165  1
  H+  H300  1  0.02267282  0.63665087  0.65344088  1
  H+  H301  1  0.28000658  0.14559762  0.82560095  1
  H+  H302  1  0.45301983  0.45062844  0.97401125  1
  H+  H303  1  0.83299089  0.40621916  0.10323752  1
  H+  H304  1  0.32920619  0.42058903  0.11483843  1
  H+  H305  1  0.15278995  0.81204291  0.25359760  1
  H+  H306  1  0.42364837  0.58562450  0.55813060  1
  H+  H307  1  0.34148828  0.42864855  0.43152747  1
  H+  H308  1  0.07285152  0.92335180  0.10518556  1
  H+  H309  1  0.82491248  0.92060336  0.43238877  1
  H+  H310  1  0.32683108  0.66509064  0.40201413  1
  H+  H311  1  0.84356276  0.92273798  0.10548897  1
  H+  H312  1  0.13186621  0.52825858  0.97255280  1
  H+  H313  1  0.66460640  0.34062861  0.89809244  1
  H+  H314  1  0.34936793  0.17710929  0.72997793  1
  H+  H315  1  0.82264029  0.15820783  0.10294936  1
  H+  H316  1  0.87286504  0.79957908  0.55981594  1
  H+  H317  1  0.10348276  0.95205811  0.43620922  1
  H+  H318  1  0.06419014  0.85043621  0.38277690  1
  H+  H319  1  0.42260879  0.33770376  0.27300232  1
  H+  H320  1  0.85157748  0.46886232  0.67507952  1
  H+  H321  1  0.88097274  0.10856140  0.66419311  1
  H+  H322  1  0.69709768  0.11017258  0.49548483  1
  H+  H323  1  0.23988142  0.87887135  0.99778210  1
  H+  H324  1  0.72359784  0.11047313  0.66246621  1
  H+  H325  1  0.89601564  0.57203356  0.93569899  1
  H+  H326  1  0.82841670  0.16238526  0.41412831  1
  H+  H327  1  0.14210901  0.90851033  0.67920498  1
  H+  H328  1  0.18621528  0.11387917  0.57476335  1
  H+  H329  1  0.59054942  0.93144366  0.74856975  1
  H+  H330  1  0.41560789  0.57776218  0.90257322  1
  H+  H331  1  0.58252188  0.16840617  0.72881604  1
  H+  H332  1  0.68201757  0.32571494  0.55097502  1
  H+  H333  1  0.96290029  0.34830424  0.50635459  1
  H+  H334  1  0.15823240  0.57142215  0.55461633  1
  H+  H335  1  0.32268051  0.91114434  0.39496521  1
  H+  H336  1  0.35907453  0.93560105  0.72041669  1
  H+  H337  1  0.65173580  0.84371434  0.28543392  1
  H+  H338  1  0.08384579  0.65875997  0.09707466  1
  H+  H339  1  0.80992915  0.89929870  0.75991709  1
  H+  H340  1  0.82012586  0.66299345  0.73156989  1
  H+  H341  1  0.48427480  0.89307606  0.51354652  1
  H+  H342  1  0.66948773  0.52158345  0.49646338  1
  H+  H343  1  0.16268334  0.08933126  0.93326483  1
  H+  H344  1  0.09766147  0.18367132  0.76286489  1
  H+  H345  1  0.91540250  0.09058631  0.23658357  1
  H+  H346  1  0.91378409  0.07997514  0.94130837  1
  H+  H347  1  0.32767854  0.15830871  0.11046013  1
  H+  H348  1  0.06493944  0.67214925  0.77368158  1
  H+  H349  1  0.65630482  0.83041962  0.55895276  1
  H+  H350  1  0.86761656  0.73111762  0.00661665  1
  H+  H351  1  0.09174794  0.92497623  0.77578166  1
  H+  H352  1  0.72974893  0.87193982  0.15456635  1
  H+  H353  1  0.85646434  0.97570972  0.67354090  1
  H+  H354  1  0.17625320  0.85115953  0.60053088  1
  H+  H355  1  0.86672365  0.44673285  0.39860564  1
  H+  H356  1  0.43129797  0.35793731  0.88896731  1
  H+  H357  1  0.12675586  0.60829209  0.33626918  1
  H+  H358  1  0.17832432  0.62237481  0.24030430  1
  H+  H359  1  0.07092107  0.14916724  0.39835268  1
  H+  H360  1  0.15672942  0.33379389  0.93499454  1
  H+  H361  1  0.08240373  0.16429079  0.10694298  1
  H+  H362  1  0.42971515  0.34832372  0.56215016  1
  H+  H363  1  0.93935771  0.55136288  0.34601283  1
  H+  H364  1  0.82160659  0.16941614  0.73067594  1
  H+  H365  1  0.17327025  0.08439375  0.23944969  1
  H+  H366  1  0.13055869  0.77483547  0.50924983  1
  H+  H367  1  0.12682824  0.46740223  0.05365430  1
  H+  H368  1  0.23220449  0.38948855  0.50744636  1
  H+  H369  1  0.90348286  0.32168058  0.59718059  1
  H+  H370  1  0.65975836  0.33829425  0.27234881  1
  H+  H371  1  0.57793281  0.17038758  0.10062079  1
  H+  H372  1  0.61324760  0.88976199  0.66279988  1
  H+  H373  1  0.24767258  0.38713315  0.01355405  1
  H+  H374  1  0.06843377  0.41163745  0.72985923  1
  H+  H375  1  0.05527638  0.35279494  0.09562464  1
  H+  H376  1  0.06966680  0.41030319  0.43505806  1
  H+  H377  1  0.57961990  0.93108130  0.10135250  1
  H+  H378  1  0.48084768  0.37472850  0.65942505  1
  H+  H379  1  0.90716389  0.82677271  0.27308944  1
  H+  H380  1  0.02199999  0.13979328  0.67507742  1
  H+  H381  1  0.82522980  0.66358231  0.10469130  1
  H+  H382  1  0.58516194  0.67380976  0.43361160  1
  H+  H383  1  0.46866250  0.19157198  0.28197808  1
  O2-  O384  1  0.08500558  0.16085879  0.15179153  1
  O2-  O385  1  0.06720307  0.14928471  0.47260698  1
  O2-  O386  1  0.10923499  0.18885215  0.80859698  1
  O2-  O387  1  0.03752772  0.32689594  0.13572944  1
  O2-  O388  1  0.06539234  0.41203262  0.48088112  1
  O2-  O389  1  0.08256391  0.41642145  0.81026684  1
  O2-  O390  1  0.07867212  0.66722480  0.14023502  1
  O2-  O391  1  0.07312276  0.66459023  0.48785624  1
  O2-  O392  1  0.06903408  0.66186005  0.81682848  1
  O2-  O393  1  0.07285404  0.91856053  0.15009081  1
  O2-  O394  1  0.10045382  0.94678217  0.48107845  1
  O2-  O395  1  0.07849639  0.92280514  0.82008486  1
  O2-  O396  1  0.33559054  0.16975312  0.15455081  1
  O2-  O397  1  0.35106026  0.17917722  0.48014996  1
  O2-  O398  1  0.34010861  0.17692800  0.80957887  1
  O2-  O399  1  0.33594544  0.41828781  0.15911025  1
  O2-  O400  1  0.33997037  0.43141236  0.47827686  1
  O2-  O401  1  0.32906196  0.41891041  0.82148480  1
  O2-  O402  1  0.32166303  0.65258714  0.14208612  1
  O2-  O403  1  0.33032946  0.66801987  0.47778644  1
  O2-  O404  1  0.34268542  0.65446547  0.79870572  1
  O2-  O405  1  0.31834871  0.92111497  0.13124124  1
  O2-  O406  1  0.33518217  0.92812397  0.47552591  1
  O2-  O407  1  0.37713016  0.95170159  0.80220354  1
  O2-  O408  1  0.58045473  0.17177695  0.14544576  1
  O2-  O409  1  0.60737940  0.15010730  0.47789562  1
  O2-  O410  1  0.58813274  0.18443683  0.80592128  1
  O2-  O411  1  0.60506341  0.41772928  0.14198316  1
  O2-  O412  1  0.60204954  0.42434290  0.47629340  1
  O2-  O413  1  0.58331947  0.42501967  0.81021147  1
  O2-  O414  1  0.58484611  0.66899778  0.15023795  1
  O2-  O415  1  0.58165433  0.67440645  0.47995098  1
  O2-  O416  1  0.57028690  0.64293317  0.80706870  1
  O2-  O417  1  0.57114280  0.92736421  0.14610149  1
  O2-  O418  1  0.57378342  0.94250804  0.51170144  1
  O2-  O419  1  0.59650801  0.94009651  0.79545583  1
  O2-  O420  1  0.82568687  0.16079788  0.14814164  1
  O2-  O421  1  0.82237566  0.15488282  0.49224002  1
  O2-  O422  1  0.82255735  0.18784499  0.81246635  1
  O2-  O423  1  0.83691744  0.40540634  0.14841765  1
  O2-  O424  1  0.83910937  0.41478418  0.47623044  1
  O2-  O425  1  0.82687668  0.41959256  0.81212974  1
  O2-  O426  1  0.82747891  0.66352418  0.14973875  1
  O2-  O427  1  0.79082668  0.62075778  0.49164790  1
  O2-  O428  1  0.82822348  0.66717746  0.80943575  1
  O2-  O429  1  0.83697989  0.92191292  0.15053401  1
  O2-  O430  1  0.82192978  0.91526913  0.47813726  1
  O2-  O431  1  0.80418369  0.89130494  0.80621963  1
  O2-  O432  1  0.17113395  0.08045479  0.19286869  1
  O2-  O433  1  0.18780411  0.11379415  0.52949490  1
  O2-  O434  1  0.17594206  0.09330012  0.85420328  1
  O2-  O435  1  0.16517633  0.32473833  0.19411036  1
  O2-  O436  1  0.17337167  0.36670407  0.52369503  1
  O2-  O437  1  0.17150164  0.34512522  0.85605543  1
  O2-  O438  1  0.18726379  0.64622945  0.19864222  1
  O2-  O439  1  0.15345833  0.57713105  0.51000841  1
  O2-  O440  1  0.17344741  0.58909384  0.83497807  1
  O2-  O441  1  0.15741601  0.83050688  0.17672691  1
  O2-  O442  1  0.16095091  0.83486112  0.52529545  1
  O2-  O443  1  0.13686369  0.81868460  0.87276777  1
  O2-  O444  1  0.40933020  0.07194797  0.18798128  1
  O2-  O445  1  0.42957032  0.08909644  0.52000492  1
  O2-  O446  1  0.43083440  0.10863079  0.85424708  1
  O2-  O447  1  0.42865320  0.33953904  0.18536461  1
  O2-  O448  1  0.43031695  0.34884524  0.51686939  1
  O2-  O449  1  0.41990136  0.34690576  0.84489490  1
  O2-  O450  1  0.42099636  0.58715643  0.19778334  1
  O2-  O451  1  0.42356770  0.59077200  0.51275371  1
  O2-  O452  1  0.41440254  0.57324722  0.85643150  1
  O2-  O453  1  0.39679420  0.82193538  0.16082284  1
  O2-  O454  1  0.41442335  0.85471362  0.51503353  1
  O2-  O455  1  0.44657845  0.86603305  0.85515524  1
  O2-  O456  1  0.67051897  0.07071776  0.21597177  1
  O2-  O457  1  0.73773753  0.09955716  0.51931581  1
  O2-  O458  1  0.66262478  0.10159595  0.85100631  1
  O2-  O459  1  0.66589574  0.32760114  0.18729776  1
  O2-  O460  1  0.67588042  0.32621333  0.50675592  1
  O2-  O461  1  0.66400571  0.34356845  0.85248898  1
  O2-  O462  1  0.65379689  0.57496877  0.20394494  1
  O2-  O463  1  0.70169166  0.58257691  0.51421080  1
  O2-  O464  1  0.66991250  0.58256590  0.85579524  1
  O2-  O465  1  0.66580135  0.84099218  0.14709661  1
  O2-  O466  1  0.65736963  0.82210650  0.51436655  1
  O2-  O467  1  0.65343485  0.79716177  0.86692216  1
  O2-  O468  1  0.91865284  0.09109845  0.19046461  1
  O2-  O469  1  0.90718350  0.07796624  0.53168711  1
  O2-  O470  1  0.94653331  0.07727793  0.85875319  1
  O2-  O471  1  0.90269166  0.31585374  0.18149594  1
  O2-  O472  1  0.90306915  0.32091610  0.52354320  1
  O2-  O473  1  0.92071979  0.35179832  0.85764666  1
  O2-  O474  1  0.91189355  0.56590356  0.17935793  1
  O2-  O475  1  0.90905374  0.57326633  0.53478547  1
  O2-  O476  1  0.89961611  0.57812160  0.85716372  1
  O2-  O477  1  0.90886187  0.83006647  0.19442462  1
  O2-  O478  1  0.86960914  0.79226712  0.51442212  1
  O2-  O479  1  0.90962558  0.83192822  0.85366558  1
  O2-  O480  1  0.17796529  0.09294760  0.31144456  1
  O2-  O481  1  0.18423742  0.11176536  0.65407404  1
  O2-  O482  1  0.15285453  0.08363881  0.97814546  1
  O2-  O483  1  0.14217851  0.32144590  0.32108334  1
  O2-  O484  1  0.16920595  0.34499549  0.65008057  1
  O2-  O485  1  0.15261913  0.33351587  0.98031827  1
  O2-  O486  1  0.15945210  0.58358724  0.31789214  1
  O2-  O487  1  0.16411574  0.56882367  0.63418612  1
  O2-  O488  1  0.15772783  0.58764365  0.95712993  1
  O2-  O489  1  0.14721499  0.80800489  0.29906690  1
  O2-  O490  1  0.17949143  0.85106402  0.64632732  1
  O2-  O491  1  0.17468263  0.84715817  0.98916101  1
  O2-  O492  1  0.42898183  0.13611764  0.29987531  1
  O2-  O493  1  0.42902109  0.09645429  0.63851587  1
  O2-  O494  1  0.41672556  0.09223588  0.97709866  1
  O2-  O495  1  0.42183279  0.33733598  0.31773039  1
  O2-  O496  1  0.42235556  0.34360602  0.64171034  1
  O2-  O497  1  0.46486889  0.40432583  0.96460495  1
  O2-  O498  1  0.42322895  0.59606127  0.32011548  1
  O2-  O499  1  0.42661339  0.58268648  0.63478500  1
  O2-  O500  1  0.40704640  0.57804666  0.97627130  1
  O2-  O501  1  0.43249974  0.83910059  0.33170043  1
  O2-  O502  1  0.42563097  0.83092645  0.66410673  1
  O2-  O503  1  0.42807758  0.85290561  0.98294031  1
  O2-  O504  1  0.66064279  0.06159901  0.33838465  1
  O2-  O505  1  0.66071865  0.07935542  0.64825837  1
  O2-  O506  1  0.65918408  0.08342058  0.97797916  1
  O2-  O507  1  0.65761700  0.34580637  0.31652827  1
  O2-  O508  1  0.64218730  0.31798366  0.63679401  1
  O2-  O509  1  0.67007029  0.33726437  0.97547569  1
  O2-  O510  1  0.67419628  0.58878689  0.32066412  1
  O2-  O511  1  0.66581747  0.58433777  0.63623630  1
  O2-  O512  1  0.68785211  0.59460451  0.97182253  1
  O2-  O513  1  0.65979617  0.83949841  0.32880683  1
  O2-  O514  1  0.65683034  0.83329764  0.63955356  1
  O2-  O515  1  0.66513793  0.82452346  0.99501112  1
  O2-  O516  1  0.91136332  0.08792905  0.31157847  1
  O2-  O517  1  0.91209237  0.07850133  0.65147926  1
  O2-  O518  1  0.90967106  0.08196065  0.98572415  1
  O2-  O519  1  0.91632979  0.34189734  0.32400054  1
  O2-  O520  1  0.90263546  0.32049813  0.64353291  1
  O2-  O521  1  0.91466792  0.33451408  0.98149332  1
  O2-  O522  1  0.96873091  0.62000536  0.33803078  1
  O2-  O523  1  0.91047978  0.57646375  0.65635635  1
  O2-  O524  1  0.89787774  0.57301508  0.98130989  1
  O2-  O525  1  0.91009018  0.83116581  0.31856827  1
  O2-  O526  1  0.87750521  0.81028237  0.63603023  1
  O2-  O527  1  0.91204583  0.83097224  0.97960280  1
  O2-  O528  1  0.07839391  0.17295879  0.02343418  1
  O2-  O529  1  0.07128631  0.15106350  0.35255210  1
  O2-  O530  1  0.08209663  0.17471001  0.69051931  1
  O2-  O531  1  0.09097902  0.43063017  0.02063828  1
  O2-  O532  1  0.08056793  0.41449173  0.36143921  1
  O2-  O533  1  0.06870584  0.41226581  0.68464803  1
  O2-  O534  1  0.07319544  0.66458702  -0.00593150  1
  O2-  O535  1  0.05761519  0.65914297  0.36124389  1
  O2-  O536  1  0.08546165  0.66974609  0.64334985  1
  O2-  O537  1  0.07396399  0.91978822  0.02167971  1
  O2-  O538  1  0.07221850  0.89886801  0.35797693  1
  O2-  O539  1  0.11837255  0.94313895  0.69925295  1
  O2-  O540  1  0.29139506  0.09766894  0.03734646  1
  O2-  O541  1  0.32809123  0.17912070  0.34754254  1
  O2-  O542  1  0.34875883  0.17943054  0.68473744  1
  O2-  O543  1  0.30809413  0.41688621  0.03021912  1
  O2-  O544  1  0.34899749  0.42972744  0.36180410  1
  O2-  O545  1  0.33986436  0.43040736  0.68164951  1
  O2-  O546  1  0.33710071  0.68727617  -0.01820653  1
  O2-  O547  1  0.32278826  0.66372702  0.35640056  1
  O2-  O548  1  0.33028239  0.65275584  0.66856347  1
  O2-  O549  1  0.33673938  0.92782556  0.01466730  1
  O2-  O550  1  0.32388599  0.90398843  0.35021034  1
  O2-  O551  1  0.35124050  0.93161318  0.67584673  1
  O2-  O552  1  0.58333327  0.17653743  0.01740604  1
  O2-  O553  1  0.58317708  0.18817924  0.35909244  1
  O2-  O554  1  0.58425155  0.16218544  0.68357052  1
  O2-  O555  1  0.61797256  0.44572017  0.02325916  1
  O2-  O556  1  0.58566510  0.42795174  0.35705472  1
  O2-  O557  1  0.58873235  0.42882984  0.68884532  1
  O2-  O558  1  0.55806591  0.64568683  0.02724553  1
  O2-  O559  1  0.59149979  0.67680069  0.36194591  1
  O2-  O560  1  0.58352994  0.66583746  0.67698152  1
  O2-  O561  1  0.59120170  0.91859645  0.02148802  1
  O2-  O562  1  0.58699207  0.90802533  0.37866450  1
  O2-  O563  1  0.58546211  0.92264615  0.67918075  1
  O2-  O564  1  0.82337247  0.16519574  0.02211540  1
  O2-  O565  1  0.83105973  0.17128034  0.36907516  1
  O2-  O566  1  0.81911069  0.16058004  0.68605453  1
  O2-  O567  1  0.82836943  0.40804592  0.02395330  1
  O2-  O568  1  0.88479845  0.46272190  0.35583723  1
  O2-  O569  1  0.81973516  0.40717709  0.68819339  1
  O2-  O570  1  0.83318764  0.66988243  0.02119805  1
  O2-  O571  1  0.84240897  0.66370548  0.36670589  1
  O2-  O572  1  0.82133291  0.66110860  0.68611079  1
  O2-  O573  1  0.83561594  0.91819585  0.02555135  1
  O2-  O574  1  0.82614978  0.92128945  0.35658881  1
  O2-  O575  1  0.82158728  0.91391995  0.68796534  1
