# generated using pymatgen
data_H2O
_symmetry_space_group_name_H-M   'P 1'
_cell_length_a   17.99184276
_cell_length_b   17.98929355
_cell_length_c   22.00981742
_cell_angle_alpha   89.99139851
_cell_angle_beta   90.00950276
_cell_angle_gamma   119.99629669
_symmetry_Int_Tables_number   1
_chemical_formula_structural   H2O
_chemical_formula_sum   'H384 O192'
_cell_volume   6169.54342268
_cell_formula_units_Z   192
loop_
 _symmetry_equiv_pos_site_id
 _symmetry_equiv_pos_as_xyz
  1  'x, y, z'
loop_
 _atom_type_symbol
 _atom_type_oxidation_number
  H+  1.0
  O2-  -2.0
loop_
 _atom_site_type_symbol
 _atom_site_label
 _atom_site_symmetry_multiplicity
 _atom_site_fract_x
 _atom_site_fract_y
 _atom_site_fract_z
 _atom_site_occupancy
  H+  H0  1  0.85035677  0.44328034  0.13830799  1
  H+  H1  1  0.38776919  0.02598158  0.65302548  1
  H+  H2  1  0.37080934  0.64531045  0.49572836  1
  H+  H3  1  0.22620727  0.86790007  0.80526596  1
  H+  H4  1  0.75631294  0.77791641  0.61116189  1
  H+  H5  1  0.60323378  0.71717214  0.67366631  1
  H+  H6  1  0.87299442  0.22496737  0.82152375  1
  H+  H7  1  0.85505582  0.61329664  0.48815524  1
  H+  H8  1  0.37233877  0.14870255  0.16796897  1
  H+  H9  1  0.37223349  0.89893967  0.00408351  1
  H+  H10  1  0.72486284  0.11257295  0.65754184  1
  H+  H11  1  0.14529228  0.26439505  0.17916073  1
  H+  H12  1  0.37066026  0.23468987  0.67255553  1
  H+  H13  1  0.01923986  0.88477950  0.86945967  1
  H+  H14  1  0.14620009  0.78479456  0.02447948  1
  H+  H15  1  0.13723131  0.51615145  0.84156940  1
  H+  H16  1  0.22833470  0.61199554  0.33430711  1
  H+  H17  1  0.63736418  0.34838278  0.17024530  1
  H+  H18  1  0.42321690  0.83395008  0.59339237  1
  H+  H19  1  0.36184642  0.47936253  0.68054933  1
  H+  H20  1  0.71886223  0.85034309  0.17254506  1
  H+  H21  1  0.90053130  0.27564010  0.17270095  1
  H+  H22  1  0.09399892  0.12519337  0.48654066  1
  H+  H23  1  0.38444802  0.77737011  0.83224262  1
  H+  H24  1  0.60558565  0.38415401  -0.00055820  1
  H+  H25  1  0.37168407  0.23532150  1.01220039  1
  H+  H26  1  0.61486781  0.22984797  0.82482889  1
  H+  H27  1  0.38034868  0.51641641  -0.01452959  1
  H+  H28  1  0.02059270  0.63277944  0.66477207  1
  H+  H29  1  0.01623712  0.64823761  0.81407362  1
  H+  H30  1  0.51998411  0.13430021  0.16155105  1
  H+  H31  1  0.88661960  0.11458076  0.99724581  1
  H+  H32  1  0.28384478  0.64990820  0.49590732  1
  H+  H33  1  0.88503815  0.12975670  0.16512837  1
  H+  H34  1  0.02710398  0.14441899  0.15291080  1
  H+  H35  1  0.76538018  0.60856852  0.49633105  1
  H+  H36  1  0.97427964  0.10890819  0.84679830  1
  H+  H37  1  0.83206008  0.71405813  0.63806423  1
  H+  H38  1  0.77302026  0.13663972  0.00456736  1
  H+  H39  1  0.13970222  0.60743081  0.99957576  1
  H+  H40  1  0.10108457  0.13131789  0.33512438  1
  H+  H41  1  0.18163938  0.09898103  0.94469680  1
  H+  H42  1  0.61165640  -0.01586703  0.81813725  1
  H+  H43  1  0.73154134  0.11744717  0.83849060  1
  H+  H44  1  0.97597469  0.11642364  0.66222757  1
  H+  H45  1  0.78021666  -0.11817774  0.82837897  1
  H+  H46  1  0.88920689  0.36622744  0.32335928  1
  H+  H47  1  0.13304309  0.60264275  0.83825359  1
  H+  H48  1  0.60454703  0.23447148  0.49464532  1
  H+  H49  1  0.14984824  0.62259189  0.50626772  1
  H+  H50  1  0.86331469  0.63711146  0.00462541  1
  H+  H51  1  0.13412789  0.35750346  0.86270058  1
  H+  H52  1  0.22158184  0.92929730  0.20872657  1
  H+  H53  1  0.15106745  0.77634402  0.32455321  1
  H+  H54  1  0.13056214  0.27129106  0.96004669  1
  H+  H55  1  0.86136934  0.22420417  0.67307121  1
  H+  H56  1  0.37056359  0.89441208  0.48788457  1
  H+  H57  1  -0.01926096  0.60093483  0.49808965  1
  H+  H58  1  0.89805816  0.75815875  0.31678626  1
  H+  H59  1  0.47066774  0.61256286  0.32019247  1
  H+  H60  1  0.89098809  0.61958933  0.17675956  1
  H+  H61  1  0.85641007  0.40431557  0.85496052  1
  H+  H62  1  0.98720071  0.38159833  0.99845891  1
  H+  H63  1  0.08474522  0.91823128  -0.04202207  1
  H+  H64  1  0.61219802  0.22191538  0.15977455  1
  H+  H65  1  0.23197349  0.86679486  0.49864811  1
  H+  H66  1  0.37334082  0.98948560  0.01002390  1
  H+  H67  1  0.04616176  0.89812083  0.65875965  1
  H+  H68  1  0.52244228  0.13271861  0.67061897  1
  H+  H69  1  0.66046695  0.33206788  0.89767491  1
  H+  H70  1  0.38574222  0.61147451  0.66200315  1
  H+  H71  1  0.14965428  0.03674828  0.64748843  1
  H+  H72  1  0.51842835  0.63050575  0.00182276  1
  H+  H73  1  0.38552802  0.36242496  0.99077825  1
  H+  H74  1  0.51780415  0.38557650  0.83129838  1
  H+  H75  1  0.61018071  0.12799872  0.67132724  1
  H+  H76  1  0.15950717  0.08401051  0.26137562  1
  H+  H77  1  0.36479838  0.13974824  0.81642064  1
  H+  H78  1  0.85952349  0.91956379  0.73285839  1
  H+  H79  1  0.28256875  0.14779101  0.01723983  1
  H+  H80  1  0.11665800  0.14504904  0.00239068  1
  H+  H81  1  0.14090788  0.61228028  0.18004100  1
  H+  H82  1  0.90605777  0.08149958  0.56575195  1
  H+  H83  1  0.61786976  0.50926839  0.52031899  1
  H+  H84  1  0.84911221  0.38377037  -0.02048697  1
  H+  H85  1  0.38148858  0.52162432  0.83747352  1
  H+  H86  1  0.90870815  0.34920878  0.80914683  1
  H+  H87  1  0.36109194  0.68668317  1.09388302  1
  H+  H88  1  0.84554882  0.98199145  0.33419292  1
  H+  H89  1  0.39403908  0.37295372  0.66921725  1
  H+  H90  1  0.85773888  0.72321753  1.01381153  1
  H+  H91  1  0.82437020  0.40725008  0.42398070  1
  H+  H92  1  0.71740226  0.86730421  0.32460845  1
  H+  H93  1  0.72276292  0.60460385  0.66814162  1
  H+  H94  1  0.90769324  0.36394133  0.16532556  1
  H+  H95  1  0.87929223  0.36123286  0.50310550  1
  H+  H96  1  0.71541372  0.61137605  0.84907025  1
  H+  H97  1  0.14603214  1.03541430  0.00108186  1
  H+  H98  1  0.60617565  0.47292414  0.00516232  1
  H+  H99  1  0.87406158  0.11208406  0.50738875  1
  H+  H100  1  0.58768743  0.16732613  0.76701397  1
  H+  H101  1  0.24323687  0.35914280  0.66161389  1
  H+  H102  1  0.22370986  0.11957032  0.31677756  1
  H+  H103  1  0.22678185  0.11605428  0.16921363  1
  H+  H104  1  0.28069482  0.88369577  0.65898119  1
  H+  H105  1  0.63473250  0.51533941  0.67468795  1
  H+  H106  1  0.11088066  0.22073910  0.84200363  1
  H+  H107  1  0.22427930  0.38555175  0.49985389  1
  H+  H108  1  0.89121212  0.62990110  0.83745322  1
  H+  H109  1  0.86183725  0.13065167  0.82505312  1
  H+  H110  1  0.75930074  0.87975514  0.48951239  1
  H+  H111  1  0.63264368  0.36594799  0.83928602  1
  H+  H112  1  0.88539063  0.11264313  0.66161469  1
  H+  H113  1  0.50825594  0.63458367  0.15930329  1
  H+  H114  1  0.96734185  0.11684985  0.32369684  1
  H+  H115  1  0.27372754  0.63758242  0.82393829  1
  H+  H116  1  0.69128891  0.58411920  0.16371068  1
  H+  H117  1  0.85196462  0.14093143  0.33765710  1
  H+  H118  1  0.39289631  0.02640845  0.17914499  1
  H+  H119  1  0.14089830  0.11494086  0.85100965  1
  H+  H120  1  0.89397888  0.36641793  0.66540911  1
  H+  H121  1  0.56124754  0.44827003  0.16413068  1
  H+  H122  1  0.63749925  1.02058197  0.65478332  1
  H+  H123  1  0.76762982  0.39790602  0.83794402  1
  H+  H124  1  0.38407459  0.61752938  0.32421191  1
  H+  H125  1  0.72201032  0.36956491  0.48677425  1
  H+  H126  1  0.27131412  0.38247759  0.84060498  1
  H+  H127  1  -0.01264299  0.84623941  0.31228370  1
  H+  H128  1  0.35904146  0.13346523  0.48717699  1
  H+  H129  1  0.38745838  0.76812099  0.15635948  1
  H+  H130  1  0.33123639  0.16353380  0.42793209  1
  H+  H131  1  1.00377025  0.12172981  0.48670613  1
  H+  H132  1  0.64094659  0.02814931  0.99247102  1
  H+  H133  1  0.45519955  0.11908265  0.33391629  1
  H+  H134  1  0.60869239  0.72303658  0.33331947  1
  H+  H135  1  0.77966339  0.38415924  0.69022633  1
  H+  H136  1  0.61371562  0.89264181  0.33592931  1
  H+  H137  1  0.40034791  0.65030491  1.00177986  1
  H+  H138  1  0.33538302  0.17104126  0.72922842  1
  H+  H139  1  0.94943149  0.84199947  0.71129988  1
  H+  H140  1  0.26162746  0.39196966  0.15250860  1
  H+  H141  1  0.08990653  0.91742571  0.59228835  1
  H+  H142  1  0.61162473  0.83382099  0.50669377  1
  H+  H143  1  0.88780483  0.31449844  0.89603171  1
  H+  H144  1  0.28048931  0.89320559  0.16227420  1
  H+  H145  1  0.63284050  0.77294077  -0.00106800  1
  H+  H146  1  0.61836256  0.14136487  0.00668735  1
  H+  H147  1  0.38456211  0.98367217  0.33785370  1
  H+  H148  1  0.26708896  0.38404324  -0.01421400  1
  H+  H149  1  0.41131706  0.33745122  0.60718044  1
  H+  H150  1  1.02634185  0.37575351  0.83391216  1
  H+  H151  1  0.61561243  0.89149958  0.00620040  1
  H+  H152  1  0.72165672  0.61205869  0.99768892  1
  H+  H153  1  0.47916513  0.11767498  -0.00158085  1
  H+  H154  1  0.14667157  0.75750774  0.16297468  1
  H+  H155  1  1.01699066  0.88742767  0.51561233  1
  H+  H156  1  0.88971943  0.87777653  0.49226714  1
  H+  H157  1  0.60850894  0.63310150  0.33203807  1
  H+  H158  1  0.48461689  0.87001350  0.49929996  1
  H+  H159  1  0.88410293  0.61108427  0.33839378  1
  H+  H160  1  0.91796846  0.33781095  0.60269801  1
  H+  H161  1  0.35315551  0.48083209  0.34192969  1
  H+  H162  1  0.20353278  0.28441014  0.61360455  1
  H+  H163  1  0.48609645  0.88082980  -0.01701068  1
  H+  H164  1  0.64451634  0.77151146  0.84327505  1
  H+  H165  1  0.11412800  0.22344565  0.68426491  1
  H+  H166  1  0.63958233  0.25988130  0.67210977  1
  H+  H167  1  0.39251730  0.77538463  0.65402498  1
  H+  H168  1  -0.03609856  0.81165151  0.72294297  1
  H+  H169  1  0.36846597  0.65196354  0.15946298  1
  H+  H170  1  0.14783863  0.86711063  0.77080099  1
  H+  H171  1  0.88502158  0.86716330  0.84651102  1
  H+  H172  1  0.84944528  0.93095740  0.19853093  1
  H+  H173  1  0.10864337  0.88565407  0.86090413  1
  H+  H174  1  0.91971134  0.81054114  0.21873009  1
  H+  H175  1  0.85703038  0.73640394  0.84053451  1
  H+  H176  1  0.13978699  1.02392993  0.16553884  1
  H+  H177  1  0.86446668  0.47520951  0.33823795  1
  H+  H178  1  0.37979873  0.52344232  0.50681636  1
  H+  H179  1  0.76805107  0.14772251  0.49163191  1
  H+  H180  1  0.38654737  0.86927018  0.16196157  1
  H+  H181  1  0.39139242  1.02290584  0.50087040  1
  H+  H182  1  0.66319139  0.94867551  0.47695013  1
  H+  H183  1  0.52552510  0.38229767  0.67537861  1
  H+  H184  1  0.06585340  0.15379115  0.39618105  1
  H+  H185  1  0.86627527  0.86341645  0.16406275  1
  H+  H186  1  0.61570837  0.98262424  0.16051922  1
  H+  H187  1  0.63341828  0.04111530  0.50274434  1
  H+  H188  1  0.10940487  0.38678729  0.49239157  1
  H+  H189  1  0.11134323  0.13476471  0.15138968  1
  H+  H190  1  0.38915563  0.11665345  0.65586505  1
  H+  H191  1  0.86011997  0.97885779  0.01735256  1
  H+  H192  1  0.58597398  0.38120424  0.47492025  1
  H+  H193  1  0.63640859  0.85177678  0.65687153  1
  H+  H194  1  0.03318380  0.64309205  0.01517402  1
  H+  H195  1  0.11188022  0.13538860  0.68224356  1
  H+  H196  1  0.35953294  0.38236668  0.83341571  1
  H+  H197  1  0.38420903  1.02538232  0.81918520  1
  H+  H198  1  0.77705836  0.38318565  0.32647111  1
  H+  H199  1  0.71628243  0.12687290  0.32849372  1
  H+  H200  1  0.60220948  0.63239033  0.83045253  1
  H+  H201  1  0.10855092  0.37699853  0.34132388  1
  H+  H202  1  0.12062507  0.89108567  1.01375226  1
  H+  H203  1  0.85673956  0.23158938  0.33802200  1
  H+  H204  1  0.93573806  0.56489853  0.18711617  1
  H+  H205  1  0.88104007  0.27373609  0.50565302  1
  H+  H206  1  0.88732295  0.04324918  0.16020690  1
  H+  H207  1  0.36554460  0.53215143  0.16660378  1
  H+  H208  1  0.41403117  0.29256605  0.15991079  1
  H+  H209  1  0.00756914  0.37742941  0.48880919  1
  H+  H210  1  0.86673042  0.97407968  0.82927341  1
  H+  H211  1  0.52092474  0.89871674  0.81326786  1
  H+  H212  1  0.06344346  0.47029905  0.01559125  1
  H+  H213  1  0.61309943  0.37786648  0.67876412  1
  H+  H214  1  0.37546823  0.23319447  0.31448233  1
  H+  H215  1  0.50871082  0.13494429  0.50029592  1
  H+  H216  1  0.21883952  0.11321526  0.50021892  1
  H+  H217  1  0.26571140  0.39029867  0.34578497  1
  H+  H218  1  0.47725757  0.36534978  0.99158049  1
  H+  H219  1  0.14568576  0.85774772  0.64317462  1
  H+  H220  1  0.96622462  0.86125421  1.00182820  1
  H+  H221  1  0.83929945  0.84371503  0.64691829  1
  H+  H222  1  0.14170358  1.02786576  0.86490264  1
  H+  H223  1  0.39152109  0.11827375  0.00358271  1
  H+  H224  1  0.64080694  0.37405128  0.31050893  1
  H+  H225  1  0.02617084  0.38201050  0.67611134  1
  H+  H226  1  -0.02376663  0.85314510  0.16060144  1
  H+  H227  1  0.44518335  0.34882978  0.51158888  1
  H+  H228  1  0.82194087  0.65069531  0.40172402  1
  H+  H229  1  0.27868123  0.63884366  0.67176577  1
  H+  H230  1  0.39644223  0.77934159  0.49935414  1
  H+  H231  1  0.38504882  0.27316673  0.83854956  1
  H+  H232  1  0.63914868  0.51617645  0.31601786  1
  H+  H233  1  0.14909067  0.35428315  0.18675032  1
  H+  H234  1  0.10990418  0.74289926  0.80277138  1
  H+  H235  1  0.36206321  0.72910195  0.34196732  1
  H+  H236  1  0.64346980  0.12046482  0.84021156  1
  H+  H237  1  0.47422241  0.11270282  0.82606312  1
  H+  H238  1  0.12794881  0.26558128  0.33487651  1
  H+  H239  1  0.12622859  0.89175374  0.15814711  1
  H+  H240  1  0.61066825  0.14279993  0.50239119  1
  H+  H241  1  0.62790008  0.52061183  0.84529540  1
  H+  H242  1  0.09251126  0.91662740  0.09854506  1
  H+  H243  1  0.36271063  0.63860696  0.82430184  1
  H+  H244  1  0.23532984  0.87542339  1.02511041  1
  H+  H245  1  0.23468224  0.12754238  0.65808677  1
  H+  H246  1  0.13344042  0.47632341  0.17090839  1
  H+  H247  1  0.60513086  0.62896754  0.68076445  1
  H+  H248  1  0.88953834  0.51865579  0.66181319  1
  H+  H249  1  0.14094217  0.51874818  0.66381261  1
  H+  H250  1  0.05695453  0.38671320  0.15142664  1
  H+  H251  1  0.02768642  0.63895322  0.34388392  1
  H+  H252  1  0.46689631  0.73419662  1.03431114  1
  H+  H253  1  0.62165951  0.75124099  0.49800563  1
  H+  H254  1  0.76941594  0.53681176  0.12452659  1
  H+  H255  1  0.47178338  0.86087097  0.33489259  1
  H+  H256  1  0.35361755  0.88150385  0.81560656  1
  H+  H257  1  0.60936793  0.63634748  0.00956404  1
  H+  H258  1  0.53213845  0.89024405  0.66422446  1
  H+  H259  1  0.11267265  0.37954893  0.67521477  1
  H+  H260  1  0.85669214  0.46639613  0.48438652  1
  H+  H261  1  0.77048506  0.14584733  0.15801497  1
  H+  H262  1  0.63467341  0.27302870  0.99133610  1
  H+  H263  1  0.34257117  0.38431467  0.49303645  1
  H+  H264  1  0.41431886  0.58058901  0.56717274  1
  H+  H265  1  0.88481649  0.97851371  0.67343138  1
  H+  H266  1  0.61013800  0.98167995  0.33523247  1
  H+  H267  1  0.49728348  0.35512190  0.30446106  1
  H+  H268  1  0.61185711  0.60099015  0.16735667  1
  H+  H269  1  0.05335807  0.68020624  0.17080402  1
  H+  H270  1  0.89132388  0.54037382  0.83855788  1
  H+  H271  1  0.47131930  0.61194603  0.83644312  1
  H+  H272  1  0.72197677  0.86200624  1.00355699  1
  H+  H273  1  0.43373448  0.34375182  0.25154938  1
  H+  H274  1  0.37235704  0.88903660  0.66000467  1
  H+  H275  1  0.48164296  0.87087106  0.16184568  1
  H+  H276  1  0.11368841  0.72426809  0.66348203  1
  H+  H277  1  0.65848800  0.58327783  0.94013236  1
  H+  H278  1  0.76260887  0.35785240  0.14494658  1
  H+  H279  1  0.85698168  0.22535504  -0.00308117  1
  H+  H280  1  0.27662925  0.14060746  0.82557460  1
  H+  H281  1  0.11372342  0.72386678  0.49067574  1
  H+  H282  1  0.47223586  0.60676924  0.66384417  1
  H+  H283  1  0.13801575  0.60583323  0.66253193  1
  H+  H284  1  0.84335721  -0.02587867  0.49177798  1
  H+  H285  1  0.62441951  0.76880276  0.16999416  1
  H+  H286  1  0.14114943  0.86304457  0.51069695  1
  H+  H287  1  0.38478035  0.86257279  0.33643729  1
  H+  H288  1  0.83010686  0.17633161  0.09768643  1
  H+  H289  1  0.64764118  0.81060724  0.59625546  1
  H+  H290  1  0.16823718  0.09794616  0.56271338  1
  H+  H291  1  0.84318251  0.42419897  0.74612968  1
  H+  H292  1  0.66060694  0.36671218  0.54019488  1
  H+  H293  1  0.67111021  0.08754170  0.93265612  1
  H+  H294  1  0.10981187  0.97545114  0.51366538  1
  H+  H295  1  0.15913644  0.56991287  0.94139373  1
  H+  H296  1  0.33432911  0.91316017  0.75168169  1
  H+  H297  1  0.68107207  0.32836309  0.23083704  1
  H+  H298  1  0.11433987  0.97118919  0.33358224  1
  H+  H299  1  0.79291782  0.26368063  0.92993652  1
  H+  H300  1  0.83054698  0.16302068  0.73172518  1
  H+  H301  1  0.06978397  0.40473898  0.42388740  1
  H+  H302  1  0.13087986  0.97258557  0.75268022  1
  H+  H303  1  0.57885995  0.41505050  0.77242575  1
  H+  H304  1  0.09432533  0.67307956  0.07381518  1
  H+  H305  1  0.16694707  0.35793320  0.56071698  1
  H+  H306  1  0.88531380  0.82577838  0.54987397  1
  H+  H307  1  0.60494558  0.39356825  0.37116429  1
  H+  H308  1  0.81138065  0.62818751  0.09526982  1
  H+  H309  1  0.40449940  0.79017340  0.98294344  1
  H+  H310  1  0.32430271  0.42351854  0.43112153  1
  H+  H311  1  0.08471962  0.16632166  0.77959183  1
  H+  H312  1  0.13945221  0.52145024  0.33509047  1
  H+  H313  1  0.30788408  0.41698450  0.05159063  1
  H+  H314  1  0.02039513  0.38148531  0.33744883  1
  H+  H315  1  0.18260715  0.83786979  0.26457009  1
  H+  H316  1  0.89134747  0.52815362  0.98714294  1
  H+  H317  1  0.61470805  0.89201621  0.15910169  1
  H+  H318  1  0.66153142  0.09216377  0.56729911  1
  H+  H319  1  0.57579992  0.66409538  0.77002437  1
  H+  H320  1  0.83149772  0.40547058  0.04595267  1
  H+  H321  1  0.32908776  0.41740046  0.74058281  1
  H+  H322  1  0.17528094  0.82053346  0.58998608  1
  H+  H323  1  0.41610103  0.08302784  0.56226320  1
  H+  H324  1  0.08757760  0.66489844  0.43174921  1
  H+  H325  1  0.34538096  0.17730929  0.10668039  1
  H+  H326  1  0.41384972  0.33016740  0.90030383  1
  H+  H327  1  0.77050479  0.62917430  0.33798379  1
  H+  H328  1  0.09533031  0.40743406  0.78015865  1
  H+  H329  1  0.51579596  0.63124752  0.48739866  1
  H+  H330  1  0.57310980  0.66055026  0.42649990  1
  H+  H331  1  0.66350794  0.09213724  0.22952819  1
  H+  H332  1  0.58857883  0.92403870  0.72474458  1
  H+  H333  1  0.69386323  0.31962585  0.61836370  1
  H+  H334  1  0.72175983  0.36479296  0.98551800  1
  H+  H335  1  0.81552323  0.67836121  0.78161000  1
  H+  H336  1  0.87927076  0.70236529  0.69294329  1
  H+  H337  1  0.92296651  0.33619628  0.26511096  1
  H+  H338  1  0.89979544  0.83089889  0.91114122  1
  H+  H339  1  0.35922849  0.26132127  0.51380081  1
  H+  H340  1  0.33708961  0.66828708  0.40015356  1
  H+  H341  1  0.67797712  0.83067795  0.90219871  1
  H+  H342  1  0.81647423  0.92115513  0.39221729  1
  H+  H343  1  0.07547741  0.66997730  0.74408272  1
  H+  H344  1  0.66100405  0.56377681  0.58013964  1
  H+  H345  1  0.88753559  0.60445963  0.64386421  1
  H+  H346  1  0.58634643  0.16898732  0.06631591  1
  H+  H347  1  0.92216887  0.56493552  0.55736465  1
  H+  H348  1  0.41650742  0.84314461  0.88840237  1
  H+  H349  1  0.82666875  0.17210559  0.43187487  1
  H+  H350  1  0.43601343  0.08267347  0.23913268  1
  H+  H351  1  0.65519039  0.57694265  0.26070520  1
  H+  H352  1  0.28593026  0.89964863  0.33769329  1
  H+  H353  1  0.08923244  0.96634558  0.76527730  1
  H+  H354  1  0.53760110  0.10217758  0.31980437  1
  H+  H355  1  0.34171702  0.92796008  0.42924080  1
  H+  H356  1  0.34413848  0.92428614  0.10146046  1
  H+  H357  1  0.41380044  0.57826040  0.92625573  1
  H+  H358  1  0.91075384  0.07812115  0.90356281  1
  H+  H359  1  0.83190813  0.91988644  0.07763915  1
  H+  H360  1  0.97534543  0.11371957  0.99481133  1
  H+  H361  1  0.92462432  0.59750481  0.27883340  1
  H+  H362  1  0.93001803  0.59807682  0.93440652  1
  H+  H363  1  0.35173809  0.13704557  0.30173547  1
  H+  H364  1  0.54333890  0.42632616  0.43667327  1
  H+  H365  1  0.18046825  0.59288017  0.56489432  1
  H+  H366  1  0.08701351  0.18220785  0.05575721  1
  H+  H367  1  0.91029959  0.09480439  0.26371839  1
  H+  H368  1  0.58551901  0.92433035  0.06385397  1
  H+  H369  1  0.23662006  0.44999316  0.11954363  1
  H+  H370  1  0.12431411  0.88868295  0.33493355  1
  H+  H371  1  0.63136129  0.11472974  0.16861747  1
  H+  H372  1  0.66218212  0.27502464  0.30759041  1
  H+  H373  1  0.22176685  0.85840122  0.91507161  1
  H+  H374  1  0.11520689  0.63452034  0.34262500  1
  H+  H375  1  0.87762566  0.86197593  1.00755814  1
  H+  H376  1  0.15978335  0.57806139  0.24146823  1
  H+  H377  1  0.65526684  0.83266364  0.26599318  1
  H+  H378  1  0.59905397  0.93771641  0.42367298  1
  H+  H379  1  0.33849849  0.67230277  0.73046306  1
  H+  H380  1  0.16621913  0.32364122  0.27587857  1
  H+  H381  1  0.40389675  0.58342396  0.23038347  1
  H+  H382  1  0.56858224  0.66275897  0.09970850  1
  H+  H383  1  0.19356048  0.81052221  0.91384783  1
  O2-  O384  1  0.08666788  0.17084665  0.13708123  1
  O2-  O385  1  0.06193488  0.15109275  0.46845607  1
  O2-  O386  1  0.08277712  0.16178134  0.82492797  1
  O2-  O387  1  0.11999282  0.41873077  0.15420384  1
  O2-  O388  1  0.06782554  0.40666946  0.47138136  1
  O2-  O389  1  0.09209047  0.40906302  0.82491237  1
  O2-  O390  1  0.10950478  0.69643452  0.15248405  1
  O2-  O391  1  0.08453134  0.66273594  0.47763171  1
  O2-  O392  1  0.07670986  0.67726857  0.79434849  1
  O2-  O393  1  0.09035405  0.91790080  0.14284108  1
  O2-  O394  1  0.08147947  0.91306245  0.52408666  1
  O2-  O395  1  0.08190188  0.91603037  0.88013155  1
  O2-  O396  1  0.34509322  0.18129577  0.15245882  1
  O2-  O397  1  0.32729668  0.16207847  0.47260956  1
  O2-  O398  1  0.33382726  0.17253755  0.80564145  1
  O2-  O399  1  0.28659247  0.44163048  0.12352397  1
  O2-  O400  1  0.32104714  0.42201791  0.47837059  1
  O2-  O401  1  0.32746091  0.41210002  0.81956914  1
  O2-  O402  1  0.34880344  0.68850497  0.13789076  1
  O2-  O403  1  0.34499289  0.67925931  0.47948795  1
  O2-  O404  1  0.33379784  0.67003800  0.80836769  1
  O2-  O405  1  0.34439865  0.92012877  0.14708332  1
  O2-  O406  1  0.34119204  0.92679977  0.47577059  1
  O2-  O407  1  0.32312108  0.91003353  0.79649231  1
  O2-  O408  1  0.57942962  0.16118064  0.14377436  1
  O2-  O409  1  0.57496959  0.17062362  0.48710385  1
  O2-  O410  1  0.58794332  0.16854570  0.81220475  1
  O2-  O411  1  0.53409046  0.38490693  0.15780497  1
  O2-  O412  1  0.54467534  0.40249830  0.47614030  1
  O2-  O413  1  0.57959485  0.41776443  0.81768540  1
  O2-  O414  1  0.56960643  0.66390576  0.14520848  1
  O2-  O415  1  0.57563921  0.66250616  0.47172166  1
  O2-  O416  1  0.57348647  0.66406835  0.81562748  1
  O2-  O417  1  0.58505356  0.92280812  0.14354226  1
  O2-  O418  1  0.60758529  0.94455689  0.47025764  1
  O2-  O419  1  0.57980475  0.92866831  0.79648853  1
  O2-  O420  1  0.83127214  0.17519027  0.14310003  1
  O2-  O421  1  0.82834654  0.17345993  0.47765925  1
  O2-  O422  1  0.83457859  0.16280933  0.80813835  1
  O2-  O423  1  0.82168638  0.38387939  0.12505531  1
  O2-  O424  1  0.81907160  0.40528692  0.47012462  1
  O2-  O425  1  0.83208913  0.43102167  0.82885408  1
  O2-  O426  1  0.79640044  0.59724865  0.13569277  1
  O2-  O427  1  0.82102775  0.63932924  0.47448849  1
  O2-  O428  1  0.82697230  0.67451636  0.82442925  1
  O2-  O429  1  0.83340953  0.89872426  0.16053734  1
  O2-  O430  1  0.81726385  0.91649011  0.47192678  1
  O2-  O431  1  0.84215157  0.91429661  0.81343304  1
  O2-  O432  1  0.16484431  0.08475229  0.18008297  1
  O2-  O433  1  0.16053944  0.08571636  0.51824659  1
  O2-  O434  1  0.17708925  0.09152308  0.86700312  1
  O2-  O435  1  0.17785423  0.32104784  0.20014926  1
  O2-  O436  1  0.16352829  0.36048530  0.51635783  1
  O2-  O437  1  0.16328840  0.32440909  0.87743869  1
  O2-  O438  1  0.15524131  0.57033635  0.19672337  1
  O2-  O439  1  0.18723819  0.59995775  0.52047677  1
  O2-  O440  1  0.16819453  0.57887651  0.85255211  1
  O2-  O441  1  0.19572416  0.87159419  0.19157066  1
  O2-  O442  1  0.17324074  0.83138650  0.51619656  1
  O2-  O443  1  0.15969903  0.84133698  0.80582825  1
  O2-  O444  1  0.42193462  0.08637347  0.19513832  1
  O2-  O445  1  0.42034731  0.08508715  0.51644240  1
  O2-  O446  1  0.41120003  0.08677021  0.82964384  1
  O2-  O447  1  0.44286760  0.35612845  0.16855525  1
  O2-  O448  1  0.38725198  0.32059507  0.53042221  1
  O2-  O449  1  0.41439295  0.33355044  0.85444894  1
  O2-  O450  1  0.40557944  0.58926828  0.18463517  1
  O2-  O451  1  0.41389451  0.58394638  0.52199221  1
  O2-  O452  1  0.40989482  0.58271103  0.85107711  1
  O2-  O453  1  0.41898885  0.83632337  0.17305502  1
  O2-  O454  1  0.42529927  0.84126563  0.51435264  1
  O2-  O455  1  0.41064897  0.83936671  0.84314703  1
  O2-  O456  1  0.66581719  0.08819013  0.18457155  1
  O2-  O457  1  0.65917411  0.09964870  0.52160352  1
  O2-  O458  1  0.67233844  0.08920173  0.85611568  1
  O2-  O459  1  0.67238431  0.32258710  0.18066026  1
  O2-  O460  1  0.65826924  0.34258910  0.50006169  1
  O2-  O461  1  0.66617190  0.33750647  0.85183343  1
  O2-  O462  1  0.63376036  0.56247641  0.18161736  1
  O2-  O463  1  0.67168702  0.55462871  0.53746142  1
  O2-  O464  1  0.65444066  0.58062092  0.86175154  1
  O2-  O465  1  0.65823799  0.82996853  0.18410022  1
  O2-  O466  1  0.65033583  0.81259250  0.51736051  1
  O2-  O467  1  0.68742459  0.82924459  0.85813232  1
  O2-  O468  1  0.91727175  0.09985368  0.17921680  1
  O2-  O469  1  0.89932236  0.07665226  0.52061603  1
  O2-  O470  1  0.91232674  0.07822995  0.85818488  1
  O2-  O471  1  0.93556653  0.33628074  0.18672088  1
  O2-  O472  1  0.91245608  0.33507853  0.52032070  1
  O2-  O473  1  0.92875515  0.32561930  0.84069892  1
  O2-  O474  1  0.94010742  0.61936794  0.19789146  1
  O2-  O475  1  0.91980145  0.56416912  0.51248094  1
  O2-  O476  1  0.92764936  0.60355837  0.84665348  1
  O2-  O477  1  0.91540613  0.81798300  0.17332605  1
  O2-  O478  1  0.91904322  0.85024516  0.51247329  1
  O2-  O479  1  0.90911325  0.83175299  0.86622573  1
  O2-  O480  1  0.16159801  0.08649610  0.30659111  1
  O2-  O481  1  0.17372834  0.09988513  0.64317852  1
  O2-  O482  1  0.17685313  0.09767338  0.99017995  1
  O2-  O483  1  0.15924923  0.32713569  0.32089762  1
  O2-  O484  1  0.18779981  0.31887783  0.63906547  1
  O2-  O485  1  0.16287726  0.33174341  0.94431381  1
  O2-  O486  1  0.16651877  0.58182558  0.32102426  1
  O2-  O487  1  0.17153450  0.57919489  0.64893667  1
  O2-  O488  1  0.15618204  0.56517014  0.98592793  1
  O2-  O489  1  0.18419370  0.83699374  0.31055655  1
  O2-  O490  1  0.17193942  0.82057905  0.63613710  1
  O2-  O491  1  0.17195981  0.84757553  1.03089080  1
  O2-  O492  1  0.46307449  0.07724917  0.31087536  1
  O2-  O493  1  0.41924018  0.08709434  0.63863988  1
  O2-  O494  1  0.41743105  0.08469893  0.98773575  1
  O2-  O495  1  0.43539531  0.32993230  0.29476747  1
  O2-  O496  1  0.42276927  0.34228926  0.65190129  1
  O2-  O497  1  0.41531169  0.33197810  0.97614795  1
  O2-  O498  1  0.40980861  0.58425922  0.30592136  1
  O2-  O499  1  0.41142517  0.57603403  0.64832605  1
  O2-  O500  1  0.41676446  0.57763478  0.97196607  1
  O2-  O501  1  0.41080489  0.82775705  0.32310428  1
  O2-  O502  1  0.42283352  0.83594086  0.63878113  1
  O2-  O503  1  0.42599595  0.84904839  0.96705315  1
  O2-  O504  1  0.65679267  0.09394406  0.31088323  1
  O2-  O505  1  0.66479656  0.08308773  0.64110026  1
  O2-  O506  1  0.67268676  0.08932449  0.97844761  1
  O2-  O507  1  0.68914673  0.33426402  0.29253649  1
  O2-  O508  1  0.67629850  0.32288440  0.65967100  1
  O2-  O509  1  0.66048679  0.33145011  0.97201869  1
  O2-  O510  1  0.66099050  0.57756461  0.30580062  1
  O2-  O511  1  0.66031987  0.57622707  0.66080436  1
  O2-  O512  1  0.66007828  0.58416470  0.98555956  1
  O2-  O513  1  0.65432763  0.83328613  0.31115184  1
  O2-  O514  1  0.65369006  0.81076965  0.64121355  1
  O2-  O515  1  0.66341236  0.83425395  0.98546157  1
  O2-  O516  1  0.90657784  0.09246483  0.30859433  1
  O2-  O517  1  0.91737747  0.08525002  0.64454918  1
  O2-  O518  1  0.91285602  0.07957829  0.98408948  1
  O2-  O519  1  0.91903445  0.33391371  0.31060381  1
  O2-  O520  1  0.92181468  0.33551915  0.64782509  1
  O2-  O521  1  0.85298432  0.30418083  0.93894596  1
  O2-  O522  1  0.91938871  0.58485625  0.32283818  1
  O2-  O523  1  0.92146142  0.57480480  0.63998601  1
  O2-  O524  1  0.92294224  0.59153947  0.97889550  1
  O2-  O525  1  0.93129586  0.80967398  0.29144021  1
  O2-  O526  1  0.81561059  0.79205289  0.61803248  1
  O2-  O527  1  0.90446450  0.82933218  0.99029992  1
  O2-  O528  1  0.08443427  0.17630265  0.01056815  1
  O2-  O529  1  0.06889288  0.15966754  0.35004039  1
  O2-  O530  1  0.08129007  0.16397898  0.70004439  1
  O2-  O531  1  0.00811150  0.42292354  0.03146858  1
  O2-  O532  1  0.07897937  0.40892497  0.35672417  1
  O2-  O533  1  0.08651164  0.41133111  0.69203226  1
  O2-  O534  1  0.09377520  0.67197064  0.02847440  1
  O2-  O535  1  0.08926281  0.66968576  0.35668788  1
  O2-  O536  1  0.08015719  0.66520471  0.68344004  1
  O2-  O537  1  0.08541407  0.92054608  0.00332188  1
  O2-  O538  1  0.08668906  0.91131022  0.34808567  1
  O2-  O539  1  0.10217819  0.92331735  0.63894322  1
  O2-  O540  1  0.34327084  0.17685678  0.03147077  1
  O2-  O541  1  0.33870990  0.17114014  0.32961438  1
  O2-  O542  1  0.33869149  0.17230125  0.68339210  1
  O2-  O543  1  0.32212852  0.41284593  0.00819711  1
  O2-  O544  1  0.32476154  0.42414728  0.36261612  1
  O2-  O545  1  0.33336816  0.41783281  0.69523249  1
  O2-  O546  1  0.40633172  0.70315744  0.02308157  1
  O2-  O547  1  0.33282576  0.66625392  0.35491863  1
  O2-  O548  1  0.33995560  0.67159934  0.68486472  1
  O2-  O549  1  0.34478416  0.92747180  0.02554006  1
  O2-  O550  1  0.34370420  0.92736658  0.35783271  1
  O2-  O551  1  0.34069295  0.91902500  0.67415553  1
  O2-  O552  1  0.58970892  0.17343191  0.02086956  1
  O2-  O553  1  0.61602641  0.14245485  0.33463169  1
  O2-  O554  1  0.58213875  0.16054107  0.68733830  1
  O2-  O555  1  0.57289009  0.41099350  0.01517712  1
  O2-  O556  1  0.60604329  0.40428060  0.32780448  1
  O2-  O557  1  0.58472749  0.40942468  0.69338260  1
  O2-  O558  1  0.57599485  0.66527563  0.02155387  1
  O2-  O559  1  0.57663124  0.66185097  0.34670487  1
  O2-  O560  1  0.57259584  0.65798420  0.69297331  1
  O2-  O561  1  0.58616810  0.92418497  0.01844993  1
  O2-  O562  1  0.58615776  0.92450062  0.35468215  1
  O2-  O563  1  0.59271449  0.92164636  0.67853794  1
  O2-  O564  1  0.83439755  0.17041129  0.01921838  1
  O2-  O565  1  0.82236747  0.17142538  0.35416274  1
  O2-  O566  1  0.82878881  0.16306904  0.68584849  1
  O2-  O567  1  0.82988336  0.41945063  0.00232129  1
  O2-  O568  1  0.83467369  0.41306425  0.34978482  1
  O2-  O569  1  0.84160068  0.42000639  0.70106381  1
  O2-  O570  1  0.82820801  0.66037947  0.02310054  1
  O2-  O571  1  0.82873940  0.65524199  0.35583061  1
  O2-  O572  1  0.83997390  0.66879990  0.66043465  1
  O2-  O573  1  0.82882163  0.91818811  0.03277875  1
  O2-  O574  1  0.81245587  0.92118642  0.34714984  1
  O2-  O575  1  0.87865156  0.92448150  0.68996100  1
