# generated using pymatgen
data_H2O
_symmetry_space_group_name_H-M   'P 1'
_cell_length_a   17.98790662
_cell_length_b   17.98096478
_cell_length_c   22.00274312
_cell_angle_alpha   89.98058841
_cell_angle_beta   89.98947992
_cell_angle_gamma   120.00432389
_symmetry_Int_Tables_number   1
_chemical_formula_structural   H2O
_chemical_formula_sum   'H384 O192'
_cell_volume   6162.85698851
_cell_formula_units_Z   192
loop_
 _symmetry_equiv_pos_site_id
 _symmetry_equiv_pos_as_xyz
  1  'x, y, z'
loop_
 _atom_type_symbol
 _atom_type_oxidation_number
  H+  1.0
  O2-  -2.0
loop_
 _atom_site_type_symbol
 _atom_site_label
 _atom_site_symmetry_multiplicity
 _atom_site_fract_x
 _atom_site_fract_y
 _atom_site_fract_z
 _atom_site_occupancy
  H+  H0  1  0.91127006  0.24302374  1.01158237  1
  H+  H1  1  0.57725395  0.69624660  0.68485253  1
  H+  H2  1  0.51698026  0.07255941  0.67160112  1
  H+  H3  1  0.11320358  0.88711482  0.49982822  1
  H+  H4  1  0.38688614  0.27381757  0.50425042  1
  H+  H5  1  0.38544838  0.76886448  0.17295646  1
  H+  H6  1  0.11592439  0.12948447  0.34189683  1
  H+  H7  1  0.15207384  0.07600580  0.25037130  1
  H+  H8  1  0.10468062  0.94447895  0.74186163  1
  H+  H9  1  1.02415209  0.12700930  0.34436083  1
  H+  H10  1  0.35066543  0.38228270  0.82138061  1
  H+  H11  1  0.86356962  0.88863700  0.32870298  1
  H+  H12  1  0.71114098  0.36687096  0.31432903  1
  H+  H13  1  0.90288109  0.27715057  0.16238787  1
  H+  H14  1  0.89552158  0.87238867  0.17314194  1
  H+  H15  1  0.21327707  0.09941340  0.83830562  1
  H+  H16  1  0.90830306  0.81935998  0.64610171  1
  H+  H17  1  0.60537949  0.94940330  -0.04489335  1
  H+  H18  1  1.03469884  0.38810920  0.98766281  1
  H+  H19  1  0.66969904  0.59690462  0.55513235  1
  H+  H20  1  0.39369852  0.01793601  0.16887247  1
  H+  H21  1  0.37601348  0.60133099  0.83875187  1
  H+  H22  1  0.84350154  0.63877037  0.70988269  1
  H+  H23  1  0.46239506  0.59576280  0.65956530  1
  H+  H24  1  0.37353250  0.51109516  0.65505744  1
  H+  H25  1  0.86762187  0.72072055  0.85889353  1
  H+  H26  1  0.32450849  0.44837799  0.00949565  1
  H+  H27  1  0.87171196  0.16103201  0.67221725  1
  H+  H28  1  0.02591215  0.88563508  0.69829799  1
  H+  H29  1  0.96209532  0.10228937  0.83680762  1
  H+  H30  1  0.22383705  0.10942906  0.50149919  1
  H+  H31  1  0.87692721  0.51377117  0.49969077  1
  H+  H32  1  0.11956871  0.99380536  0.33373877  1
  H+  H33  1  0.88600736  1.02126538  0.31804547  1
  H+  H34  1  0.62308047  0.16216961  0.33380272  1
  H+  H35  1  0.16956794  0.83933483  0.23361171  1
  H+  H36  1  0.65941401  0.80129624  0.13844164  1
  H+  H37  1  0.66717241  0.33949680  0.89127981  1
  H+  H38  1  0.03060748  0.64529728  0.16482117  1
  H+  H39  1  0.16574187  0.83985223  0.57672187  1
  H+  H40  1  0.44703924  0.59554987  0.16846991  1
  H+  H41  1  0.87734740  0.14364678  1.00779778  1
  H+  H42  1  0.96128989  0.60853588  0.28057230  1
  H+  H43  1  0.69649429  0.12892718  0.26081886  1
  H+  H44  1  0.78197180  0.65197338  0.48438393  1
  H+  H45  1  0.61855393  0.40703732  0.48899579  1
  H+  H46  1  0.11234190  0.13421893  0.66821922  1
  H+  H47  1  0.32827442  0.17584603  0.42717849  1
  H+  H48  1  -0.00953769  0.36950004  0.15942718  1
  H+  H49  1  0.10229469  0.22763299  0.49423587  1
  H+  H50  1  0.78036055  0.39034160  0.82659580  1
  H+  H51  1  0.74089950  0.89198033  0.14535107  1
  H+  H52  1  0.51554886  0.11869102  0.16567381  1
  H+  H53  1  0.15050016  0.32408481  0.22778259  1
  H+  H54  1  0.88348683  0.62295357  0.49542712  1
  H+  H55  1  0.13694281  0.86871666  0.67186569  1
  H+  H56  1  0.61211002  0.48202167  0.80849316  1
  H+  H57  1  0.84908127  0.97032535  0.00510033  1
  H+  H58  1  0.21316384  0.10684892  0.66053499  1
  H+  H59  1  0.34792446  0.63974760  0.34045249  1
  H+  H60  1  0.48741519  0.43415962  0.06486217  1
  H+  H61  1  0.36758723  0.85203686  0.66258316  1
  H+  H62  1  0.57411286  0.59173258  0.97895838  1
  H+  H63  1  0.21799081  0.11673090  0.32457669  1
  H+  H64  1  0.87456914  0.76617601  0.70635265  1
  H+  H65  1  0.10538842  0.67839040  0.74647820  1
  H+  H66  1  0.09597687  0.09536139  1.00424168  1
  H+  H67  1  0.59571750  0.09322494  0.48180387  1
  H+  H68  1  0.12937671  0.39893570  0.14612125  1
  H+  H69  1  0.35343773  0.64208641  0.00649133  1
  H+  H70  1  0.61150090  0.97633520  0.84626046  1
  H+  H71  1  0.56726051  0.40946601  0.11856672  1
  H+  H72  1  0.13411322  0.52534942  0.67392888  1
  H+  H73  1  0.37797267  0.15282557  0.32894558  1
  H+  H74  1  0.12352071  0.02008622  0.66117361  1
  H+  H75  1  0.97279566  0.88362119  0.98989852  1
  H+  H76  1  0.26705967  0.63146467  0.67474433  1
  H+  H77  1  0.12416025  0.82005824  1.00040627  1
  H+  H78  1  0.46546960  0.60319636  0.84660872  1
  H+  H79  1  0.60943300  0.47331757  0.17321050  1
  H+  H80  1  0.20205099  0.32878320  0.99385865  1
  H+  H81  1  0.49574384  0.64291872  0.02193930  1
  H+  H82  1  0.37402535  0.48055663  0.33718388  1
  H+  H83  1  0.35126485  0.88727089  0.34046305  1
  H+  H84  1  0.66594539  0.61724553  0.17031961  1
  H+  H85  1  0.37295425  0.97936867  0.82777329  1
  H+  H86  1  0.37599442  1.02194463  0.50055286  1
  H+  H87  1  0.34862184  0.46942227  0.82333682  1
  H+  H88  1  0.57142404  0.70422744  0.78762960  1
  H+  H89  1  0.36843428  0.38671190  0.50341057  1
  H+  H90  1  0.46674910  0.35420077  0.18960406  1
  H+  H91  1  0.38354562  0.87010374  0.85203980  1
  H+  H92  1  0.12190916  0.39872160  0.67174867  1
  H+  H93  1  0.47583366  0.11333015  0.32193119  1
  H+  H94  1  0.76106302  0.63708466  0.68199537  1
  H+  H95  1  0.66001395  0.05351062  1.01498685  1
  H+  H96  1  0.86998441  0.28320575  0.51492320  1
  H+  H97  1  0.21204643  0.62144263  0.32665272  1
  H+  H98  1  0.75920622  0.19192174  0.65399324  1
  H+  H99  1  0.89092828  0.11199030  0.32929020  1
  H+  H100  1  0.67471784  1.00809190  0.61952870  1
  H+  H101  1  0.58662750  0.96885311  0.32852735  1
  H+  H102  1  0.13936434  0.78006025  0.67260387  1
  H+  H103  1  0.13904402  0.03444084  0.93070261  1
  H+  H104  1  0.56720375  0.91281568  0.78990640  1
  H+  H105  1  0.85300583  0.38938709  0.00989075  1
  H+  H106  1  0.89786736  0.79003175  0.46607286  1
  H+  H107  1  0.12305925  0.23332145  -0.01361980  1
  H+  H108  1  0.10723608  0.25125023  0.32475081  1
  H+  H109  1  0.52553900  0.76795672  0.63378008  1
  H+  H110  1  0.57459527  0.83343856  0.68515705  1
  H+  H111  1  0.78054060  0.40680984  0.49035700  1
  H+  H112  1  0.12506061  0.77954310  0.32138113  1
  H+  H113  1  0.63711370  0.51898590  0.64653193  1
  H+  H114  1  0.35284741  0.88505486  0.49521895  1
  H+  H115  1  0.70439661  0.01397638  0.64540386  1
  H+  H116  1  0.77112296  0.88248831  0.70293896  1
  H+  H117  1  1.08038908  0.40265917  0.77295354  1
  H+  H118  1  0.47303615  0.16181702  0.63863396  1
  H+  H119  1  0.86883711  1.01741935  0.84419358  1
  H+  H120  1  0.60522134  0.72444521  0.32742721  1
  H+  H121  1  0.15380328  0.94882446  0.84267571  1
  H+  H122  1  0.31448763  0.90181787  0.06781044  1
  H+  H123  1  0.90316230  0.38688391  0.66645449  1
  H+  H124  1  0.45984211  0.85553260  0.50356654  1
  H+  H125  1  0.65338805  0.31655306  0.22522922  1
  H+  H126  1  0.35125756  0.88106528  1.00910055  1
  H+  H127  1  0.64406502  0.38184757  -0.01005612  1
  H+  H128  1  0.46371032  0.62024013  0.32252895  1
  H+  H129  1  0.58142225  0.67468616  0.17586632  1
  H+  H130  1  0.61402661  0.12290048  0.16396173  1
  H+  H131  1  0.84756165  0.17382454  0.09800056  1
  H+  H132  1  0.92771970  0.09421661  0.23448728  1
  H+  H133  1  0.48756963  0.87728505  0.69388940  1
  H+  H134  1  0.39844643  0.30170067  0.24293548  1
  H+  H135  1  0.98479140  0.60921144  0.84947459  1
  H+  H136  1  0.63746112  0.29710390  0.49093545  1
  H+  H137  1  0.88574214  0.27328169  0.83689877  1
  H+  H138  1  0.37810448  0.26507361  0.66341383  1
  H+  H139  1  0.09792162  0.46414806  0.50423423  1
  H+  H140  1  0.60362775  0.23837595  0.32690608  1
  H+  H141  1  1.03075129  0.39339994  0.67900922  1
  H+  H142  1  0.73417234  0.11204248  0.16912811  1
  H+  H143  1  0.27091931  0.37839223  0.16769665  1
  H+  H144  1  0.64740978  0.35764630  0.65178185  1
  H+  H145  1  0.11717141  0.88726128  0.16641754  1
  H+  H146  1  0.52549301  0.39751927  0.49371809  1
  H+  H147  1  0.18205600  0.35126439  0.47598729  1
  H+  H148  1  0.22232311  0.86553983  0.51460981  1
  H+  H149  1  0.09237190  0.63182184  0.32038727  1
  H+  H150  1  0.47096050  0.36662704  0.83643109  1
  H+  H151  1  0.34697088  0.62787739  0.16012027  1
  H+  H152  1  0.11122494  0.59975599  0.99337259  1
  H+  H153  1  0.12249198  0.13262767  0.16359868  1
  H+  H154  1  0.63912647  0.53994862  0.49556167  1
  H+  H155  1  0.25441033  0.10485448  1.00089794  1
  H+  H156  1  0.38106615  0.35489884  0.66006259  1
  H+  H157  1  0.83145962  0.17357237  0.76914392  1
  H+  H158  1  0.14676970  0.27550357  0.16613036  1
  H+  H159  1  0.64857009  0.02252573  0.19021335  1
  H+  H160  1  0.59512444  0.88096352  0.47436623  1
  H+  H161  1  1.02675994  0.89440265  0.47677205  1
  H+  H162  1  0.47583520  0.85662845  0.18589628  1
  H+  H163  1  0.10482843  0.21054004  0.82207076  1
  H+  H164  1  0.62243007  0.74890466  0.85356220  1
  H+  H165  1  0.59141474  0.72200426  0.01387038  1
  H+  H166  1  0.99607961  0.12758270  0.50306540  1
  H+  H167  1  0.86760603  0.99840810  0.48366733  1
  H+  H168  1  0.01613598  0.81422830  0.03505892  1
  H+  H169  1  0.74128957  0.64885698  1.01155734  1
  H+  H170  1  0.36685573  0.50275898  0.17437060  1
  H+  H171  1  0.34925116  0.33468866  -0.01209555  1
  H+  H172  1  0.64240986  0.29023234  0.98701224  1
  H+  H173  1  0.61823143  0.11715885  0.66727855  1
  H+  H174  1  0.47684870  0.87105707  0.85666800  1
  H+  H175  1  0.11763213  0.97609265  -0.00950794  1
  H+  H176  1  0.84159915  0.47233636  0.30557480  1
  H+  H177  1  0.04613913  0.27665698  0.29188599  1
  H+  H178  1  0.35566736  0.62954304  0.66989804  1
  H+  H179  1  0.13230245  0.60622457  0.52179160  1
  H+  H180  1  0.61650992  0.21852756  0.16477462  1
  H+  H181  1  0.36126917  0.88232885  0.16023507  1
  H+  H182  1  0.87548960  0.73624826  0.16150458  1
  H+  H183  1  0.11839999  0.64958781  0.15797659  1
  H+  H184  1  0.85189759  0.88328030  0.00604109  1
  H+  H185  1  0.89387876  0.36863097  0.83477826  1
  H+  H186  1  0.77938699  0.90896600  0.47501572  1
  H+  H187  1  0.88324588  0.25482084  0.67800505  1
  H+  H188  1  0.13383509  0.87378447  0.32420877  1
  H+  H189  1  0.33394184  0.20121506  -0.00307805  1
  H+  H190  1  0.61131491  0.64514283  0.48366682  1
  H+  H191  1  0.88531986  0.27924321  0.32034801  1
  H+  H192  1  0.49999726  0.35925620  0.34259600  1
  H+  H193  1  0.87145342  0.47838277  0.83071563  1
  H+  H194  1  0.72975602  0.11777119  0.85145013  1
  H+  H195  1  0.22144528  0.45216821  0.60562259  1
  H+  H196  1  0.54776411  0.46826411  1.00805704  1
  H+  H197  1  0.76921189  0.63809312  0.33654442  1
  H+  H198  1  0.39459213  0.77965635  0.99952289  1
  H+  H199  1  0.33058065  0.15247932  0.88185805  1
  H+  H200  1  0.26592242  0.88850554  0.67993689  1
  H+  H201  1  0.85786316  0.72739472  0.33532535  1
  H+  H202  1  0.89523971  0.52714638  0.00128266  1
  H+  H203  1  0.32537080  0.65563098  0.76714539  1
  H+  H204  1  0.60676298  0.01296376  0.46701058  1
  H+  H205  1  0.36938991  0.77084393  0.32822459  1
  H+  H206  1  0.13066558  -0.00107005  0.50197582  1
  H+  H207  1  0.64618303  0.62640071  0.81486535  1
  H+  H208  1  0.39126286  0.11159970  0.98927784  1
  H+  H209  1  0.09135036  0.37084160  0.49863915  1
  H+  H210  1  0.76953013  0.39814158  0.00713043  1
  H+  H211  1  0.20646593  0.10318894  0.18532723  1
  H+  H212  1  0.12414559  0.70481865  -0.00757855  1
  H+  H213  1  0.37080475  0.76351296  0.66181226  1
  H+  H214  1  0.72076449  0.86043612  0.31583960  1
  H+  H215  1  -0.02361250  0.63860522  0.69566144  1
  H+  H216  1  0.33678547  0.23552086  0.15196818  1
  H+  H217  1  0.08321570  0.42325692  0.40495327  1
  H+  H218  1  0.90066375  0.88153348  0.46477199  1
  H+  H219  1  0.12576404  0.45090047  0.08780388  1
  H+  H220  1  0.34951635  0.12561944  0.67416511  1
  H+  H221  1  0.27146277  0.52334917  0.98248161  1
  H+  H222  1  0.11180102  0.39352467  0.34551614  1
  H+  H223  1  0.86961477  0.85012484  0.84006713  1
  H+  H224  1  0.96658280  0.36507052  0.51025575  1
  H+  H225  1  0.78760769  0.14939775  0.34498505  1
  H+  H226  1  0.88137117  0.99150818  0.15718752  1
  H+  H227  1  0.35111089  0.54810371  0.93376277  1
  H+  H228  1  0.62701994  0.60116829  0.65351378  1
  H+  H229  1  1.02437567  0.61378838  0.99750343  1
  H+  H230  1  0.13991090  0.53021069  0.16792557  1
  H+  H231  1  0.11798639  0.64477700  0.68349938  1
  H+  H232  1  0.59644055  0.89811064  0.24123536  1
  H+  H233  1  1.02615626  0.14972214  0.66603217  1
  H+  H234  1  0.35826901  0.23071584  0.83858666  1
  H+  H235  1  0.92252226  0.67235044  0.01331590  1
  H+  H236  1  0.35943025  0.37642922  0.17244445  1
  H+  H237  1  0.45738695  0.11902576  0.49205868  1
  H+  H238  1  0.79266158  0.40725445  0.67173370  1
  H+  H239  1  0.68138042  0.28935057  0.64060277  1
  H+  H240  1  0.62030290  0.51581858  0.32213725  1
  H+  H241  1  0.26762220  0.63745922  0.82536281  1
  H+  H242  1  0.75043629  0.87387203  0.84685521  1
  H+  H243  1  0.34973141  0.13494202  0.48460588  1
  H+  H244  1  0.85924277  0.13850942  0.82734357  1
  H+  H245  1  0.66594655  0.84106294  0.53512182  1
  H+  H246  1  -0.00960142  0.12877326  0.17688231  1
  H+  H247  1  0.89380556  0.54801489  0.68731429  1
  H+  H248  1  0.92097253  0.92228041  0.70473390  1
  H+  H249  1  0.21334507  0.34710254  0.83581725  1
  H+  H250  1  0.96934920  0.09580361  0.99442289  1
  H+  H251  1  0.52424695  0.37478015  0.66425338  1
  H+  H252  1  0.87217418  0.14279202  0.15927669  1
  H+  H253  1  0.63222249  0.85883976  0.32334457  1
  H+  H254  1  0.34936595  0.71938885  0.49807831  1
  H+  H255  1  0.90241818  0.78927723  0.99434075  1
  H+  H256  1  0.21872206  0.83383255  0.99718147  1
  H+  H257  1  0.62338934  0.84268972  0.85975342  1
  H+  H258  1  0.64210452  0.27754780  0.83327103  1
  H+  H259  1  0.97750144  0.86914962  0.32611566  1
  H+  H260  1  0.11484917  0.73242043  0.51338412  1
  H+  H261  1  0.83708026  0.38455984  0.31999045  1
  H+  H262  1  0.26537117  0.64031025  0.16020820  1
  H+  H263  1  -0.02678075  0.62148135  0.50876200  1
  H+  H264  1  0.63097603  0.77610370  0.48040416  1
  H+  H265  1  0.61801861  0.36116235  0.31785274  1
  H+  H266  1  0.53700205  0.16211221  0.99172894  1
  H+  H267  1  0.35418637  0.63264686  0.49431826  1
  H+  H268  1  0.72358060  0.33937101  0.17231747  1
  H+  H269  1  0.87025238  0.40602741  0.50196515  1
  H+  H270  1  0.72775137  0.87744625  0.71032859  1
  H+  H271  1  0.91666878  0.05309678  0.66272847  1
  H+  H272  1  0.28086466  0.38474427  0.51463000  1
  H+  H273  1  0.27064288  0.38807701  0.66190152  1
  H+  H274  1  0.98232641  0.86759688  0.17508378  1
  H+  H275  1  0.89328417  0.49932694  0.18668772  1
  H+  H276  1  0.09899017  0.36001905  0.83273662  1
  H+  H277  1  0.49839334  0.87844833  0.32597776  1
  H+  H278  1  0.43781673  0.34076540  0.99403382  1
  H+  H279  1  0.74476836  0.61024222  0.00267096  1
  H+  H280  1  0.71746580  0.61779310  0.77616358  1
  H+  H281  1  0.23903834  0.89567360  0.85295485  1
  H+  H282  1  0.13870198  0.77792547  0.17400772  1
  H+  H283  1  0.27405894  0.88626313  0.16335057  1
  H+  H284  1  0.51960291  0.64100854  0.48582076  1
  H+  H285  1  0.61972899  0.13533622  0.83153689  1
  H+  H286  1  0.38362771  0.02619019  0.32714704  1
  H+  H287  1  0.75803948  0.21816894  0.29242087  1
  H+  H288  1  0.89594833  0.61275682  0.86013672  1
  H+  H289  1  0.92929298  0.57940687  0.93792165  1
  H+  H290  1  0.40749239  0.33407352  0.89548178  1
  H+  H291  1  0.73460418  0.13453748  0.48278537  1
  H+  H292  1  0.93116322  0.10379844  0.59780822  1
  H+  H293  1  0.30369249  0.17272779  0.09233245  1
  H+  H294  1  0.58398341  0.40920872  0.72188118  1
  H+  H295  1  0.16052767  0.58520443  0.22999200  1
  H+  H296  1  0.15990636  0.57834465  0.61120048  1
  H+  H297  1  0.83486682  0.66938262  0.42175375  1
  H+  H298  1  0.75005449  0.14107445  1.01093633  1
  H+  H299  1  0.11045188  0.97354956  0.16818890  1
  H+  H300  1  0.32193502  0.91461687  0.43551157  1
  H+  H301  1  0.83444412  0.92628579  0.38384830  1
  H+  H302  1  0.91918431  0.14977743  0.51189355  1
  H+  H303  1  0.33219916  0.90942686  0.77503234  1
  H+  H304  1  0.08827948  0.14441584  0.06264999  1
  H+  H305  1  0.17156696  0.36059678  0.57370432  1
  H+  H306  1  0.56282343  0.19185706  0.41311025  1
  H+  H307  1  0.62858690  0.16755591  0.00427346  1
  H+  H308  1  0.34196006  0.68079345  0.06976907  1
  H+  H309  1  0.21918476  0.60367343  0.51543040  1
  H+  H310  1  0.92568050  0.35222424  0.60577516  1
  H+  H311  1  0.82923407  0.41288905  0.10598694  1
  H+  H312  1  0.92971852  0.86619875  0.57330759  1
  H+  H313  1  0.42160494  0.07873974  0.22801446  1
  H+  H314  1  0.08167955  0.16353062  0.73206608  1
  H+  H315  1  0.89172951  0.70090461  0.07420571  1
  H+  H316  1  0.78313647  0.62989218  0.85497275  1
  H+  H317  1  0.26457759  0.89080921  0.34177144  1
  H+  H318  1  0.58704613  0.13829199  0.76514650  1
  H+  H319  1  0.41490276  0.84158857  0.92279143  1
  H+  H320  1  0.80689575  0.12348087  0.51442930  1
  H+  H321  1  0.39560800  0.58200148  0.26868195  1
  H+  H322  1  0.67980123  0.10051218  0.91487977  1
  H+  H323  1  0.15462576  0.30552113  0.89596969  1
  H+  H324  1  0.67962123  0.58303705  0.23329031  1
  H+  H325  1  0.79788429  0.64043162  0.15488409  1
  H+  H326  1  0.02735136  0.64171983  0.36443137  1
  H+  H327  1  0.71191451  0.85066946  0.00705584  1
  H+  H328  1  1.05877421  0.31621268  0.98423064  1
  H+  H329  1  0.62417470  0.89081026  0.17410242  1
  H+  H330  1  0.31542534  0.39482925  0.07032740  1
  H+  H331  1  0.65470636  0.81671143  0.94615853  1
  H+  H332  1  0.35779966  0.97372591  0.67940275  1
  H+  H333  1  0.92023407  0.83815606  0.26602437  1
  H+  H334  1  0.09873170  0.67605731  0.45524363  1
  H+  H335  1  0.16495505  0.07636332  0.56512411  1
  H+  H336  1  0.56429699  0.62869115  0.73628398  1
  H+  H337  1  0.56799414  0.41236631  0.39497547  1
  H+  H338  1  0.19399105  0.19831323  0.12477755  1
  H+  H339  1  0.60970679  0.39241419  0.81824193  1
  H+  H340  1  0.89927656  0.32386930  0.25478525  1
  H+  H341  1  0.17166982  0.85615003  0.90730621  1
  H+  H342  1  0.79935306  0.90581861  0.78381963  1
  H+  H343  1  0.62956672  0.56560737  0.93781852  1
  H+  H344  1  0.86644407  0.37732228  0.15740887  1
  H+  H345  1  0.91110267  0.07854049  0.93487217  1
  H+  H346  1  0.48861317  0.11556312  0.82967868  1
  H+  H347  1  0.41710273  0.32546351  0.56736955  1
  H+  H348  1  0.39708562  0.82585818  0.26547529  1
  H+  H349  1  0.41538756  0.09320199  0.58992778  1
  H+  H350  1  0.39888088  0.11562412  0.82984129  1
  H+  H351  1  0.13921052  0.51698980  0.93581737  1
  H+  H352  1  0.71670823  0.18589767  0.59017902  1
  H+  H353  1  0.62318600  0.60596083  0.32055488  1
  H+  H354  1  0.38655715  0.52438107  0.50410167  1
  H+  H355  1  0.58860647  0.66770969  0.10312855  1
  H+  H356  1  0.40605001  0.82996837  0.56683220  1
  H+  H357  1  0.72285272  0.82275395  0.60160853  1
  H+  H358  1  0.48216148  0.87505173  0.99381187  1
  H+  H359  1  0.31923072  0.40676055  0.72720271  1
  H+  H360  1  0.07558098  0.16040015  0.43678059  1
  H+  H361  1  0.61457157  0.88912538  0.00116528  1
  H+  H362  1  0.73126972  0.86837239  0.60281576  1
  H+  H363  1  0.84233482  0.42577690  0.73610188  1
  H+  H364  1  0.55223455  0.89924083  0.41767753  1
  H+  H365  1  0.99674690  0.36425141  0.83236345  1
  H+  H366  1  0.84737890  0.92858908  0.09857934  1
  H+  H367  1  0.09868335  0.11769994  0.81821212  1
  H+  H368  1  0.83452161  0.16625286  0.40854730  1
  H+  H369  1  0.95053657  0.99564883  0.75338953  1
  H+  H370  1  0.41510674  0.58472409  0.56153766  1
  H+  H371  1  0.31762442  0.14763902  0.73535728  1
  H+  H372  1  0.31783067  0.66644090  0.40122811  1
  H+  H373  1  0.91524253  0.83955646  0.89649004  1
  H+  H374  1  0.12851509  0.52939004  0.32803859  1
  H+  H375  1  0.88226362  0.83368258  0.57069108  1
  H+  H376  1  0.08077649  0.89309660  0.07562997  1
  H+  H377  1  0.09327384  0.92836029  0.39135220  1
  H+  H378  1  0.67677756  0.34816415  0.55396233  1
  H+  H379  1  0.35378844  0.40792425  0.38361029  1
  H+  H380  1  0.42703903  0.09111793  0.92931148  1
  H+  H381  1  0.57297524  0.66565834  0.38697367  1
  H+  H382  1  0.56234121  0.97182350  0.70419722  1
  H+  H383  1  0.51672516  0.23731832  0.44220035  1
  O2-  O384  1  0.13235899  0.18027809  0.13390438  1
  O2-  O385  1  0.07207066  0.16351085  0.48232155  1
  O2-  O386  1  0.07232262  0.15137475  0.80276160  1
  O2-  O387  1  0.10331558  0.43244593  0.13020256  1
  O2-  O388  1  0.06225609  0.40593936  0.48658034  1
  O2-  O389  1  0.07090329  0.39349216  0.81811822  1
  O2-  O390  1  0.08831240  0.68161094  0.14774343  1
  O2-  O391  1  0.08493617  0.67080297  0.49843203  1
  O2-  O392  1  0.10461084  0.65019140  0.82944821  1
  O2-  O393  1  0.08423315  0.91450498  0.14961935  1
  O2-  O394  1  0.09390196  0.92507036  0.48019283  1
  O2-  O395  1  0.13157557  0.98085500  0.81527457  1
  O2-  O396  1  0.28588796  0.18966694  0.13011323  1
  O2-  O397  1  0.32170091  0.16858510  0.47224175  1
  O2-  O398  1  0.32679103  0.16520139  0.83906993  1
  O2-  O399  1  0.33153032  0.40659973  0.15199535  1
  O2-  O400  1  0.33578198  0.41660275  0.49317294  1
  O2-  O401  1  0.31701622  0.40895609  0.80655254  1
  O2-  O402  1  0.32711634  0.66752989  0.14607784  1
  O2-  O403  1  0.31864174  0.65909025  0.48259979  1
  O2-  O404  1  0.32518887  0.65171822  0.81210177  1
  O2-  O405  1  0.33345835  0.91484914  0.14543516  1
  O2-  O406  1  0.32298926  0.91651674  0.48137212  1
  O2-  O407  1  0.33831210  0.91573499  0.81998421  1
  O2-  O408  1  0.58165141  0.15214072  0.15007438  1
  O2-  O409  1  0.54577513  0.20600091  0.45437310  1
  O2-  O410  1  0.59139164  0.16097655  0.80695310  1
  O2-  O411  1  0.56617351  0.41280694  0.16291186  1
  O2-  O412  1  0.58339333  0.43229509  0.47478375  1
  O2-  O413  1  0.57634631  0.41831446  0.80186910  1
  O2-  O414  1  0.62089454  0.68467879  0.14254523  1
  O2-  O415  1  0.57834266  0.67242255  0.46740507  1
  O2-  O416  1  0.57853045  0.67167093  0.82037452  1
  O2-  O417  1  0.59067357  0.91270618  0.19931621  1
  O2-  O418  1  0.55677553  0.90427787  0.46284845  1
  O2-  O419  1  0.57567754  0.91452832  0.83513417  1
  O2-  O420  1  0.83988271  0.17050428  0.14355191  1
  O2-  O421  1  0.79817900  0.16623213  0.49309286  1
  O2-  O422  1  0.82998586  0.17103442  0.81452542  1
  O2-  O423  1  0.83017211  0.40450749  0.15053869  1
  O2-  O424  1  0.84462492  0.44014470  0.48421884  1
  O2-  O425  1  0.84155344  0.41879131  0.81294636  1
  O2-  O426  1  0.85641922  0.68068744  0.14020255  1
  O2-  O427  1  0.84143234  0.67592018  0.46847085  1
  O2-  O428  1  0.84265964  0.65858317  0.86999673  1
  O2-  O429  1  0.85008347  0.93051692  0.14413559  1
  O2-  O430  1  0.84067069  0.94129348  0.46330687  1
  O2-  O431  1  0.80954644  0.91116206  0.82770989  1
  O2-  O432  1  0.14749912  0.06937148  0.20144349  1
  O2-  O433  1  0.16565903  0.06982629  0.52002576  1
  O2-  O434  1  0.15050295  0.06080298  0.84691455  1
  O2-  O435  1  0.16652764  0.33363111  0.18380440  1
  O2-  O436  1  0.14508415  0.32492854  0.51124938  1
  O2-  O437  1  0.15263889  0.30972311  0.85018863  1
  O2-  O438  1  0.16657595  0.58968323  0.18484860  1
  O2-  O439  1  0.16012873  0.57290452  0.53402000  1
  O2-  O440  1  0.14758700  0.61695935  0.85102820  1
  O2-  O441  1  0.17181512  0.84009554  0.18826059  1
  O2-  O442  1  0.16211693  0.83577141  0.53112544  1
  O2-  O443  1  0.18810180  0.89432348  0.87133270  1
  O2-  O444  1  0.43000684  0.07872144  0.18334113  1
  O2-  O445  1  0.40243087  0.08353551  0.51448346  1
  O2-  O446  1  0.42699155  0.08355556  0.84336941  1
  O2-  O447  1  0.40371529  0.31951427  0.19954408  1
  O2-  O448  1  0.42135276  0.33217053  0.52221443  1
  O2-  O449  1  0.40971485  0.33458864  0.84985202  1
  O2-  O450  1  0.39035017  0.56536979  0.18680987  1
  O2-  O451  1  0.41549037  0.58664754  0.51618906  1
  O2-  O452  1  0.40259114  0.56830586  0.85610376  1
  O2-  O453  1  0.41239309  0.82842217  0.19046758  1
  O2-  O454  1  0.40092684  0.82759643  0.52154575  1
  O2-  O455  1  0.41523954  0.84227096  0.87173999  1
  O2-  O456  1  0.67683915  0.08684412  0.18961086  1
  O2-  O457  1  0.63495007  0.07717194  0.46358372  1
  O2-  O458  1  0.67137914  0.08812552  0.87040813  1
  O2-  O459  1  0.66136513  0.30407817  0.18221369  1
  O2-  O460  1  0.67635424  0.35458634  0.50871875  1
  O2-  O461  1  0.66976873  0.33845883  0.84602771  1
  O2-  O462  1  0.68643049  0.58044712  0.18819077  1
  O2-  O463  1  0.67056077  0.60099765  0.50985577  1
  O2-  O464  1  0.67785764  0.59359678  0.81138418  1
  O2-  O465  1  0.67822675  0.86289207  0.13610667  1
  O2-  O466  1  0.66079390  0.83969927  0.49080322  1
  O2-  O467  1  0.65520432  0.81416621  0.87343836  1
  O2-  O468  1  0.92994507  0.09699564  0.18831564  1
  O2-  O469  1  0.92713793  0.10179728  0.52341462  1
  O2-  O470  1  0.90435208  0.08012129  0.85484453  1
  O2-  O471  1  0.93199101  0.33788726  0.17739477  1
  O2-  O472  1  0.90652717  0.34340074  0.52814583  1
  O2-  O473  1  0.92258379  0.33553535  0.84871298  1
  O2-  O474  1  0.94363061  0.55099870  0.20543317  1
  O2-  O475  1  0.90984734  0.58950770  0.51487374  1
  O2-  O476  1  0.92494213  0.57609776  0.86390715  1
  O2-  O477  1  0.92151058  0.83922032  0.19032086  1
  O2-  O478  1  0.93529798  0.85313330  0.46002963  1
  O2-  O479  1  0.90779129  0.82815972  0.85214479  1
  O2-  O480  1  0.15685793  0.08364789  0.31468141  1
  O2-  O481  1  0.15385087  0.08010808  0.64334069  1
  O2-  O482  1  0.14184106  0.03587615  0.97561948  1
  O2-  O483  1  0.10677536  0.29978900  0.30108521  1
  O2-  O484  1  0.19125125  0.39143167  0.61654900  1
  O2-  O485  1  0.14768634  0.29341839  0.97102995  1
  O2-  O486  1  0.15270429  0.58852278  0.30971460  1
  O2-  O487  1  0.16254703  0.58470585  0.65657626  1
  O2-  O488  1  0.11584590  0.51062376  0.97708944  1
  O2-  O489  1  0.16406000  0.84095828  0.31194249  1
  O2-  O490  1  0.16740297  0.83977977  0.65469298  1
  O2-  O491  1  0.15758039  0.79732381  0.97915618  1
  O2-  O492  1  0.41455439  0.08445513  0.30829706  1
  O2-  O493  1  0.42560442  0.10281156  0.63532408  1
  O2-  O494  1  0.43586302  0.09995125  0.97338435  1
  O2-  O495  1  0.40164202  0.27160566  0.32269510  1
  O2-  O496  1  0.41114651  0.32355548  0.64614881  1
  O2-  O497  1  0.38266136  0.30836970  0.97106980  1
  O2-  O498  1  0.40086802  0.59199806  0.31312070  1
  O2-  O499  1  0.40411842  0.57246870  0.64130601  1
  O2-  O500  1  0.33457665  0.54137784  0.97735738  1
  O2-  O501  1  0.39948191  0.83101553  0.31120725  1
  O2-  O502  1  0.40095914  0.82515037  0.64748560  1
  O2-  O503  1  0.41997241  0.84184525  0.98205971  1
  O2-  O504  1  0.71078433  0.15870414  0.30128934  1
  O2-  O505  1  0.71070152  0.19466634  0.63327032  1
  O2-  O506  1  0.68875044  0.11202948  0.99793006  1
  O2-  O507  1  0.64835921  0.33132851  0.30158696  1
  O2-  O508  1  0.69100985  0.34703502  0.63125278  1
  O2-  O509  1  0.67628776  0.35601899  0.97350045  1
  O2-  O510  1  0.65597745  0.57668981  0.30932768  1
  O2-  O511  1  0.66403786  0.58048641  0.63505203  1
  O2-  O512  1  0.57383870  0.54297889  0.95740769  1
  O2-  O513  1  0.65894576  0.82871543  0.30392730  1
  O2-  O514  1  0.57357206  0.78593255  0.66164856  1
  O2-  O515  1  0.65101559  0.82034532  0.99216348  1
  O2-  O516  1  0.92039044  0.08470569  0.30834983  1
  O2-  O517  1  0.93589620  0.11041960  0.64411542  1
  O2-  O518  1  0.90921638  0.07475012  0.98010063  1
  O2-  O519  1  0.86598382  0.30978706  0.29335694  1
  O2-  O520  1  0.93184295  0.35436980  0.65105174  1
  O2-  O521  1  1.00902901  0.32540616  0.98630837  1
  O2-  O522  1  0.90679972  0.57069536  0.25831048  1
  O2-  O523  1  0.91416457  0.61032343  0.68795944  1
  O2-  O524  1  0.93564222  0.58490296  0.98377471  1
  O2-  O525  1  0.91675158  0.83773804  0.31167912  1
  O2-  O526  1  0.91672939  0.82551093  0.69019235  1
  O2-  O527  1  0.91326769  0.84578862  0.97680883  1
  O2-  O528  1  0.07276313  0.13233151  0.01858467  1
  O2-  O529  1  0.08374979  0.16045939  0.36009071  1
  O2-  O530  1  0.08702376  0.17014423  0.68530911  1
  O2-  O531  1  0.17699382  0.49824660  0.01496572  1
  O2-  O532  1  0.09576912  0.43494328  0.36101585  1
  O2-  O533  1  0.08960182  0.41862213  0.69747273  1
  O2-  O534  1  0.09050441  0.64010698  0.00665654  1
  O2-  O535  1  0.05629286  0.66065137  0.32543905  1
  O2-  O536  1  0.09687235  0.68139793  0.70235821  1
  O2-  O537  1  0.06992022  0.87228464  0.03211388  1
  O2-  O538  1  0.08924917  0.92796225  0.34692254  1
  O2-  O539  1  0.08928722  0.92699697  0.69858775  1
  O2-  O540  1  0.31378256  0.14351779  0.01532247  1
  O2-  O541  1  0.35166927  0.18671149  0.34601536  1
  O2-  O542  1  0.31632164  0.15161811  0.69102438  1
  O2-  O543  1  0.30723494  0.38971919  0.02539367  1
  O2-  O544  1  0.36885774  0.42360225  0.34115177  1
  O2-  O545  1  0.32699711  0.40679261  0.68203772  1
  O2-  O546  1  0.35895698  0.69405934  0.02617311  1
  O2-  O547  1  0.31787999  0.67059733  0.35603805  1
  O2-  O548  1  0.32950846  0.66297627  0.68630934  1
  O2-  O549  1  0.30730260  0.89473017  0.02286261  1
  O2-  O550  1  0.32480094  0.91973744  0.35827958  1
  O2-  O551  1  0.32762261  0.91457614  0.69431527  1
  O2-  O552  1  0.59887159  0.20115984  0.00333224  1
  O2-  O553  1  0.57914768  0.17796412  0.34538033  1
  O2-  O554  1  0.56749240  0.07813364  0.69284859  1
  O2-  O555  1  0.52096558  0.41882409  0.03812770  1
  O2-  O556  1  0.56153193  0.40342596  0.35025950  1
  O2-  O557  1  0.58566679  0.40408675  0.67665513  1
  O2-  O558  1  0.55588684  0.65981108  0.02833641  1
  O2-  O559  1  0.57074759  0.66323733  0.34174131  1
  O2-  O560  1  0.56329689  0.63548199  0.69159887  1
  O2-  O561  1  0.59200617  0.93048199  -0.00274746  1
  O2-  O562  1  0.56198420  0.90808946  0.33816241  1
  O2-  O563  1  0.54459806  0.91163301  0.71480241  1
  O2-  O564  1  0.86138920  0.18601046  0.02374200  1
  O2-  O565  1  0.84382452  0.16564181  0.36445680  1
  O2-  O566  1  0.84449040  0.19257779  0.68950716  1
  O2-  O567  1  0.82914354  0.42362163  0.02584106  1
  O2-  O568  1  0.81123486  0.42015383  0.33087084  1
  O2-  O569  1  0.85021977  0.43369358  0.69091187  1
  O2-  O570  1  0.92163806  0.72134557  0.03295374  1
  O2-  O571  1  0.82892552  0.66786208  0.35186321  1
  O2-  O572  1  0.80292010  0.66168104  0.71595633  1
  O2-  O573  1  0.82060037  0.91149935  0.02339158  1
  O2-  O574  1  0.83079863  0.91927657  0.33891253  1
  O2-  O575  1  0.93009182  0.98113208  0.71179468  1
