# generated using pymatgen
data_H2O
_symmetry_space_group_name_H-M   'P 1'
_cell_length_a   17.99348766
_cell_length_b   17.98384325
_cell_length_c   22.01261110
_cell_angle_alpha   89.99698358
_cell_angle_beta   90.01681328
_cell_angle_gamma   119.99780470
_symmetry_Int_Tables_number   1
_chemical_formula_structural   H2O
_chemical_formula_sum   'H384 O192'
_cell_volume   6168.92708211
_cell_formula_units_Z   192
loop_
 _symmetry_equiv_pos_site_id
 _symmetry_equiv_pos_as_xyz
  1  'x, y, z'
loop_
 _atom_type_symbol
 _atom_type_oxidation_number
  H+  1.0
  O2-  -2.0
loop_
 _atom_site_type_symbol
 _atom_site_label
 _atom_site_symmetry_multiplicity
 _atom_site_fract_x
 _atom_site_fract_y
 _atom_site_fract_z
 _atom_site_occupancy
  H+  H0  1  0.48235174  0.36546084  0.20347386  1
  H+  H1  1  0.10513023  0.21876408  0.67931264  1
  H+  H2  1  0.33106204  0.85596612  0.83003488  1
  H+  H3  1  0.11709018  0.97870365  0.82705147  1
  H+  H4  1  1.01015438  0.18998300  0.56207861  1
  H+  H5  1  0.61040135  0.47239740  0.01337767  1
  H+  H6  1  0.13505418  0.09538109  0.47449212  1
  H+  H7  1  0.87887746  0.76936920  0.98649874  1
  H+  H8  1  0.36816837  0.16179617  0.47363580  1
  H+  H9  1  0.89753908  0.61376636  0.49025143  1
  H+  H10  1  1.02199935  0.38794605  0.34072792  1
  H+  H11  1  0.91373755  0.65473431  0.71847764  1
  H+  H12  1  0.13900838  0.26163242  0.48278252  1
  H+  H13  1  0.63429647  0.76223332  0.30166874  1
  H+  H14  1  0.08043083  0.64442233  -0.06364587  1
  H+  H15  1  0.15346700  0.62505005  0.83240635  1
  H+  H16  1  0.13031834  0.24762465  0.83261673  1
  H+  H17  1  0.85992656  0.60129075  0.83811833  1
  H+  H18  1  0.07598919  0.64150483  0.00790607  1
  H+  H19  1  0.58049802  0.91382677  0.06055628  1
  H+  H20  1  0.60440445  0.79305759  0.52963039  1
  H+  H21  1  0.16790436  0.31724693  0.59513892  1
  H+  H22  1  1.12487642  0.87054322  0.49062836  1
  H+  H23  1  0.63805782  0.78070645  0.66500762  1
  H+  H24  1  0.55990085  0.65276697  0.36092133  1
  H+  H25  1  0.69962564  0.52719403  0.57086281  1
  H+  H26  1  0.86399392  0.47372490  0.48178662  1
  H+  H27  1  0.77599243  0.38314003  0.33083666  1
  H+  H28  1  0.18691585  0.11454246  0.18172944  1
  H+  H29  1  0.86984807  0.60408053  0.32896807  1
  H+  H30  1  0.36947458  0.11818633  0.85106575  1
  H+  H31  1  0.22255461  0.61307010  0.65576290  1
  H+  H32  1  0.86745278  0.38897166  0.82284408  1
  H+  H33  1  0.23109688  0.34345631  0.65217549  1
  H+  H34  1  0.53195597  0.14054950  0.33897841  1
  H+  H35  1  0.37202565  0.06671248  0.16775061  1
  H+  H36  1  0.80900377  -0.00191271  0.50347747  1
  H+  H37  1  0.13627468  0.01521788  0.33160604  1
  H+  H38  1  0.89265468  0.24313700  0.47846255  1
  H+  H39  1  0.76853558  0.14694930  0.83327864  1
  H+  H40  1  0.13779832  0.62607286  0.51389510  1
  H+  H41  1  0.06727427  0.12779154  0.15458305  1
  H+  H42  1  0.32822371  0.38563794  0.76230099  1
  H+  H43  1  0.63873937  0.02280769  0.99154240  1
  H+  H44  1  0.35841009  0.95863645  0.68429481  1
  H+  H45  1  0.84115086  0.12357206  0.68612047  1
  H+  H46  1  0.53484346  0.12899981  0.80728919  1
  H+  H47  1  0.92265413  0.33540463  0.89701385  1
  H+  H48  1  0.75936081  0.63071514  0.33684336  1
  H+  H49  1  0.12171715  0.91132456  0.18001914  1
  H+  H50  1  0.87246297  0.88234124  0.82656224  1
  H+  H51  1  0.26580959  0.38356182  0.02408807  1
  H+  H52  1  0.82587198  0.66557515  0.06435635  1
  H+  H53  1  0.53608139  0.64069054  0.81890370  1
  H+  H54  1  0.41208010  0.82201691  0.22856311  1
  H+  H55  1  1.03612617  0.86936980  0.48962867  1
  H+  H56  1  0.75295181  0.12938995  0.68557998  1
  H+  H57  1  0.13037895  0.10201234  0.34267665  1
  H+  H58  1  0.42846711  0.86508585  0.51190667  1
  H+  H59  1  0.38811034  0.59961890  0.81112294  1
  H+  H60  1  0.57449855  0.66732221  0.49615528  1
  H+  H61  1  0.38286022  0.28510209  0.49898268  1
  H+  H62  1  0.89671743  0.10251307  0.32042947  1
  H+  H63  1  0.61419854  0.71728446  0.15321219  1
  H+  H64  1  0.88891918  0.95563075  0.47417884  1
  H+  H65  1  0.37719224  0.95119484  0.14481586  1
  H+  H66  1  0.52269780  0.63023710  0.15871635  1
  H+  H67  1  0.77686940  0.88186219  0.15094180  1
  H+  H68  1  0.61733254  0.13330111  0.33838562  1
  H+  H69  1  0.75117152  0.80550551  0.49375104  1
  H+  H70  1  0.55194185  0.14033727  0.15325691  1
  H+  H71  1  0.37166232  0.39806869  0.18159170  1
  H+  H72  1  0.71424476  0.60827033  0.99825301  1
  H+  H73  1  0.63491545  0.48448642  0.69095570  1
  H+  H74  1  0.35113110  0.37332673  0.02396662  1
  H+  H75  1  0.89310220  0.61445684  0.17442066  1
  H+  H76  1  0.35278929  0.76978566  0.50434369  1
  H+  H77  1  0.72945315  0.36115820  0.83824013  1
  H+  H78  1  0.49744310  0.62432704  0.30493641  1
  H+  H79  1  0.21659447  0.63818046  0.88647766  1
  H+  H80  1  0.62093977  0.87452513  0.31611082  1
  H+  H81  1  0.77700366  0.88115258  0.67844351  1
  H+  H82  1  0.40478968  0.41478718  0.33759687  1
  H+  H83  1  0.37893164  0.84065136  0.16491257  1
  H+  H84  1  0.66448699  0.59101897  0.56984128  1
  H+  H85  1  0.47585182  0.85307269  0.31499503  1
  H+  H86  1  1.00943921  0.37636681  0.65042650  1
  H+  H87  1  0.78143992  0.62809154  0.49655484  1
  H+  H88  1  0.11461441  0.70568224  0.15453163  1
  H+  H89  1  0.88893580  0.11306825  -0.00598827  1
  H+  H90  1  0.46228575  0.85151124  0.65433734  1
  H+  H91  1  0.38790985  0.86568709  0.98616788  1
  H+  H92  1  0.18277176  0.88482517  0.25829407  1
  H+  H93  1  0.03548774  0.64496289  0.19417834  1
  H+  H94  1  0.97062026  0.36347186  0.50426042  1
  H+  H95  1  0.52433502  0.15272708  0.48947386  1
  H+  H96  1  0.88700577  0.35938368  0.16843392  1
  H+  H97  1  0.28001066  0.14801203  0.32657589  1
  H+  H98  1  0.41133690  0.08586888  0.64249151  1
  H+  H99  1  0.09909773  0.37249098  0.49362369  1
  H+  H100  1  0.39560509  0.28518187  0.29797970  1
  H+  H101  1  0.23186781  0.34670581  0.19120918  1
  H+  H102  1  0.77802912  0.13790770  1.00899130  1
  H+  H103  1  0.22120713  0.35297320  0.49533550  1
  H+  H104  1  -0.02356884  0.35612726  -0.00965673  1
  H+  H105  1  0.63893330  0.01681970  0.31895951  1
  H+  H106  1  0.15152530  0.11547563  0.84490446  1
  H+  H107  1  0.65193728  0.27909726  0.16790122  1
  H+  H108  1  0.13081187  0.35659066  0.33731167  1
  H+  H109  1  0.61249093  0.38091172  0.16604329  1
  H+  H110  1  0.36258513  0.98269788  0.00009390  1
  H+  H111  1  0.59710651  -0.02095390  0.67195468  1
  H+  H112  1  0.72897350  0.84907873  0.30854623  1
  H+  H113  1  0.37020439  0.45286508  0.67775320  1
  H+  H114  1  0.90480840  0.02389868  0.84216237  1
  H+  H115  1  0.76514476  0.80907425  0.52630057  1
  H+  H116  1  0.86415091  0.72316447  0.15518654  1
  H+  H117  1  0.85681879  0.38144198  0.48418057  1
  H+  H118  1  0.63796227  0.28073686  0.50419056  1
  H+  H119  1  0.57652820  0.90336766  0.50848934  1
  H+  H120  1  0.86743666  0.22523956  0.00929052  1
  H+  H121  1  0.83856549  0.62690128  0.00233346  1
  H+  H122  1  0.98003246  0.85878456  0.83221880  1
  H+  H123  1  0.89070631  0.85457140  0.31419993  1
  H+  H124  1  0.86678722  0.24442962  0.82806550  1
  H+  H125  1  0.54373560  0.93476153  0.76076356  1
  H+  H126  1  0.77485996  0.12725763  0.33064560  1
  H+  H127  1  0.12104431  0.54134870  0.34856771  1
  H+  H128  1  0.02859823  0.14708630  0.00263020  1
  H+  H129  1  0.82507514  0.98436773  0.53064536  1
  H+  H130  1  0.39042729  0.52562995  0.17066006  1
  H+  H131  1  0.98243978  0.10105813  0.33678659  1
  H+  H132  1  0.88195641  0.52077785  0.32743896  1
  H+  H133  1  0.11453515  0.88819651  0.82343774  1
  H+  H134  1  0.64720557  0.75992510  0.85272460  1
  H+  H135  1  0.02517360  0.11795977  0.45076062  1
  H+  H136  1  0.38529213  0.98747451  0.34006303  1
  H+  H137  1  0.29268421  0.00825630  0.21051635  1
  H+  H138  1  0.37966132  0.76146042  0.83201292  1
  H+  H139  1  0.39732037  0.20398919  0.63040516  1
  H+  H140  1  0.34568766  0.64040928  0.48736688  1
  H+  H141  1  0.22488588  0.60151340  0.17244092  1
  H+  H142  1  0.35766128  0.36553716  0.82668153  1
  H+  H143  1  0.38214603  0.76832755  0.31934499  1
  H+  H144  1  1.10885039  0.22679792  0.15922719  1
  H+  H145  1  0.86169007  1.01842278  0.16081999  1
  H+  H146  1  0.22930071  0.34826283  0.83179254  1
  H+  H147  1  0.76092508  0.38524368  0.66958235  1
  H+  H148  1  0.54671140  0.09995211  0.66896491  1
  H+  H149  1  0.70843615  0.63194260  0.67301181  1
  H+  H150  1  0.01771106  0.37826254  0.15489191  1
  H+  H151  1  0.86828570  0.88655279  0.00141157  1
  H+  H152  1  0.52602881  0.88579584  0.99904589  1
  H+  H153  1  0.88639065  0.35678486  0.32228369  1
  H+  H154  1  0.71721738  0.60288574  0.84724723  1
  H+  H155  1  0.14470807  0.60642969  0.19596201  1
  H+  H156  1  0.47376524  0.35030600  0.84558473  1
  H+  H157  1  0.08483318  0.17892033  0.06284473  1
  H+  H158  1  0.36452158  0.71776151  0.66341308  1
  H+  H159  1  0.44912522  0.86355875  0.83363064  1
  H+  H160  1  0.39076451  1.12752790  0.01162284  1
  H+  H161  1  0.97193461  0.85558568  0.98441092  1
  H+  H162  1  0.62294760  0.60093043  0.30904503  1
  H+  H163  1  0.62156626  0.47169484  0.33347582  1
  H+  H164  1  -0.01646126  0.36243454  0.83704797  1
  H+  H165  1  1.01011265  0.65617330  0.34063910  1
  H+  H166  1  0.66094781  0.91268078  0.78180039  1
  H+  H167  1  0.60967833  0.47085732  0.49249712  1
  H+  H168  1  0.59594796  0.67818433  0.56623448  1
  H+  H169  1  0.25129851  0.87254794  0.67483338  1
  H+  H170  1  0.48754232  0.35587992  0.65525647  1
  H+  H171  1  0.38513359  0.50723697  0.81485216  1
  H+  H172  1  0.05901018  0.63621561  0.49091022  1
  H+  H173  1  0.77574072  0.63233565  0.15673648  1
  H+  H174  1  0.33076686  0.94086347  0.42551234  1
  H+  H175  1  0.77965876  0.39471176  0.15950251  1
  H+  H176  1  0.14172471  0.01041568  0.48336218  1
  H+  H177  1  0.65477833  0.11028500  0.16381741  1
  H+  H178  1  0.60279556  0.89318323  0.68032570  1
  H+  H179  1  0.47173650  0.60631327  -0.02550419  1
  H+  H180  1  0.43150740  0.57053104  0.72918313  1
  H+  H181  1  0.63752030  0.85600737  0.15581928  1
  H+  H182  1  0.11367283  0.63167844  0.66456563  1
  H+  H183  1  0.84732071  0.25218836  0.64763793  1
  H+  H184  1  0.10304808  0.78499995  0.33951131  1
  H+  H185  1  0.30702902  0.11568684  0.62167859  1
  H+  H186  1  0.37961281  0.05243579  0.49523767  1
  H+  H187  1  0.88752649  0.26776634  0.31997665  1
  H+  H188  1  0.37874057  0.89484626  0.34062738  1
  H+  H189  1  0.25766997  0.63605740  0.47763647  1
  H+  H190  1  0.12149551  0.88982720  0.67168355  1
  H+  H191  1  0.15492662  0.40168228  0.68101641  1
  H+  H192  1  0.10720968  0.46668889  0.15678672  1
  H+  H193  1  0.67256351  0.33149552  0.23092584  1
  H+  H194  1  0.37376319  0.73810969  1.00951400  1
  H+  H195  1  0.67018784  0.82872657  0.21433935  1
  H+  H196  1  0.30907412  0.14067036  0.17972238  1
  H+  H197  1  0.38429256  -0.00170753  0.82685365  1
  H+  H198  1  0.39099431  0.25858968  0.86147347  1
  H+  H199  1  0.01211075  0.13660255  0.69016590  1
  H+  H200  1  0.47542784  0.36873813  0.50145716  1
  H+  H201  1  0.85555538  0.46952009  0.66975549  1
  H+  H202  1  0.12053796  0.42218715  1.00388118  1
  H+  H203  1  0.02153903  0.88853268  0.16763726  1
  H+  H204  1  0.10845465  0.88597991  -0.00513467  1
  H+  H205  1  0.12478190  0.11996810  0.99848707  1
  H+  H206  1  0.38621678  0.25042818  0.02377330  1
  H+  H207  1  0.84663029  0.34009111  0.64530821  1
  H+  H208  1  0.60823211  0.16125740  0.75720212  1
  H+  H209  1  0.22411255  0.87148481  0.19686967  1
  H+  H210  1  0.60668979  0.46657140  0.83448424  1
  H+  H211  1  0.51878735  0.87561935  0.15511537  1
  H+  H212  1  0.14116441  0.76921886  0.65822257  1
  H+  H213  1  0.35690409  0.63818218  0.32516235  1
  H+  H214  1  0.39738799  0.12874705  0.33040174  1
  H+  H215  1  0.36407103  0.62658423  0.66863585  1
  H+  H216  1  -0.06474319  0.59734406  -0.01166996  1
  H+  H217  1  0.64751031  0.12339631  0.84033339  1
  H+  H218  1  0.47972553  0.36822132  0.99843308  1
  H+  H219  1  0.61743604  0.63250787  0.83546612  1
  H+  H220  1  0.85215427  0.71672128  0.33635965  1
  H+  H221  1  0.72480482  0.07968555  0.16768086  1
  H+  H222  1  0.88632409  0.35609291  0.98869554  1
  H+  H223  1  0.36808240  0.36295405  0.66863854  1
  H+  H224  1  0.61575992  1.03838308  0.52905405  1
  H+  H225  1  0.64122330  0.85942155  1.00076188  1
  H+  H226  1  -0.00632188  0.37597459  0.68207655  1
  H+  H227  1  0.13921693  0.35292531  0.83760508  1
  H+  H228  1  0.58170897  0.98646423  0.82227228  1
  H+  H229  1  0.16079458  0.07901395  0.90836310  1
  H+  H230  1  0.89330033  0.84158398  0.66390165  1
  H+  H231  1  0.87715472  1.01678639  0.67377955  1
  H+  H232  1  0.26595497  0.96929964  0.44673943  1
  H+  H233  1  0.15555798  0.78578698  0.97989025  1
  H+  H234  1  0.61183593  0.38016738  0.83142469  1
  H+  H235  1  0.40740602  0.50279412  0.34762245  1
  H+  H236  1  0.78457512  0.61085162  0.67617687  1
  H+  H237  1  1.03079013  0.13359677  0.83456094  1
  H+  H238  1  0.29658821  0.63492062  1.00764443  1
  H+  H239  1  0.28263242  0.63148854  0.81333875  1
  H+  H240  1  0.63745398  0.60525919  0.16732182  1
  H+  H241  1  0.28396881  0.12073869  0.86924571  1
  H+  H242  1  0.87051342  0.48175937  0.15930770  1
  H+  H243  1  0.88911177  0.86130497  0.16793945  1
  H+  H244  1  0.36777781  0.71874665  0.15805142  1
  H+  H245  1  0.24502521  0.86484915  0.83149252  1
  H+  H246  1  0.64342009  0.27114586  0.32293390  1
  H+  H247  1  0.85077878  0.72161347  0.81614354  1
  H+  H248  1  0.97515420  0.84438442  0.31868069  1
  H+  H249  1  0.63783184  0.51589423  0.17003364  1
  H+  H250  1  0.44679355  0.05485867  0.87779519  1
  H+  H251  1  0.34731533  0.43062318  0.43819613  1
  H+  H252  1  0.88036119  0.56661055  0.92613950  1
  H+  H253  1  0.36199477  0.39659081  0.49969496  1
  H+  H254  1  0.02996892  0.64509845  0.66951355  1
  H+  H255  1  0.08619749  0.16520542  0.77038123  1
  H+  H256  1  0.65152108  0.09815771  0.60807901  1
  H+  H257  1  0.95197341  0.22189484  0.43880741  1
  H+  H258  1  0.07062536  0.40092603  0.06824746  1
  H+  H259  1  0.68857756  0.88334807  0.51633194  1
  H+  H260  1  0.12393641  0.46772140  0.83628470  1
  H+  H261  1  0.72652079  0.36940081  0.50184531  1
  H+  H262  1  0.60727130  0.96607076  0.15594257  1
  H+  H263  1  0.16618267  0.02697331  0.64185517  1
  H+  H264  1  0.64175454  0.27226130  0.83540161  1
  H+  H265  1  0.63166060  0.13251939  0.52193697  1
  H+  H266  1  0.63713135  0.86700008  0.77072863  1
  H+  H267  1  0.42889882  0.33070207  0.59498426  1
  H+  H268  1  0.86849934  0.51655114  0.83833156  1
  H+  H269  1  0.64462158  0.36191722  0.32301457  1
  H+  H270  1  0.78470471  0.88163372  0.83468718  1
  H+  H271  1  0.84516428  0.46111814  0.00309306  1
  H+  H272  1  0.63862936  0.36789168  0.66099249  1
  H+  H273  1  0.72217719  0.35400288  -0.00451000  1
  H+  H274  1  0.44080452  0.61748682  0.53503767  1
  H+  H275  1  0.12320896  0.72662468  0.82115153  1
  H+  H276  1  0.60927421  0.38340104  0.49087841  1
  H+  H277  1  0.82683175  0.66039496  0.43101082  1
  H+  H278  1  0.86945881  0.96809388  0.32016809  1
  H+  H279  1  0.89993788  0.76252118  0.50629695  1
  H+  H280  1  0.61120419  0.22608283  -0.00085056  1
  H+  H281  1  0.20842624  0.62703790  0.33948437  1
  H+  H282  1  0.15151873  0.48938736  0.68397607  1
  H+  H283  1  0.20768876  0.10794878  1.00250053  1
  H+  H284  1  0.27606330  0.89289586  -0.00756502  1
  H+  H285  1  0.15885452  0.76622698  0.51692403  1
  H+  H286  1  0.13067247  0.26805795  0.34635272  1
  H+  H287  1  0.16591458  0.59345887  0.97979031  1
  H+  H288  1  0.14857166  0.31148415  0.99412302  1
  H+  H289  1  0.30605100  0.89682152  0.74680313  1
  H+  H290  1  0.41678058  0.33228183  0.94029259  1
  H+  H291  1  0.09723779  0.66605426  0.76259294  1
  H+  H292  1  0.93035560  0.08381167  0.90104883  1
  H+  H293  1  0.91160075  0.58122096  0.23719731  1
  H+  H294  1  0.41104799  0.08928962  0.27241218  1
  H+  H295  1  0.93399405  0.82362788  0.56510734  1
  H+  H296  1  0.27356301  0.14731805  0.47202122  1
  H+  H297  1  0.61055715  0.71799948  0.01111292  1
  H+  H298  1  0.92009491  0.71662635  0.66608445  1
  H+  H299  1  0.34646860  0.67290915  0.07925865  1
  H+  H300  1  0.78010379  0.88677740  0.01053616  1
  H+  H301  1  0.92520697  0.89441962  0.46544582  1
  H+  H302  1  0.33013369  0.67011746  0.38661555  1
  H+  H303  1  0.84162979  0.16027058  0.38628427  1
  H+  H304  1  0.89016352  0.31822241  0.55314574  1
  H+  H305  1  0.82460645  0.17434895  0.76615910  1
  H+  H306  1  0.66810748  0.34151834  0.59936607  1
  H+  H307  1  0.66772269  0.57618252  0.25764767  1
  H+  H308  1  0.08916243  0.88915881  0.39388720  1
  H+  H309  1  0.83042953  0.41319912  0.76402115  1
  H+  H310  1  0.11321502  0.42242978  0.77272689  1
  H+  H311  1  0.41700484  0.59486885  0.22527002  1
  H+  H312  1  0.49136111  0.61776569  0.42764109  1
  H+  H313  1  0.23540335  0.86601504  0.50898813  1
  H+  H314  1  0.91524072  0.82385501  0.22593338  1
  H+  H315  1  0.91549862  0.32705121  0.22560940  1
  H+  H316  1  0.65357079  0.85111613  0.85771798  1
  H+  H317  1  0.07477748  0.41550055  0.40312398  1
  H+  H318  1  0.33946765  0.66313888  0.75262879  1
  H+  H319  1  0.07866174  0.78269879  0.86505086  1
  H+  H320  1  0.54944250  0.94585778  0.45489327  1
  H+  H321  1  0.31909967  0.18372386  0.74396629  1
  H+  H322  1  0.39181308  0.81786903  0.59994807  1
  H+  H323  1  0.67445900  0.09042297  0.90136059  1
  H+  H324  1  0.85232185  0.90912618  0.37603098  1
  H+  H325  1  0.66808181  0.07855786  0.26203520  1
  H+  H326  1  0.62239173  0.60265886  0.99691819  1
  H+  H327  1  0.52044345  0.13837376  0.00021025  1
  H+  H328  1  0.40184564  0.12231641  0.54974983  1
  H+  H329  1  0.92765709  0.15334148  0.52183636  1
  H+  H330  1  0.40875801  0.82374101  0.92916748  1
  H+  H331  1  0.17164175  0.31010080  0.24921989  1
  H+  H332  1  0.13601339  0.07531620  0.24654310  1
  H+  H333  1  0.91279312  0.09126098  0.62235644  1
  H+  H334  1  0.33995509  0.19205708  0.38299411  1
  H+  H335  1  0.20147026  0.54116873  0.94398143  1
  H+  H336  1  0.84468612  0.91792412  0.09693335  1
  H+  H337  1  0.38362697  0.10993535  0.94267187  1
  H+  H338  1  0.18549429  0.07474509  0.57790563  1
  H+  H339  1  0.58923033  0.17218735  0.43385879  1
  H+  H340  1  0.09565729  0.92736176  0.72866046  1
  H+  H341  1  0.65730851  0.57111721  0.90721754  1
  H+  H342  1  0.78681945  0.64931812  0.76659720  1
  H+  H343  1  0.57405881  0.65162362  0.06581383  1
  H+  H344  1  0.01145327  0.64466740  0.07499401  1
  H+  H345  1  0.51338875  0.59198680  0.43414914  1
  H+  H346  1  0.59347883  0.41517700  0.39384969  1
  H+  H347  1  0.91817121  0.82461853  0.89132261  1
  H+  H348  1  0.83730327  0.90711157  0.73639694  1
  H+  H349  1  0.59455282  0.89356106  0.37912607  1
  H+  H350  1  0.48878843  0.59648745  0.67049559  1
  H+  H351  1  0.29572184  0.17720993  0.11821773  1
  H+  H352  1  0.83148527  0.41164327  0.39189118  1
  H+  H353  1  0.36462480  0.52738536  0.51201428  1
  H+  H354  1  0.89243708  0.02580023  0.99470504  1
  H+  H355  1  0.33267078  0.15041021  0.74318604  1
  H+  H356  1  0.16733304  0.84107605  0.92046985  1
  H+  H357  1  0.32894872  0.90124605  0.08649180  1
  H+  H358  1  0.37116337  0.62935405  0.15257649  1
  H+  H359  1  0.09721835  0.96768506  0.00201685  1
  H+  H360  1  0.33342912  0.40925606  0.11738278  1
  H+  H361  1  0.42392814  0.22721964  0.08031623  1
  H+  H362  1  0.66603760  0.33044616  0.93407373  1
  H+  H363  1  0.61127144  0.38355547  0.01086718  1
  H+  H364  1  0.01793593  0.60642912  0.07950949  1
  H+  H365  1  0.63631876  0.11093393  0.99145180  1
  H+  H366  1  0.93484022  0.58727247  0.54532429  1
  H+  H367  1  0.35100891  0.52962210  0.29084239  1
  H+  H368  1  0.59713228  0.16869744  0.08923600  1
  H+  H369  1  0.10217706  0.66785167  0.35364724  1
  H+  H370  1  0.58398830  0.41311383  0.73961579  1
  H+  H371  1  0.99006801  0.86162576  0.66248988  1
  H+  H372  1  0.67502266  0.82394149  0.94726049  1
  H+  H373  1  0.15761998  0.56739413  0.59892994  1
  H+  H374  1  0.43601971  0.02187851  0.61078337  1
  H+  H375  1  0.57435017  0.40628616  0.10952917  1
  H+  H376  1  0.17810203  0.83301405  0.59926850  1
  H+  H377  1  0.83025228  0.41020023  0.06543672  1
  H+  H378  1  0.65877729  0.85189237  0.61526773  1
  H+  H379  1  0.43884096  0.57961688  0.90867329  1
  H+  H380  1  0.10522234  1.00401502  0.18264745  1
  H+  H381  1  0.10944055  0.46717814  0.50428491  1
  H+  H382  1  0.83422832  0.11979945  0.09889141  1
  H+  H383  1  0.21989045  0.55149915  0.53831696  1
  O2-  O384  1  0.06752526  0.17596936  0.13409035  1
  O2-  O385  1  0.08644522  0.15252027  0.44084058  1
  O2-  O386  1  0.09291616  0.16765336  0.81712660  1
  O2-  O387  1  0.07659654  0.40933786  0.13731393  1
  O2-  O388  1  0.07089652  0.40623657  0.48413169  1
  O2-  O389  1  0.09409009  0.41048667  0.81744674  1
  O2-  O390  1  0.09947172  0.68051570  0.19485668  1
  O2-  O391  1  0.11849014  0.66832549  0.50495122  1
  O2-  O392  1  0.10227134  0.66625293  0.80752192  1
  O2-  O393  1  0.08463467  0.93163521  0.16120674  1
  O2-  O394  1  0.09452771  0.89785677  0.47014740  1
  O2-  O395  1  0.08718446  0.92164851  0.80643835  1
  O2-  O396  1  0.27786729  0.16705384  0.16109150  1
  O2-  O397  1  0.33398148  0.18872506  0.45972183  1
  O2-  O398  1  0.34719752  0.14736423  0.87723990  1
  O2-  O399  1  0.34214150  0.42575159  0.16267955  1
  O2-  O400  1  0.32937743  0.42277154  0.48176378  1
  O2-  O401  1  0.32664535  0.39274130  0.80750600  1
  O2-  O402  1  0.33916685  0.66077004  0.13756018  1
  O2-  O403  1  0.31886501  0.67101569  0.46611780  1
  O2-  O404  1  0.34313985  0.66229392  0.79878844  1
  O2-  O405  1  0.33033979  0.89556631  0.13207391  1
  O2-  O406  1  0.30885101  0.95690424  0.46340657  1
  O2-  O407  1  0.30462334  0.89104643  0.81531980  1
  O2-  O408  1  0.60832770  0.17147715  0.13442563  1
  O2-  O409  1  0.58627451  0.17741194  0.47901605  1
  O2-  O410  1  0.59741837  0.16692494  0.80099905  1
  O2-  O411  1  0.57711406  0.40783211  0.15484765  1
  O2-  O412  1  0.57791694  0.41275882  0.47484521  1
  O2-  O413  1  0.57735261  0.40659707  0.81756992  1
  O2-  O414  1  0.58333052  0.65474400  0.14307275  1
  O2-  O415  1  0.56402067  0.69012749  0.53337812  1
  O2-  O416  1  0.59945518  0.67356602  0.82066940  1
  O2-  O417  1  0.57802010  0.90721232  0.13774254  1
  O2-  O418  1  0.54688152  0.93672990  0.49858680  1
  O2-  O419  1  0.52784244  0.94736549  0.80130811  1
  O2-  O420  1  0.80236147  0.07409846  0.12985340  1
  O2-  O421  1  0.89665608  0.19314308  0.45960775  1
  O2-  O422  1  0.82936479  0.18134206  0.81333987  1
  O2-  O423  1  0.83827472  0.42279997  0.14137203  1
  O2-  O424  1  0.82645564  0.41253943  0.46983184  1
  O2-  O425  1  0.83174017  0.41410350  0.80957345  1
  O2-  O426  1  0.83596688  0.66235698  0.14062081  1
  O2-  O427  1  0.83769432  0.66090710  0.47601783  1
  O2-  O428  1  0.81446634  0.65889964  0.80714795  1
  O2-  O429  1  0.84003295  0.91632425  0.14262184  1
  O2-  O430  1  0.91709256  0.93817680  0.44402559  1
  O2-  O431  1  0.84159864  0.91361961  0.81434438  1
  O2-  O432  1  0.12725962  0.07282889  0.20068468  1
  O2-  O433  1  0.16937521  0.07255281  0.49397455  1
  O2-  O434  1  0.17441060  0.08072613  0.86380483  1
  O2-  O435  1  0.18035054  0.29590834  0.20713230  1
  O2-  O436  1  0.16026448  0.31365838  0.50821040  1
  O2-  O437  1  0.16754295  0.31776871  0.84698844  1
  O2-  O438  1  0.16884183  0.56790297  0.19222273  1
  O2-  O439  1  0.16656264  0.55237794  0.53250196  1
  O2-  O440  1  0.18774097  0.59978311  0.85256405  1
  O2-  O441  1  0.20594754  0.90867728  0.21652242  1
  O2-  O442  1  0.17864369  0.82864660  0.52818715  1
  O2-  O443  1  0.13912262  0.82141156  0.85564579  1
  O2-  O444  1  0.34472324  0.06720299  0.20574430  1
  O2-  O445  1  0.41827322  0.11368720  0.50798977  1
  O2-  O446  1  0.42761015  0.05906613  0.83715098  1
  O2-  O447  1  0.42185564  0.33959971  0.21812129  1
  O2-  O448  1  0.41663730  0.34176483  0.51996729  1
  O2-  O449  1  0.41389448  0.32180410  0.86219348  1
  O2-  O450  1  0.42155067  0.59048946  0.17881315  1
  O2-  O451  1  0.37849054  0.58461879  0.52826494  1
  O2-  O452  1  0.42314082  0.57034349  0.80957218  1
  O2-  O453  1  0.41431145  0.81776509  0.18263066  1
  O2-  O454  1  0.37049651  0.82439753  0.52661697  1
  O2-  O455  1  0.39358051  0.81715299  0.85209147  1
  O2-  O456  1  0.66848203  0.06963871  0.18451567  1
  O2-  O457  1  0.65288985  0.09793249  0.54403960  1
  O2-  O458  1  0.67878635  0.09397067  0.85561786  1
  O2-  O459  1  0.67395663  0.33719547  0.18508038  1
  O2-  O460  1  0.66687694  0.34163783  0.51899216  1
  O2-  O461  1  0.66910785  0.33022719  0.85421049  1
  O2-  O462  1  0.67142444  0.57808492  0.18170521  1
  O2-  O463  1  0.68499788  0.56023404  0.54314949  1
  O2-  O464  1  0.65674482  0.56883199  0.86150734  1
  O2-  O465  1  0.66957672  0.82675627  0.16896089  1
  O2-  O466  1  0.63177768  0.85761162  0.53486781  1
  O2-  O467  1  0.68236103  0.82064985  0.87186157  1
  O2-  O468  1  0.86801594  0.07633878  0.17008218  1
  O2-  O469  1  0.95814234  0.13660523  0.55199941  1
  O2-  O470  1  0.93846984  0.08431537  0.85606333  1
  O2-  O471  1  0.91199445  0.32368690  0.18066595  1
  O2-  O472  1  0.90586546  0.32917522  0.50858008  1
  O2-  O473  1  0.92239812  0.33602593  0.85059711  1
  O2-  O474  1  0.92152650  0.58398841  0.19203881  1
  O2-  O475  1  0.92859407  0.58220048  0.50137469  1
  O2-  O476  1  0.88915233  0.57339842  0.85813958  1
  O2-  O477  1  0.91875610  0.82881495  0.18048598  1
  O2-  O478  1  0.93796992  0.82295606  0.52005172  1
  O2-  O479  1  0.91878483  0.82413206  0.84556048  1
  O2-  O480  1  0.15900032  0.07499516  0.31782514  1
  O2-  O481  1  0.20690338  0.07994278  0.61992543  1
  O2-  O482  1  0.15085436  0.08190324  0.98427916  1
  O2-  O483  1  0.16161255  0.32538449  0.32710653  1
  O2-  O484  1  0.16980251  0.31963217  0.64005079  1
  O2-  O485  1  0.18998569  0.37256779  0.98541423  1
  O2-  O486  1  0.14743120  0.60454804  0.34921490  1
  O2-  O487  1  0.16015550  0.58021522  0.64583013  1
  O2-  O488  1  0.20446172  0.56913045  0.98236979  1
  O2-  O489  1  0.13664922  0.85273801  0.32677729  1
  O2-  O490  1  0.17300554  0.83182137  0.64577404  1
  O2-  O491  1  0.17890866  0.84595204  0.96776981  1
  O2-  O492  1  0.42721784  0.09766035  0.31583599  1
  O2-  O493  1  0.43398884  0.04438216  0.65075733  1
  O2-  O494  1  0.40422448  0.09541689  0.98045660  1
  O2-  O495  1  0.42968744  0.34643030  0.28439008  1
  O2-  O496  1  0.42877566  0.31777099  0.63947860  1
  O2-  O497  1  0.41827962  0.33353152  0.98569017  1
  O2-  O498  1  0.40095339  0.58689989  0.29573574  1
  O2-  O499  1  0.42808580  0.56475126  0.68402761  1
  O2-  O500  1  0.42073791  0.58757221  0.94864711  1
  O2-  O501  1  0.41541438  0.83011008  0.30285206  1
  O2-  O502  1  0.40123487  0.81244742  0.64423421  1
  O2-  O503  1  0.41533921  0.83122880  0.97448834  1
  O2-  O504  1  0.66711022  0.07828609  0.30756400  1
  O2-  O505  1  0.64950454  0.08977928  0.65712082  1
  O2-  O506  1  0.66988794  0.08397275  0.97717532  1
  O2-  O507  1  0.67336860  0.33006218  0.30526529  1
  O2-  O508  1  0.67122073  0.34113757  0.64448615  1
  O2-  O509  1  0.66152144  0.32709712  0.97936487  1
  O2-  O510  1  0.66201690  0.57738490  0.30309757  1
  O2-  O511  1  0.65379064  0.66343013  0.61835854  1
  O2-  O512  1  0.65381985  0.57169011  0.98344902  1
  O2-  O513  1  0.66953409  0.82484599  0.29160799  1
  O2-  O514  1  0.66431804  0.84429048  0.65917902  1
  O2-  O515  1  0.67240124  0.82764961  0.99265382  1
  O2-  O516  1  0.92779692  0.07087425  0.31340339  1
  O2-  O517  1  0.89987369  0.07957242  0.66653668  1
  O2-  O518  1  0.92098920  0.08527469  0.97797085  1
  O2-  O519  1  0.91964909  0.32942219  0.30803971  1
  O2-  O520  1  0.85052313  0.29671273  0.61999141  1
  O2-  O521  1  0.91567634  0.32674742  0.97121807  1
  O2-  O522  1  0.90704011  0.58178129  0.31332846  1
  O2-  O523  1  0.91029117  0.65761606  0.67433871  1
  O2-  O524  1  0.87677913  0.56312752  0.97350287  1
  O2-  O525  1  0.91582432  0.81732819  0.30262206  1
  O2-  O526  1  0.93017723  0.81909550  0.64857523  1
  O2-  O527  1  0.91076534  0.82783120  0.96825060  1
  O2-  O528  1  0.08923061  0.17622362  0.01678751  1
  O2-  O529  1  0.08614553  0.15482660  0.37293351  1
  O2-  O530  1  0.07358842  0.16326520  0.70129584  1
  O2-  O531  1  0.06249029  0.39489745  0.02186825  1
  O2-  O532  1  0.08097894  0.42117530  0.35817436  1
  O2-  O533  1  0.15654203  0.44570704  0.70874771  1
  O2-  O534  1  0.11547271  0.66103821  -0.02682688  1
  O2-  O535  1  0.06780160  0.69780235  0.35706065  1
  O2-  O536  1  0.09006456  0.66927170  0.68149078  1
  O2-  O537  1  0.06878736  0.90509815  0.00961642  1
  O2-  O538  1  0.08603229  0.89211575  0.34797077  1
  O2-  O539  1  0.09450258  0.92431553  0.68302062  1
  O2-  O540  1  0.37488102  0.20062971  0.05279818  1
  O2-  O541  1  0.34119443  0.18454682  0.33781134  1
  O2-  O542  1  0.37245681  0.14218164  0.61973363  1
  O2-  O543  1  0.31660307  0.38865735  0.04993992  1
  O2-  O544  1  0.40193893  0.45254612  0.36919088  1
  O2-  O545  1  0.33453036  0.38940719  0.68452485  1
  O2-  O546  1  0.35170268  0.67944934  0.02827911  1
  O2-  O547  1  0.33032795  0.67289741  0.34142708  1
  O2-  O548  1  0.33201824  0.65591198  0.67957654  1
  O2-  O549  1  0.33606707  0.92081838  0.01061740  1
  O2-  O550  1  0.35553534  0.92966871  0.35866555  1
  O2-  O551  1  0.31101661  0.90167949  0.70004496  1
  O2-  O552  1  0.58070426  0.16443025  0.01424512  1
  O2-  O553  1  0.59184569  0.16720113  0.35508663  1
  O2-  O554  1  0.60841527  0.13760260  0.67996500  1
  O2-  O555  1  0.58057558  0.41148683  0.02886573  1
  O2-  O556  1  0.60200673  0.41334931  0.34961559  1
  O2-  O557  1  0.59214434  0.42277610  0.69462164  1
  O2-  O558  1  0.57646011  0.65541417  0.02036275  1
  O2-  O559  1  0.56241163  0.65433103  0.31660216  1
  O2-  O560  1  0.60546719  0.67053620  0.66297748  1
  O2-  O561  1  0.58570772  0.91676878  0.01509963  1
  O2-  O562  1  0.59059674  0.90308582  0.33601816  1
  O2-  O563  1  0.56523980  0.91863703  0.68637883  1
  O2-  O564  1  0.83740928  0.16503444  0.02517276  1
  O2-  O565  1  0.83700365  0.15788707  0.34144470  1
  O2-  O566  1  0.81420758  0.15861949  0.69931825  1
  O2-  O567  1  0.82344753  0.40250645  0.01996974  1
  O2-  O568  1  0.83648433  0.41453817  0.34656264  1
  O2-  O569  1  0.82321673  0.41202528  0.68682326  1
  O2-  O570  1  0.81863400  0.66553931  0.01896690  1
  O2-  O571  1  0.81851566  0.65858387  0.35512988  1
  O2-  O572  1  0.73110180  0.60003539  0.69633826  1
  O2-  O573  1  0.84268260  0.91888802  0.02098983  1
  O2-  O574  1  0.83668794  0.90467930  0.33225167  1
  O2-  O575  1  0.83814941  0.90700883  0.69076296  1
