# generated using pymatgen
data_H2O
_symmetry_space_group_name_H-M   'P 1'
_cell_length_a   17.98972454
_cell_length_b   17.99933610
_cell_length_c   22.02322885
_cell_angle_alpha   89.99157617
_cell_angle_beta   90.00606741
_cell_angle_gamma   119.98630053
_symmetry_Int_Tables_number   1
_chemical_formula_structural   H2O
_chemical_formula_sum   'H384 O192'
_cell_volume   6176.64376233
_cell_formula_units_Z   192
loop_
 _symmetry_equiv_pos_site_id
 _symmetry_equiv_pos_as_xyz
  1  'x, y, z'
loop_
 _atom_type_symbol
 _atom_type_oxidation_number
  H+  1.0
  O2-  -2.0
loop_
 _atom_site_type_symbol
 _atom_site_label
 _atom_site_symmetry_multiplicity
 _atom_site_fract_x
 _atom_site_fract_y
 _atom_site_fract_z
 _atom_site_occupancy
  H+  H0  1  0.86523940  0.64242951  0.67829883  1
  H+  H1  1  0.38212153  0.03409501  0.53538108  1
  H+  H2  1  0.18899499  1.05540682  -0.00079175  1
  H+  H3  1  0.27423615  0.11786799  0.81536898  1
  H+  H4  1  0.59287784  0.15988443  0.08117276  1
  H+  H5  1  0.27600861  0.39585397  0.68220534  1
  H+  H6  1  1.02926124  0.14134468  0.82654900  1
  H+  H7  1  0.10367900  0.63613198  0.82719855  1
  H+  H8  1  0.88380179  0.27913601  0.50547753  1
  H+  H9  1  0.68750373  0.50683252  0.52088343  1
  H+  H10  1  0.62950624  0.78682825  0.67468697  1
  H+  H11  1  0.30864240  0.87052636  0.65419631  1
  H+  H12  1  0.27349269  0.63787419  0.67645103  1
  H+  H13  1  0.70739310  0.58818451  0.32310018  1
  H+  H14  1  0.87690727  0.86190689  0.14514997  1
  H+  H15  1  0.19691988  0.61301334  0.33423558  1
  H+  H16  1  0.51990643  0.89221154  0.83988188  1
  H+  H17  1  0.86530600  0.89129111  0.82888063  1
  H+  H18  1  0.61787374  0.14340386  0.68759624  1
  H+  H19  1  0.14759484  0.76977509  0.51410712  1
  H+  H20  1  0.16364446  0.04196860  0.34812678  1
  H+  H21  1  0.86406019  0.89010477  0.48918335  1
  H+  H22  1  0.63631172  0.87193480  0.84086290  1
  H+  H23  1  0.88352108  0.02600600  0.66334248  1
  H+  H24  1  0.53303032  0.63830763  0.15451630  1
  H+  H25  1  0.87251672  0.24374847  0.84762429  1
  H+  H26  1  0.62696654  0.50595841  0.66437506  1
  H+  H27  1  0.91206055  0.62842239  0.51261565  1
  H+  H28  1  0.46946836  0.11284180  0.17653541  1
  H+  H29  1  0.86977251  0.73447543  0.99359610  1
  H+  H30  1  0.61383339  0.89446461  0.16036954  1
  H+  H31  1  0.63055897  0.78182853  0.32338536  1
  H+  H32  1  0.60503158  0.58100854  0.49446563  1
  H+  H33  1  0.60977140  0.89338739  0.34144045  1
  H+  H34  1  0.38783142  0.26222167  0.32628292  1
  H+  H35  1  0.14017056  0.27845861  0.66360756  1
  H+  H36  1  0.72190231  0.84397010  0.98226955  1
  H+  H37  1  0.86078191  0.36006267  0.33875109  1
  H+  H38  1  0.23475889  0.36870733  0.51257972  1
  H+  H39  1  0.22168383  0.86395899  0.33005297  1
  H+  H40  1  0.39410756  0.62365876  0.99632738  1
  H+  H41  1  0.84871689  0.13680533  0.16896874  1
  H+  H42  1  0.36250490  0.88967721  0.82965352  1
  H+  H43  1  0.37995071  0.11291464  0.17428890  1
  H+  H44  1  0.13169219  1.01373497  0.16637717  1
  H+  H45  1  0.63816066  0.62825575  0.83210453  1
  H+  H46  1  0.72194098  0.12184099  0.51112304  1
  H+  H47  1  0.62442576  0.65986815  0.68941163  1
  H+  H48  1  0.07396560  0.17306790  0.36881665  1
  H+  H49  1  0.52015946  0.64704402  0.83208214  1
  H+  H50  1  1.04028047  0.64447058  0.50394592  1
  H+  H51  1  0.64005142  0.22766426  0.02862781  1
  H+  H52  1  0.88782919  0.36431731  0.17124322  1
  H+  H53  1  0.44674824  0.33100342  -0.00420861  1
  H+  H54  1  0.86415063  0.38921075  0.66647971  1
  H+  H55  1  0.87256411  0.02356443  0.33818848  1
  H+  H56  1  0.13840457  0.39719461  0.01414140  1
  H+  H57  1  0.51590908  0.12935272  0.34309007  1
  H+  H58  1  0.41651477  0.65849224  0.30993289  1
  H+  H59  1  0.18084644  0.87600346  0.98365466  1
  H+  H60  1  0.88381545  0.03673604  0.99445026  1
  H+  H61  1  0.92541261  0.85132433  0.55758588  1
  H+  H62  1  0.13702818  1.01858757  0.83129686  1
  H+  H63  1  0.86713701  0.48018417  0.67269380  1
  H+  H64  1  0.33366363  0.21138018  0.00054185  1
  H+  H65  1  0.76253837  0.87702646  0.15146216  1
  H+  H66  1  0.26855997  0.13212301  0.35238509  1
  H+  H67  1  0.98345213  0.62000964  0.67092147  1
  H+  H68  1  0.63691009  0.02961706  0.33341653  1
  H+  H69  1  0.60924524  0.56701351  0.30983399  1
  H+  H70  1  0.84679251  -0.03424758  0.15719117  1
  H+  H71  1  0.44904323  0.87320607  0.66872981  1
  H+  H72  1  0.57233989  0.55841200  0.51933139  1
  H+  H73  1  0.17511141  0.34598160  0.60851870  1
  H+  H74  1  0.12752164  0.97379983  0.67011569  1
  H+  H75  1  0.12671808  0.07591992  0.48700084  1
  H+  H76  1  0.65816198  0.33546817  0.92405235  1
  H+  H77  1  0.37941632  0.61240739  0.30874085  1
  H+  H78  1  0.36933177  0.47597619  0.16197400  1
  H+  H79  1  0.62793155  0.02659736  0.67046856  1
  H+  H80  1  0.13947019  0.48518894  1.02035684  1
  H+  H81  1  0.77519738  0.63814437  0.67728599  1
  H+  H82  1  0.60972352  0.73959703  0.82812701  1
  H+  H83  1  0.24858744  0.58409156  0.15076707  1
  H+  H84  1  0.56869376  0.46112426  0.47894698  1
  H+  H85  1  0.59150451  0.89514851  0.68851112  1
  H+  H86  1  0.13268435  0.90347735  0.34489745  1
  H+  H87  1  0.84138470  0.59663810  0.34507467  1
  H+  H88  1  0.16029652  0.83492749  0.27117392  1
  H+  H89  1  0.89978111  0.89359708  0.65424652  1
  H+  H90  1  0.10727677  0.60527027  0.32891349  1
  H+  H91  1  0.11848403  0.88263058  0.82646995  1
  H+  H92  1  0.13950849  0.29221497  0.51737961  1
  H+  H93  1  0.58731856  0.65949216  0.09235280  1
  H+  H94  1  0.35110197  0.39835196  0.44128687  1
  H+  H95  1  0.48334380  0.86557212  0.51923960  1
  H+  H96  1  0.82502222  0.16925450  0.44141232  1
  H+  H97  1  0.86132068  0.22576806  0.67332255  1
  H+  H98  1  0.13767736  0.52265482  0.66046491  1
  H+  H99  1  0.62329285  0.89893285  0.50367582  1
  H+  H100  1  0.33853911  0.65690637  0.06696625  1
  H+  H101  1  0.77225136  0.13639238  0.67452133  1
  H+  H102  1  0.13911004  0.35855863  0.18100348  1
  H+  H103  1  0.15055877  0.62021696  0.50728757  1
  H+  H104  1  0.61775700  0.13214396  0.49884599  1
  H+  H105  1  0.71173630  0.36094244  0.51129179  1
  H+  H106  1  0.14139650  0.85771677  0.51393340  1
  H+  H107  1  0.35743106  0.56620878  0.52497153  1
  H+  H108  1  0.27043928  0.14076307  0.49498083  1
  H+  H109  1  0.51264303  0.59499629  0.32620672  1
  H+  H110  1  0.65210458  0.37479199  0.83733267  1
  H+  H111  1  0.59175279  0.37345866  0.00300680  1
  H+  H112  1  0.38457686  0.61644176  0.84368007  1
  H+  H113  1  0.03955195  0.14929690  0.16325445  1
  H+  H114  1  0.53376931  0.14341463  0.83724538  1
  H+  H115  1  0.11261052  0.89215056  0.16334725  1
  H+  H116  1  0.46547719  0.35259811  0.16820326  1
  H+  H117  1  0.28619010  0.39227733  0.83353698  1
  H+  H118  1  0.27128430  0.64015717  0.82873053  1
  H+  H119  1  0.98438412  0.11355294  0.99647562  1
  H+  H120  1  0.60080290  0.46515946  0.15555567  1
  H+  H121  1  0.38494530  0.77552162  0.84762491  1
  H+  H122  1  -0.01326715  0.63902049  0.83053069  1
  H+  H123  1  0.13026331  0.73026852  0.67315714  1
  H+  H124  1  0.43428773  0.49868682  0.32355622  1
  H+  H125  1  0.35910760  0.89765817  0.35577622  1
  H+  H126  1  0.36612775  0.64564965  0.67858547  1
  H+  H127  1  0.81745177  0.40550762  0.10483786  1
  H+  H128  1  0.27523058  0.39076632  0.00497340  1
  H+  H129  1  0.58918373  0.45947883  0.00740031  1
  H+  H130  1  0.22816911  0.67790128  0.20046798  1
  H+  H131  1  0.39058103  0.38030500  0.66038573  1
  H+  H132  1  0.23110805  0.36214143  0.17964239  1
  H+  H133  1  0.62384439  0.48768373  0.82009598  1
  H+  H134  1  1.02287643  0.13922995  0.66992693  1
  H+  H135  1  0.35134035  0.28881964  0.50061341  1
  H+  H136  1  0.63867107  1.03060744  0.17971601  1
  H+  H137  1  0.60931188  0.22543964  0.49622397  1
  H+  H138  1  0.37117668  0.77833313  0.66546806  1
  H+  H139  1  0.14390518  0.26933279  0.83955514  1
  H+  H140  1  0.84043523  0.66172251  0.43911017  1
  H+  H141  1  0.12955663  0.23644325  0.17018705  1
  H+  H142  1  0.11531514  0.39540365  0.49516502  1
  H+  H143  1  0.63436366  0.77235395  0.16387598  1
  H+  H144  1  0.13028484  0.77784776  0.17277095  1
  H+  H145  1  0.62634834  0.35227422  0.16979825  1
  H+  H146  1  0.56550873  0.92915623  0.74576313  1
  H+  H147  1  0.83251199  0.42479638  0.82724606  1
  H+  H148  1  0.60505650  0.22318616  0.16528511  1
  H+  H149  1  0.64459177  0.74660326  -0.02120063  1
  H+  H150  1  0.97903858  0.36039851  0.32784651  1
  H+  H151  1  0.77835091  0.65131157  0.82277289  1
  H+  H152  1  0.14753755  0.35926189  0.84499645  1
  H+  H153  1  0.40311822  0.37537384  0.84547188  1
  H+  H154  1  0.15708197  0.27737883  0.99771399  1
  H+  H155  1  0.33401167  0.58084150  0.15670094  1
  H+  H156  1  0.11260142  0.38754039  0.67482285  1
  H+  H157  1  0.43944263  0.64595875  0.21285607  1
  H+  H158  1  0.85484562  0.47093637  0.16029404  1
  H+  H159  1  0.06046272  0.91119124  -0.01864996  1
  H+  H160  1  0.66574518  0.08937476  0.27311598  1
  H+  H161  1  0.15472858  0.87139883  0.65672067  1
  H+  H162  1  0.09966719  0.72967676  0.34452457  1
  H+  H163  1  0.83910685  0.67967793  0.76380465  1
  H+  H164  1  0.58918989  0.26401374  0.96730961  1
  H+  H165  1  0.06241208  0.54109836  0.89693087  1
  H+  H166  1  0.13373952  0.73667940  0.99831407  1
  H+  H167  1  0.36792936  0.37108108  0.34359561  1
  H+  H168  1  0.23559987  0.61340282  0.50806646  1
  H+  H169  1  0.36602251  0.49447381  1.00668759  1
  H+  H170  1  0.52600725  0.89740934  0.36325241  1
  H+  H171  1  0.36721227  0.97991766  0.82816645  1
  H+  H172  1  0.48536101  0.64159096  0.48888431  1
  H+  H173  1  1.01106460  0.63884139  0.35282483  1
  H+  H174  1  0.73526911  0.94931973  0.02146041  1
  H+  H175  1  0.96472467  0.10024800  0.31790660  1
  H+  H176  1  0.63062572  0.34931135  0.33468226  1
  H+  H177  1  -0.01250188  0.43340772  0.79180498  1
  H+  H178  1  1.05406797  0.92106935  0.35453595  1
  H+  H179  1  0.37245641  0.73624225  0.50211897  1
  H+  H180  1  0.39288572  0.10879671  0.83761244  1
  H+  H181  1  0.58429400  0.90263284  0.00174255  1
  H+  H182  1  0.76235150  0.62841823  0.14235873  1
  H+  H183  1  0.87701854  0.61551637  0.15063448  1
  H+  H184  1  0.63595802  0.60899482  0.16348827  1
  H+  H185  1  0.85398548  0.90321797  0.34551928  1
  H+  H186  1  0.11038530  0.64764593  0.15561529  1
  H+  H187  1  0.02946017  0.87749800  0.49610704  1
  H+  H188  1  0.75706659  0.13181918  -0.00186721  1
  H+  H189  1  0.93634409  0.61585741  0.90413057  1
  H+  H190  1  0.60105857  0.60485902  0.99953385  1
  H+  H191  1  0.10197906  0.41242489  0.11052105  1
  H+  H192  1  0.72596481  0.85641344  0.50264398  1
  H+  H193  1  0.91914486  0.83411700  0.37671523  1
  H+  H194  1  0.89303517  0.77860521  0.50457009  1
  H+  H195  1  0.12281866  0.63806388  0.67187788  1
  H+  H196  1  0.84848524  0.68500394  0.33247083  1
  H+  H197  1  0.11482636  0.16649359  0.52769629  1
  H+  H198  1  0.80346366  0.62951753  0.50607530  1
  H+  H199  1  0.15031234  0.37335443  0.33258676  1
  H+  H200  1  0.02640140  0.89523986  0.14798427  1
  H+  H201  1  0.15376731  0.62409876  0.99714262  1
  H+  H202  1  0.38309410  0.02349321  0.32896359  1
  H+  H203  1  0.40211782  0.80351941  0.18024672  1
  H+  H204  1  0.40494247  0.32124959  0.22698188  1
  H+  H205  1  0.65958276  0.12805976  1.00306477  1
  H+  H206  1  0.85845290  0.12230932  0.82609613  1
  H+  H207  1  0.99960994  0.63959496  0.97941063  1
  H+  H208  1  0.32878604  0.65778015  0.34546668  1
  H+  H209  1  0.29263232  0.39371200  0.34747402  1
  H+  H210  1  0.62361064  0.25001191  0.33740721  1
  H+  H211  1  0.90216853  0.53669920  0.52445546  1
  H+  H212  1  0.88931338  0.27004659  0.32791135  1
  H+  H213  1  0.14455931  1.00506822  0.50895731  1
  H+  H214  1  0.55926812  0.74042085  0.48460266  1
  H+  H215  1  0.38836523  0.49882236  0.51815305  1
  H+  H216  1  -0.12233327  0.33445918  0.84346465  1
  H+  H217  1  0.81644560  0.92267648  0.40383664  1
  H+  H218  1  0.14926368  0.78144286  0.83593055  1
  H+  H219  1  0.77144409  0.89388405  0.68056177  1
  H+  H220  1  0.74661014  0.37438368  0.01457427  1
  H+  H221  1  0.72655671  0.36741817  0.66257885  1
  H+  H222  1  0.61712029  0.34999170  0.50792106  1
  H+  H223  1  0.38379590  0.78887203  1.00866955  1
  H+  H224  1  0.11301967  0.48147595  0.49258743  1
  H+  H225  1  0.09157124  0.50412489  0.84449228  1
  H+  H226  1  0.17327861  0.13949148  0.35310604  1
  H+  H227  1  0.09224115  0.67672128  0.44142090  1
  H+  H228  1  0.96394111  0.11338773  0.51114795  1
  H+  H229  1  0.36471299  0.38488736  0.15731675  1
  H+  H230  1  0.35037955  0.21996547  0.15655993  1
  H+  H231  1  0.65856452  0.08430311  0.61003583  1
  H+  H232  1  0.38947239  0.87322162  0.14706484  1
  H+  H233  1  0.60923502  0.45373053  0.33239486  1
  H+  H234  1  0.90636441  0.63712571  -0.01950793  1
  H+  H235  1  0.48897611  0.37114886  0.84643233  1
  H+  H236  1  0.63345094  0.03024306  0.51034829  1
  H+  H237  1  0.83602428  0.37586036  0.01347367  1
  H+  H238  1  0.85754069  0.97633665  0.49577008  1
  H+  H239  1  0.77565786  0.89221018  0.82679527  1
  H+  H240  1  0.37475922  0.13158484  0.35094461  1
  H+  H241  1  1.01960560  0.64340012  0.14717969  1
  H+  H242  1  0.90845161  0.87593281  -0.00905820  1
  H+  H243  1  0.47455100  0.34884245  0.31890045  1
  H+  H244  1  0.64113225  0.12374874  0.85020788  1
  H+  H245  1  0.10400814  0.47318464  0.33908508  1
  H+  H246  1  0.72447541  0.12318402  0.17896370  1
  H+  H247  1  0.74148862  0.60565974  0.97786526  1
  H+  H248  1  0.13877783  0.11364691  0.17064774  1
  H+  H249  1  0.60766316  0.13015127  0.34356012  1
  H+  H250  1  0.22342435  0.10683978  0.65006594  1
  H+  H251  1  0.76892160  0.14211144  0.34582070  1
  H+  H252  1  0.72197158  0.34049837  0.33578703  1
  H+  H253  1  0.37693454  0.78966674  0.37316589  1
  H+  H254  1  0.89331087  0.63847634  0.83483057  1
  H+  H255  1  0.30464971  0.86144352  -0.00867193  1
  H+  H256  1  0.92747196  0.84373520  0.92885399  1
  H+  H257  1  0.52878448  0.90106447  0.14851964  1
  H+  H258  1  0.29116414  0.65066022  0.00665424  1
  H+  H259  1  0.41395033  0.85298887  0.42864589  1
  H+  H260  1  0.35649341  0.98255476  0.16102551  1
  H+  H261  1  0.89370764  0.02550598  0.84115788  1
  H+  H262  1  0.31510296  0.15700127  0.09781761  1
  H+  H263  1  0.42235169  0.58306074  0.61201612  1
  H+  H264  1  0.84950167  0.72074670  0.13664131  1
  H+  H265  1  0.12951907  0.95921353  -0.06854414  1
  H+  H266  1  0.61491141  0.22963388  0.68866280  1
  H+  H267  1  0.87417967  0.48752063  0.34735470  1
  H+  H268  1  0.65107622  0.28526576  0.84157223  1
  H+  H269  1  0.60582498  0.38128569  0.67423672  1
  H+  H270  1  0.85986972  0.39171196  0.50537995  1
  H+  H271  1  0.32416219  0.92659021  0.10039260  1
  H+  H272  1  0.04045636  0.88744072  0.66577605  1
  H+  H273  1  0.60827899  0.98259505  0.84076832  1
  H+  H274  1  0.33012550  0.67021176  0.76973034  1
  H+  H275  1  0.71582354  0.35370592  0.17287348  1
  H+  H276  1  0.98063616  0.86751469  0.83720296  1
  H+  H277  1  0.85756036  0.14130724  0.34950043  1
  H+  H278  1  0.97435790  0.36845336  0.50327075  1
  H+  H279  1  0.36466031  0.48620340  0.68334440  1
  H+  H280  1  0.85257613  0.13767061  0.50092434  1
  H+  H281  1  0.48253003  0.62353552  0.67051515  1
  H+  H282  1  0.41348192  0.08640543  0.27011912  1
  H+  H283  1  0.23047516  0.11082150  0.16665945  1
  H+  H284  1  0.86353291  0.23330478  0.16269628  1
  H+  H285  1  0.11122978  0.13779942  0.67027577  1
  H+  H286  1  0.41451902  0.00323193  0.98808677  1
  H+  H287  1  0.97547740  0.36306521  0.65696203  1
  H+  H288  1  0.85241517  0.41379098  0.75901247  1
  H+  H289  1  0.59527442  0.17348344  0.77909192  1
  H+  H290  1  0.40066580  0.67844769  0.46770370  1
  H+  H291  1  0.34993203  0.16877975  0.41444953  1
  H+  H292  1  0.57015243  0.39768533  0.39417276  1
  H+  H293  1  0.89681198  0.32498572  0.94453414  1
  H+  H294  1  0.88512296  0.11579661  0.66060813  1
  H+  H295  1  0.19276668  0.83463585  0.92498971  1
  H+  H296  1  0.21945212  0.86609187  0.17562562  1
  H+  H297  1  0.67010609  0.82769944  0.89128037  1
  H+  H298  1  0.83271310  0.66652918  0.04872132  1
  H+  H299  1  0.66543525  0.57210686  0.21979564  1
  H+  H300  1  0.40247318  0.31018783  0.93125165  1
  H+  H301  1  0.13754743  0.15238217  0.01603508  1
  H+  H302  1  0.58703697  0.41877200  0.76701969  1
  H+  H303  1  0.17227126  0.58338205  0.60161259  1
  H+  H304  1  0.90431533  0.07864939  0.56931203  1
  H+  H305  1  0.65921823  0.32761584  0.60779562  1
  H+  H306  1  0.28374481  0.90103882  0.49855080  1
  H+  H307  1  0.18238222  0.83761518  0.58713923  1
  H+  H308  1  0.59570481  0.92656805  0.44274353  1
  H+  H309  1  0.55980381  0.68643012  0.40204474  1
  H+  H310  1  0.90200006  0.82357864  0.19995108  1
  H+  H311  1  0.71643505  0.87077858  0.32204736  1
  H+  H312  1  0.18100514  0.34007233  0.27527334  1
  H+  H313  1  0.51805336  0.38717903  0.67040267  1
  H+  H314  1  0.78287373  0.01397579  0.21572386  1
  H+  H315  1  0.34310196  0.42663506  0.77381196  1
  H+  H316  1  0.08787264  0.90720042  0.76551676  1
  H+  H317  1  0.83891365  0.16547950  0.07311798  1
  H+  H318  1  0.93277474  0.84823439  0.30686931  1
  H+  H319  1  0.45314126  0.57214630  0.23788124  1
  H+  H320  1  0.15766137  0.26024105  0.35831540  1
  H+  H321  1  0.51879671  0.61697794  0.00116126  1
  H+  H322  1  0.33737153  0.42939596  0.06977849  1
  H+  H323  1  0.83809546  0.44608327  0.45815777  1
  H+  H324  1  0.40821845  0.83568942  0.90677495  1
  H+  H325  1  0.56607216  0.40060301  0.09971931  1
  H+  H326  1  0.83605987  0.92123032  0.73675466  1
  H+  H327  1  0.71173423  0.55373703  0.58385183  1
  H+  H328  1  0.61878953  0.57428684  0.62205743  1
  H+  H329  1  0.30520855  0.67168408  0.41172393  1
  H+  H330  1  0.88097211  0.28043761  0.00753943  1
  H+  H331  1  0.90521531  0.53642585  0.28644745  1
  H+  H332  1  -0.00419278  0.36637922  0.82744097  1
  H+  H333  1  0.09826878  0.17941150  0.06957890  1
  H+  H334  1  0.87282458  0.06179535  0.24651703  1
  H+  H335  1  0.18585532  0.33323915  0.93574333  1
  H+  H336  1  0.10044756  0.91191431  0.44210038  1
  H+  H337  1  0.87861868  0.14526737  1.01180233  1
  H+  H338  1  0.98278859  0.95737016  0.62055124  1
  H+  H339  1  0.57924826  0.16077417  0.43481836  1
  H+  H340  1  0.41266205  0.35820433  0.59559100  1
  H+  H341  1  0.32853362  0.12587948  0.75654522  1
  H+  H342  1  0.41118380  0.83594404  0.57095478  1
  H+  H343  1  0.68652132  0.10338188  0.93298076  1
  H+  H344  1  0.41422678  0.58623839  0.93489852  1
  H+  H345  1  0.17766439  0.58412289  0.94214675  1
  H+  H346  1  0.72512287  0.11137860  0.84463689  1
  H+  H347  1  0.32304412  0.93484625  0.40238296  1
  H+  H348  1  0.36155647  0.81631167  0.26639467  1
  H+  H349  1  0.92879151  0.59667138  0.61118329  1
  H+  H350  1  0.08175417  0.41639252  0.39941733  1
  H+  H351  1  1.03298941  0.37800074  0.16403503  1
  H+  H352  1  0.67135301  0.59397109  0.88679490  1
  H+  H353  1  0.91913645  0.61846689  0.21262303  1
  H+  H354  1  0.23950200  0.87301388  0.83604911  1
  H+  H355  1  0.69321455  0.51658599  0.94529542  1
  H+  H356  1  0.65267604  0.85126685  0.61881890  1
  H+  H357  1  0.15764380  0.07334792  0.59752001  1
  H+  H358  1  0.42325795  0.08019373  0.89919145  1
  H+  H359  1  0.38922267  0.52909464  0.84358259  1
  H+  H360  1  0.48814597  0.37267463  0.48282734  1
  H+  H361  1  0.60485607  0.13360347  0.17191487  1
  H+  H362  1  0.91474137  0.33375487  0.59867846  1
  H+  H363  1  0.81420172  0.35362965  0.40153421  1
  H+  H364  1  0.14451798  0.10966233  0.83603596  1
  H+  H365  1  0.10898312  0.19028765  0.45812470  1
  H+  H366  1  0.64255811  0.68395134  0.38111139  1
  H+  H367  1  0.88940410  0.78175480  0.83804630  1
  H+  H368  1  0.91837185  0.33444896  0.22986836  1
  H+  H369  1  0.16046901  0.59792266  0.23636134  1
  H+  H370  1  0.09052417  0.67719920  0.05705886  1
  H+  H371  1  0.66020407  0.82995896  0.22490158  1
  H+  H372  1  0.08686195  0.17201588  0.76651021  1
  H+  H373  1  0.09174078  0.67307110  0.76325475  1
  H+  H374  1  0.80043200  0.93301033  0.06039208  1
  H+  H375  1  0.82756446  0.15460380  0.76762595  1
  H+  H376  1  0.39519108  0.86327862  0.26643640  1
  H+  H377  1  0.36180654  0.17210712  0.51908109  1
  H+  H378  1  0.92544395  0.08919926  0.89885516  1
  H+  H379  1  0.06959300  0.41488447  0.72857652  1
  H+  H380  1  0.66829821  0.77904431  0.54531305  1
  H+  H381  1  0.48935766  0.09794697  0.99565750  1
  H+  H382  1  0.58220786  0.68087621  0.74556547  1
  H+  H383  1  0.61234020  0.93229588  0.06983288  1
  O2-  O384  1  0.09970426  0.17568106  0.15146278  1
  O2-  O385  1  0.08356174  0.18309884  0.49959608  1
  O2-  O386  1  0.08993246  0.17321037  0.81161921  1
  O2-  O387  1  0.09501164  0.40342194  0.15579102  1
  O2-  O388  1  0.08147317  0.42060530  0.47815118  1
  O2-  O389  1  0.03229603  0.41851464  0.80126685  1
  O2-  O390  1  0.08166960  0.67714685  0.13663670  1
  O2-  O391  1  0.09995894  0.67620278  0.48637007  1
  O2-  O392  1  0.08571001  0.67506114  0.80860152  1
  O2-  O393  1  0.08980539  0.92823337  0.14578419  1
  O2-  O394  1  0.09249674  0.90332996  0.48710170  1
  O2-  O395  1  0.08315960  0.90760325  0.81024093  1
  O2-  O396  1  0.32020129  0.15800397  0.14394038  1
  O2-  O397  1  0.33134589  0.18402128  0.48602544  1
  O2-  O398  1  0.33357180  0.14019398  0.79947818  1
  O2-  O399  1  0.33691657  0.41902134  0.14322723  1
  O2-  O400  1  0.34397023  0.39542694  0.48718792  1
  O2-  O401  1  0.34601103  0.42981549  0.81934135  1
  O2-  O402  1  0.29638881  0.58636500  0.12737684  1
  O2-  O403  1  0.34779193  0.67769939  0.48111918  1
  O2-  O404  1  0.33104816  0.66925875  0.81565325  1
  O2-  O405  1  0.32396782  0.92213832  0.14471431  1
  O2-  O406  1  0.33820621  0.94080016  0.47732139  1
  O2-  O407  1  0.33216843  0.91896592  0.81421154  1
  O2-  O408  1  0.57330809  0.15984688  0.15239799  1
  O2-  O409  1  0.58406423  0.16376840  0.48091304  1
  O2-  O410  1  0.59642685  0.17493435  0.82553223  1
  O2-  O411  1  0.56725224  0.40308826  0.14522830  1
  O2-  O412  1  0.55029797  0.40073103  0.47080828  1
  O2-  O413  1  0.59711627  0.42532665  0.81177479  1
  O2-  O414  1  0.59228706  0.66787759  0.13760286  1
  O2-  O415  1  0.51180419  0.69326547  0.46180791  1
  O2-  O416  1  0.57969404  0.67718750  0.81474573  1
  O2-  O417  1  0.59347017  0.93384953  0.14658979  1
  O2-  O418  1  0.59307263  0.92788244  0.48826604  1
  O2-  O419  1  0.57953338  0.92394355  0.82277957  1
  O2-  O420  1  0.82746905  0.17153588  0.14853726  1
  O2-  O421  1  0.82391692  0.17005256  0.48689432  1
  O2-  O422  1  0.82322195  0.14850228  0.81280322  1
  O2-  O423  1  0.82646174  0.40929261  0.15084546  1
  O2-  O424  1  0.82598321  0.42247993  0.49916689  1
  O2-  O425  1  0.87238903  0.41631927  0.80197597  1
  O2-  O426  1  0.82190375  0.65922200  0.12442986  1
  O2-  O427  1  0.85459879  0.67428063  0.48259310  1
  O2-  O428  1  0.84025263  0.68125820  0.81029893  1
  O2-  O429  1  0.82271936  0.91081589  0.13461048  1
  O2-  O430  1  0.82861719  0.91685342  0.47780542  1
  O2-  O431  1  0.83697376  0.92304061  0.81282449  1
  O2-  O432  1  0.16695032  0.07905633  0.18266078  1
  O2-  O433  1  0.16416490  0.06789238  0.51500098  1
  O2-  O434  1  0.17205130  0.07662120  0.84890995  1
  O2-  O435  1  0.17307293  0.32935508  0.19804330  1
  O2-  O436  1  0.17712506  0.35370941  0.52787476  1
  O2-  O437  1  0.17738195  0.32929625  0.85791252  1
  O2-  O438  1  0.17906328  0.62066054  0.19415704  1
  O2-  O439  1  0.17528315  0.58433954  0.52171572  1
  O2-  O440  1  0.11172503  0.55721253  0.87034619  1
  O2-  O441  1  0.15960864  0.83600504  0.19212833  1
  O2-  O442  1  0.17641841  0.83162941  0.52987986  1
  O2-  O443  1  0.17721134  0.84033136  0.85304274  1
  O2-  O444  1  0.40878076  0.08296151  0.19238165  1
  O2-  O445  1  0.35282851  0.02605487  0.49616093  1
  O2-  O446  1  0.42829473  0.08408165  0.85416256  1
  O2-  O447  1  0.40347427  0.32365243  0.18182676  1
  O2-  O448  1  0.38935056  0.35173028  0.50992963  1
  O2-  O449  1  0.42977894  0.34345792  0.86235271  1
  O2-  O450  1  0.43959777  0.59426013  0.19930240  1
  O2-  O451  1  0.40686233  0.55851846  0.53232386  1
  O2-  O452  1  0.41769852  0.58995792  0.85979472  1
  O2-  O453  1  0.42251439  0.84246127  0.14573902  1
  O2-  O454  1  0.42082657  0.83125863  0.52654401  1
  O2-  O455  1  0.41550013  0.83580685  0.86199300  1
  O2-  O456  1  0.66628985  0.08979246  0.19802143  1
  O2-  O457  1  0.65945394  0.09200959  0.52353612  1
  O2-  O458  1  0.66939570  0.09037392  0.86680298  1
  O2-  O459  1  0.65448137  0.32062056  0.18521242  1
  O2-  O460  1  0.64988604  0.32228538  0.52130541  1
  O2-  O461  1  0.68157521  0.34604543  0.85650474  1
  O2-  O462  1  0.66472230  0.57530365  0.17487710  1
  O2-  O463  1  0.73652034  0.54450932  0.54593467  1
  O2-  O464  1  0.67212347  0.59951483  0.84202571  1
  O2-  O465  1  0.66360974  0.83263342  0.17967868  1
  O2-  O466  1  0.66622957  0.82278951  0.52025438  1
  O2-  O467  1  0.66758928  0.83952163  0.84654846  1
  O2-  O468  1  0.84404268  0.04469617  0.20594399  1
  O2-  O469  1  0.90305561  0.07871380  0.52322111  1
  O2-  O470  1  0.92411306  0.08743114  0.85353582  1
  O2-  O471  1  0.91816237  0.33309158  0.18493270  1
  O2-  O472  1  0.91366255  0.34072653  0.51814663  1
  O2-  O473  1  0.90327380  0.30361669  0.86452737  1
  O2-  O474  1  0.91167399  0.59328876  0.17236045  1
  O2-  O475  1  0.94040053  0.59870438  0.53202494  1
  O2-  O476  1  0.92845530  0.61212527  0.85096247  1
  O2-  O477  1  0.90793429  0.82941223  0.15597750  1
  O2-  O478  1  0.92335128  0.84195854  0.51251831  1
  O2-  O479  1  0.92124347  0.84197495  0.85444180  1
  O2-  O480  1  0.19897296  0.10513229  0.33658832  1
  O2-  O481  1  0.16042610  0.07603234  0.64241581  1
  O2-  O482  1  0.20908972  0.11687740  1.00762823  1
  O2-  O483  1  0.18499447  0.34601214  0.32094488  1
  O2-  O484  1  0.17082904  0.34110051  0.65355835  1
  O2-  O485  1  0.19013635  0.33754787  0.98105497  1
  O2-  O486  1  0.14012437  0.57778949  0.31400899  1
  O2-  O487  1  0.17041731  0.58413353  0.64689583  1
  O2-  O488  1  0.18750208  0.59557596  0.98596599  1
  O2-  O489  1  0.15995288  0.83553422  0.31678647  1
  O2-  O490  1  0.18753337  0.84143006  0.64047541  1
  O2-  O491  1  0.20004483  0.83562142  0.97090536  1
  O2-  O492  1  0.41720387  0.08571247  0.31589241  1
  O2-  O493  1  0.37502516  0.13785698  0.59555227  1
  O2-  O494  1  0.43221972  0.06318416  0.97777543  1
  O2-  O495  1  0.41270574  0.31983016  0.30748198  1
  O2-  O496  1  0.42496003  0.35898016  0.63901262  1
  O2-  O497  1  0.39027975  0.29800933  0.97614849  1
  O2-  O498  1  0.48392957  0.54352442  0.29984149  1
  O2-  O499  1  0.42161602  0.59221446  0.65639015  1
  O2-  O500  1  0.41569359  0.58478670  0.98083766  1
  O2-  O501  1  0.41829980  0.85032839  0.38433761  1
  O2-  O502  1  0.39259554  0.83707184  0.64865085  1
  O2-  O503  1  0.40646560  0.84503739  0.98665973  1
  O2-  O504  1  0.66547867  0.09069704  0.31916143  1
  O2-  O505  1  0.66670841  0.08610256  0.65435775  1
  O2-  O506  1  0.69484158  0.10697062  0.98035132  1
  O2-  O507  1  0.65957134  0.31378100  0.32318371  1
  O2-  O508  1  0.66400724  0.33575347  0.65211284  1
  O2-  O509  1  0.63814773  0.32224152  0.96921730  1
  O2-  O510  1  0.65313450  0.55115100  0.30074662  1
  O2-  O511  1  0.66042384  0.56763092  0.64631009  1
  O2-  O512  1  0.68316718  0.56112738  0.96196206  1
  O2-  O513  1  0.65729501  0.84003785  0.30486985  1
  O2-  O514  1  0.65799572  0.84915109  0.66287531  1
  O2-  O515  1  0.68809007  0.79500950  0.95472262  1
  O2-  O516  1  0.90436333  0.08372518  0.32006182  1
  O2-  O517  1  0.91448188  0.08451970  0.64447877  1
  O2-  O518  1  0.92694375  0.09484463  0.97880374  1
  O2-  O519  1  0.91813412  0.33040638  0.31210635  1
  O2-  O520  1  0.91391142  0.33238644  0.64386741  1
  O2-  O521  1  0.89423755  0.33513489  0.98836102  1
  O2-  O522  1  0.89989719  0.54641546  0.32947318  1
  O2-  O523  1  0.92311777  0.59040180  0.65610608  1
  O2-  O524  1  0.94063695  0.61365743  0.96049699  1
  O2-  O525  1  0.94046836  0.87843630  0.34525592  1
  O2-  O526  1  0.94788530  0.89611996  0.62923075  1
  O2-  O527  1  0.93387127  0.84320752  0.97469058  1
  O2-  O528  1  0.09938883  0.17664214  0.02463459  1
  O2-  O529  1  0.13439960  0.20217403  0.38040570  1
  O2-  O530  1  0.08367580  0.17068019  0.68440636  1
  O2-  O531  1  0.11199477  0.42594130  0.03584442  1
  O2-  O532  1  0.08119749  0.41306492  0.35392893  1
  O2-  O533  1  0.07992264  0.41800657  0.68400481  1
  O2-  O534  1  0.09530257  0.67563498  0.01192601  1
  O2-  O535  1  0.07249348  0.67121043  0.36351902  1
  O2-  O536  1  0.09530980  0.67102952  0.68808688  1
  O2-  O537  1  0.12328775  0.94355653  -0.02551504  1
  O2-  O538  1  0.11425002  0.94160949  0.36668113  1
  O2-  O539  1  0.09974207  0.91140198  0.68121412  1
  O2-  O540  1  0.29950525  0.15255994  0.02463588  1
  O2-  O541  1  0.34674457  0.16461755  0.36850422  1
  O2-  O542  1  0.33887994  0.14837276  0.64223593  1
  O2-  O543  1  0.33692447  0.43233178  0.02364278  1
  O2-  O544  1  0.35086580  0.41052405  0.36354261  1
  O2-  O545  1  0.33645406  0.42537557  0.69717918  1
  O2-  O546  1  0.35050728  0.67983052  0.02455680  1
  O2-  O547  1  0.29621078  0.67975568  0.36759903  1
  O2-  O548  1  0.33274548  0.67263003  0.69356097  1
  O2-  O549  1  0.36094307  0.88654124  0.01346903  1
  O2-  O550  1  0.32378446  0.92611314  0.35718832  1
  O2-  O551  1  0.27821963  0.90473816  0.65510762  1
  O2-  O552  1  0.60647012  0.16577622  0.03569525  1
  O2-  O553  1  0.57637872  0.15995457  0.36042716  1
  O2-  O554  1  0.58946708  0.17207224  0.70720815  1
  O2-  O555  1  0.56113498  0.40061042  0.02315594  1
  O2-  O556  1  0.57913674  0.39381437  0.34959406  1
  O2-  O557  1  0.57770449  0.41429926  0.68838547  1
  O2-  O558  1  0.57911371  0.64052002  0.01635288  1
  O2-  O559  1  0.59300139  0.68585079  0.36490887  1
  O2-  O560  1  0.58714478  0.68352380  0.69875571  1
  O2-  O561  1  0.63393698  0.93169682  0.02830000  1
  O2-  O562  1  0.59011677  0.92823271  0.36456814  1
  O2-  O563  1  0.56213910  0.92715057  0.70018598  1
  O2-  O564  1  0.84114597  0.16768023  0.02752772  1
  O2-  O565  1  0.82871819  0.17317012  0.36301248  1
  O2-  O566  1  0.83365671  0.16538456  0.68832603  1
  O2-  O567  1  0.80360989  0.40171357  0.03322197  1
  O2-  O568  1  0.82066054  0.37838130  0.36098977  1
  O2-  O569  1  0.83378385  0.41813390  0.68402860  1
  O2-  O570  1  0.84003449  0.67178664  0.00345224  1
  O2-  O571  1  0.81450636  0.63218188  0.35540373  1
  O2-  O572  1  0.83454895  0.67277199  0.69164141  1
  O2-  O573  1  0.78950206  0.94637917  0.01869550  1
  O2-  O574  1  0.81623226  0.92582139  0.35794910  1
  O2-  O575  1  0.83340042  0.92175901  0.69094229  1
