# generated using pymatgen
data_H2O
_symmetry_space_group_name_H-M   'P 1'
_cell_length_a   17.99030868
_cell_length_b   17.99281040
_cell_length_c   22.00732562
_cell_angle_alpha   90.01350305
_cell_angle_beta   90.01871642
_cell_angle_gamma   120.01196274
_symmetry_Int_Tables_number   1
_chemical_formula_structural   H2O
_chemical_formula_sum   'H384 O192'
_cell_volume   6168.54995454
_cell_formula_units_Z   192
loop_
 _symmetry_equiv_pos_site_id
 _symmetry_equiv_pos_as_xyz
  1  'x, y, z'
loop_
 _atom_type_symbol
 _atom_type_oxidation_number
  H+  1.0
  O2-  -2.0
loop_
 _atom_site_type_symbol
 _atom_site_label
 _atom_site_symmetry_multiplicity
 _atom_site_fract_x
 _atom_site_fract_y
 _atom_site_fract_z
 _atom_site_occupancy
  H+  H0  1  0.72680383  0.17071350  0.63588625  1
  H+  H1  1  0.74957311  0.63825662  0.17535339  1
  H+  H2  1  0.62657278  0.26668338  0.01205338  1
  H+  H3  1  0.96092978  0.60963316  0.33973654  1
  H+  H4  1  0.11565195  0.63838961  0.52892957  1
  H+  H5  1  0.35840661  0.37865245  0.16320487  1
  H+  H6  1  0.12043217  0.48646031  0.33164566  1
  H+  H7  1  0.14326696  0.36193383  0.17114361  1
  H+  H8  1  0.12315508  0.09681189  0.66379481  1
  H+  H9  1  0.88434437  0.26284386  0.67967184  1
  H+  H10  1  0.25649939  0.63462736  0.68535016  1
  H+  H11  1  0.63179848  0.76826988  0.66778413  1
  H+  H12  1  0.10786236  0.88436628  0.83753458  1
  H+  H13  1  0.85936785  0.38346883  1.00976033  1
  H+  H14  1  0.24930415  0.10548937  0.18251129  1
  H+  H15  1  0.15799358  0.66513758  -0.00367330  1
  H+  H16  1  0.52405072  0.64207323  0.00482184  1
  H+  H17  1  0.62694685  0.51915309  0.82490076  1
  H+  H18  1  0.16242437  0.32739436  0.60562442  1
  H+  H19  1  0.48596574  0.39075651  0.83886370  1
  H+  H20  1  0.97963433  0.86408523  0.66548697  1
  H+  H21  1  0.13599837  0.61572321  0.85058585  1
  H+  H22  1  0.38203506  0.01172461  0.99324920  1
  H+  H23  1  0.35920248  -0.03000177  0.15511608  1
  H+  H24  1  0.27350516  0.38442028  0.16313657  1
  H+  H25  1  0.96344858  0.10754243  0.99370444  1
  H+  H26  1  0.11037680  0.11902742  0.82132753  1
  H+  H27  1  0.36212519  -0.01820179  0.49347165  1
  H+  H28  1  0.11564942  0.69224739  0.04734624  1
  H+  H29  1  0.66404047  0.54759433  0.16969149  1
  H+  H30  1  0.85798982  0.81566423  0.81982516  1
  H+  H31  1  0.11277224  0.14152085  0.34559996  1
  H+  H32  1  0.19449108  0.09383956  0.86679595  1
  H+  H33  1  0.76383745  0.38044301  0.33369477  1
  H+  H34  1  0.51839665  0.89594648  0.00683863  1
  H+  H35  1  0.52954248  0.63831159  0.15929546  1
  H+  H36  1  0.85318702  0.82152112  0.29296226  1
  H+  H37  1  0.38996752  0.52376233  0.17649713  1
  H+  H38  1  1.01177091  0.63247463  0.65661224  1
  H+  H39  1  0.61564139  0.39352780  0.49009417  1
  H+  H40  1  0.22210072  0.11287865  0.33845100  1
  H+  H41  1  0.44055907  0.08844854  0.78928867  1
  H+  H42  1  0.41473826  0.07902284  0.27305692  1
  H+  H43  1  0.35719751  0.46536531  0.66656466  1
  H+  H44  1  0.37307496  0.51488522  0.32894031  1
  H+  H45  1  0.13113771  0.00159028  0.18635954  1
  H+  H46  1  0.25214139  0.87920982  0.68701874  1
  H+  H47  1  0.73366632  0.36676164  0.17109436  1
  H+  H48  1  0.38838659  0.87829117  -0.00446677  1
  H+  H49  1  0.67287657  0.82558753  0.57282927  1
  H+  H50  1  0.38147228  0.85455976  0.84709603  1
  H+  H51  1  0.38296425  0.12001921  0.50345146  1
  H+  H52  1  0.13185399  0.51960217  -0.00113551  1
  H+  H53  1  0.61429583  0.39967916  0.67354103  1
  H+  H54  1  0.78552869  0.86511879  0.22422726  1
  H+  H55  1  0.77032848  0.64361572  0.49827324  1
  H+  H56  1  0.63802018  0.85863845  0.83521940  1
  H+  H57  1  0.76111398  0.10587725  0.34235873  1
  H+  H58  1  0.22739868  0.86744384  0.51515882  1
  H+  H59  1  0.36129374  0.63092254  0.82778093  1
  H+  H60  1  0.35091773  0.22537897  0.50190166  1
  H+  H61  1  0.33714506  0.32224705  0.63262777  1
  H+  H62  1  0.26630767  0.38068769  0.33732569  1
  H+  H63  1  0.00883896  0.11319611  0.82736223  1
  H+  H64  1  0.07196829  0.90446899  0.73570369  1
  H+  H65  1  0.44809931  0.32181167  0.16630132  1
  H+  H66  1  0.66225550  0.34105274  0.60249798  1
  H+  H67  1  0.27778602  0.62406533  1.00831740  1
  H+  H68  1  0.07766527  0.17348934  0.10169731  1
  H+  H69  1  0.84013817  0.42686032  0.10493787  1
  H+  H70  1  0.82638750  0.67238914  0.73396952  1
  H+  H71  1  0.37743440  0.86348907  0.51496239  1
  H+  H72  1  0.61924303  0.72124307  0.49711795  1
  H+  H73  1  0.37600778  0.60601788  0.32959635  1
  H+  H74  1  0.89072370  0.11515983  0.17099006  1
  H+  H75  1  0.85750059  0.41741531  0.48977824  1
  H+  H76  1  0.11947881  0.39581986  0.33383471  1
  H+  H77  1  0.47951099  0.62386477  0.82841638  1
  H+  H78  1  0.38002607  0.86067683  0.32723870  1
  H+  H79  1  0.04376412  0.41060762  0.19287182  1
  H+  H80  1  0.37904946  0.24911520  0.82161783  1
  H+  H81  1  0.09806016  -0.03542212  0.67429698  1
  H+  H82  1  0.09127724  0.12333393  1.01246055  1
  H+  H83  1  0.88161712  0.35142609  0.83791579  1
  H+  H84  1  0.02921337  0.64409029  0.52336651  1
  H+  H85  1  0.72791871  0.61342091  -0.00074606  1
  H+  H86  1  0.60414941  0.64295767  0.68002455  1
  H+  H87  1  0.78359330  0.14629361  0.15186443  1
  H+  H88  1  0.47585629  0.61613017  0.50543632  1
  H+  H89  1  0.77926467  0.13087937  0.68243455  1
  H+  H90  1  0.51089386  0.78008081  0.47107989  1
  H+  H91  1  0.48451488  0.10481381  0.65293851  1
  H+  H92  1  0.98517191  0.87666666  0.98578629  1
  H+  H93  1  0.63492249  0.61058830  0.51132875  1
  H+  H94  1  0.88909507  0.10540286  0.66898108  1
  H+  H95  1  0.65410619  0.01022050  0.67458046  1
  H+  H96  1  0.09981671  0.37725905  1.01865697  1
  H+  H97  1  1.01282329  0.87621518  0.16368819  1
  H+  H98  1  0.62318587  0.76020195  0.00835617  1
  H+  H99  1  0.10278741  0.86977295  0.17192240  1
  H+  H100  1  0.53039669  0.40017269  0.48680761  1
  H+  H101  1  0.85729993  0.38471383  0.33669265  1
  H+  H102  1  0.85177722  0.63202570  1.01034287  1
  H+  H103  1  0.12945369  0.01884729  0.82146929  1
  H+  H104  1  1.02216880  0.13712252  0.49928126  1
  H+  H105  1  0.26824399  0.62993411  0.83314173  1
  H+  H106  1  0.61240257  0.47904853  0.33310922  1
  H+  H107  1  0.89519765  0.27377635  0.16249506  1
  H+  H108  1  0.62912269  0.36696053  0.32224671  1
  H+  H109  1  0.65083656  0.86720062  0.66337955  1
  H+  H110  1  0.40316408  0.28857306  0.99584336  1
  H+  H111  1  0.85571533  0.72614607  0.34668946  1
  H+  H112  1  0.11141219  0.38842046  0.83229200  1
  H+  H113  1  0.90030316  0.87660553  0.34635155  1
  H+  H114  1  0.66852652  0.58378115  0.59903938  1
  H+  H115  1  0.88317528  0.54345202  0.49447899  1
  H+  H116  1  0.85212796  0.12916999  -0.00255328  1
  H+  H117  1  0.46582827  0.85361943  0.32897284  1
  H+  H118  1  0.56419351  0.42511451  0.18434398  1
  H+  H119  1  0.40079769  0.38240389  0.49295378  1
  H+  H120  1  0.87684192  0.88778635  0.15795342  1
  H+  H121  1  1.01391760  0.86829968  0.82326320  1
  H+  H122  1  0.64521557  1.01656801  0.84156380  1
  H+  H123  1  0.62724112  0.86178015  0.00651886  1
  H+  H124  1  0.87793091  0.65645329  0.16656364  1
  H+  H125  1  0.13268338  0.52210053  0.66506237  1
  H+  H126  1  0.63123563  0.36047473  1.01259559  1
  H+  H127  1  0.97430827  0.35901728  0.83914820  1
  H+  H128  1  0.15010253  0.36479390  0.50657717  1
  H+  H129  1  0.38281537  0.76656425  0.84647039  1
  H+  H130  1  0.88116019  0.77418088  0.51223565  1
  H+  H131  1  0.77672833  0.88565660  0.49742537  1
  H+  H132  1  0.72333930  0.37031732  0.66043894  1
  H+  H133  1  0.86648098  0.21220949  0.83127174  1
  H+  H134  1  0.11938545  0.72911499  0.14193182  1
  H+  H135  1  0.24628184  0.62788506  0.16438453  1
  H+  H136  1  0.26358353  0.63755789  0.33637007  1
  H+  H137  1  0.36130602  0.39853869  0.82806868  1
  H+  H138  1  0.60888517  0.13628816  0.49952659  1
  H+  H139  1  0.22095006  0.36288865  1.00272640  1
  H+  H140  1  0.77551421  0.12119941  0.83149116  1
  H+  H141  1  0.62698493  0.27656119  0.32291404  1
  H+  H142  1  0.77129711  0.38315312  0.01855900  1
  H+  H143  1  0.37724787  0.09938139  0.18506210  1
  H+  H144  1  0.20924883  0.81013708  1.00555682  1
  H+  H145  1  0.64568378  0.03075662  0.16635710  1
  H+  H146  1  0.47047674  0.10710751  0.17974777  1
  H+  H147  1  0.85380463  0.63376253  0.67577781  1
  H+  H148  1  0.67984712  0.20805550  0.36483421  1
  H+  H149  1  0.63413161  0.84571208  0.51411418  1
  H+  H150  1  0.28825704  0.16986262  -0.06476217  1
  H+  H151  1  0.22798169  0.37043637  0.84380227  1
  H+  H152  1  0.58685934  0.42292015  0.39438419  1
  H+  H153  1  0.61305355  0.13842916  0.16073433  1
  H+  H154  1  0.88037354  0.09879645  0.51646649  1
  H+  H155  1  0.12247735  0.64322460  0.14088946  1
  H+  H156  1  0.29165357  0.16190738  0.80752029  1
  H+  H157  1  0.32515792  0.91286734  0.09104235  1
  H+  H158  1  0.89129413  0.01724190  0.51563809  1
  H+  H159  1  0.04794950  0.38738630  0.47967254  1
  H+  H160  1  0.36885355  0.77019452  0.51426662  1
  H+  H161  1  0.88335471  0.00171736  0.83714244  1
  H+  H162  1  0.73152279  0.61346299  0.66439579  1
  H+  H163  1  0.31250723  0.13751552  0.12229389  1
  H+  H164  1  0.38846593  0.86626080  0.16690112  1
  H+  H165  1  0.41099798  0.33407312  0.54888872  1
  H+  H166  1  0.10837250  0.13314634  0.49610107  1
  H+  H167  1  0.34734605  0.73109521  0.68550208  1
  H+  H168  1  0.22625068  0.87014880  0.85674760  1
  H+  H169  1  0.85369224  0.22061967  0.99787731  1
  H+  H170  1  0.39495149  0.12721770  0.82680131  1
  H+  H171  1  0.72155334  0.86183153  1.01017494  1
  H+  H172  1  0.63153172  0.51589904  0.66160248  1
  H+  H173  1  0.62704990  0.76564020  0.82832873  1
  H+  H174  1  0.05229298  0.39586632  0.07358265  1
  H+  H175  1  0.51616135  0.88055055  0.82934433  1
  H+  H176  1  0.87505800  0.52245736  0.35349112  1
  H+  H177  1  0.60967166  0.88912943  0.16304641  1
  H+  H178  1  0.59866250  0.61810339  0.34261505  1
  H+  H179  1  1.02690012  0.38491506  0.68064509  1
  H+  H180  1  0.62332929  0.02378584  0.52004654  1
  H+  H181  1  0.85264696  0.19627195  0.48751085  1
  H+  H182  1  0.22318882  0.35919263  0.66395275  1
  H+  H183  1  0.62889414  0.39356291  0.16310461  1
  H+  H184  1  0.13333946  0.27554960  0.32871475  1
  H+  H185  1  0.54490324  0.14362799  0.84612516  1
  H+  H186  1  0.81544246  0.90866259  0.33041698  1
  H+  H187  1  0.63363903  0.22635538  0.85913733  1
  H+  H188  1  0.88738170  0.86662487  0.51197170  1
  H+  H189  1  0.88630464  0.09404497  0.83684242  1
  H+  H190  1  0.71801556  0.36690231  0.50548981  1
  H+  H191  1  0.84635993  0.97043767  0.01356712  1
  H+  H192  1  0.61114503  0.22612546  0.16041418  1
  H+  H193  1  0.37161299  0.12781313  0.66723484  1
  H+  H194  1  0.86200171  0.96789045  0.67351669  1
  H+  H195  1  0.15815965  0.06538079  0.24574770  1
  H+  H196  1  0.36142993  0.22794348  0.34607183  1
  H+  H197  1  0.12298943  0.61245533  0.30212427  1
  H+  H198  1  0.10677801  0.63078868  0.66284087  1
  H+  H199  1  0.35666355  0.38167959  0.33888720  1
  H+  H200  1  0.24029514  0.85897695  0.16805885  1
  H+  H201  1  0.73967118  0.64514733  0.84056583  1
  H+  H202  1  0.59466240  0.64216768  0.82096202  1
  H+  H203  1  0.47209909  0.11094251  0.33301419  1
  H+  H204  1  0.02233567  0.13555416  0.67942218  1
  H+  H205  1  0.35825783  0.97244296  0.34446632  1
  H+  H206  1  0.48824252  0.37878928  0.99779707  1
  H+  H207  1  0.91459294  0.59208096  0.59126393  1
  H+  H208  1  0.76327790  0.87011185  0.82567274  1
  H+  H209  1  0.26828004  0.88488260  0.34333369  1
  H+  H210  1  0.63872567  0.61449500  0.99368013  1
  H+  H211  1  0.12109372  0.85242407  0.66760299  1
  H+  H212  1  0.91130619  0.89836210  -0.01464798  1
  H+  H213  1  0.63237631  0.27486781  0.50849181  1
  H+  H214  1  0.13194021  0.86666420  0.33256639  1
  H+  H215  1  0.11756491  0.73094767  0.85398785  1
  H+  H216  1  0.37586803  0.73241686  0.16142231  1
  H+  H217  1  0.02843933  0.64910291  0.84205626  1
  H+  H218  1  0.36428845  0.64182458  0.49155105  1
  H+  H219  1  0.88549313  1.00307199  0.34737768  1
  H+  H220  1  0.66900890  0.33465490  0.22831277  1
  H+  H221  1  0.21483012  0.10636083  0.51053273  1
  H+  H222  1  0.89056987  0.53032858  0.65049227  1
  H+  H223  1  0.35928478  0.24182509  0.18221742  1
  H+  H224  1  0.98392966  0.13096235  0.32842369  1
  H+  H225  1  0.87985429  0.52516354  0.99171987  1
  H+  H226  1  0.62215974  0.64695404  0.15660225  1
  H+  H227  1  0.01621373  0.64211131  0.25405708  1
  H+  H228  1  0.87023400  0.39645189  0.16236535  1
  H+  H229  1  0.52195098  0.89132437  0.16435063  1
  H+  H230  1  1.01859083  0.87892210  0.50041537  1
  H+  H231  1  0.37389213  0.64105399  0.16540504  1
  H+  H232  1  0.34042832  0.96856566  0.68846025  1
  H+  H233  1  0.72416174  0.11218654  1.00118504  1
  H+  H234  1  0.34855944  0.24043461  0.63134351  1
  H+  H235  1  0.86852418  0.97350336  0.16312705  1
  H+  H236  1  0.14091740  0.77598841  0.52895612  1
  H+  H237  1  0.46736938  0.60478318  0.66113885  1
  H+  H238  1  0.76791568  0.38393308  0.83892429  1
  H+  H239  1  0.85500445  0.63582289  0.35744928  1
  H+  H240  1  0.86671802  0.39236108  0.67660315  1
  H+  H241  1  0.62733576  0.11157251  0.00810851  1
  H+  H242  1  0.60107399  0.82613834  0.31931719  1
  H+  H243  1  0.38447421  0.53034114  0.50103033  1
  H+  H244  1  0.50629002  0.61296918  0.34764024  1
  H+  H245  1  0.87983958  0.74857666  0.16169808  1
  H+  H246  1  0.10764355  0.72629686  0.66491716  1
  H+  H247  1  0.14103361  0.27981401  0.84621711  1
  H+  H248  1  0.75828646  0.11672803  0.50292989  1
  H+  H249  1  0.20144320  0.08595360  -0.04593767  1
  H+  H250  1  0.96506870  0.35343415  0.99439067  1
  H+  H251  1  0.88960766  0.12235438  0.32972543  1
  H+  H252  1  0.35960156  0.48612821  0.82436463  1
  H+  H253  1  0.63115282  0.43448848  0.81629045  1
  H+  H254  1  0.70923067  0.81836875  0.27424467  1
  H+  H255  1  0.13188330  0.52390172  0.84265389  1
  H+  H256  1  0.36200818  0.39036592  0.00972511  1
  H+  H257  1  0.14796007  0.52561263  0.50970061  1
  H+  H258  1  1.02079031  0.88357073  0.34400316  1
  H+  H259  1  0.88840814  0.63321884  0.50204770  1
  H+  H260  1  0.61471990  0.09005716  0.32481018  1
  H+  H261  1  0.49389367  0.84711306  0.50287583  1
  H+  H262  1  0.64100447  0.52442220  0.50783757  1
  H+  H263  1  0.61900312  0.48594190  0.00738617  1
  H+  H264  1  -0.01480961  0.38072222  0.32559406  1
  H+  H265  1  0.61131146  0.14017984  0.66492391  1
  H+  H266  1  0.11855448  0.00063654  1.01628182  1
  H+  H267  1  0.36397854  0.85294097  0.67320157  1
  H+  H268  1  0.14166015  0.27203555  0.50961452  1
  H+  H269  1  0.77215465  0.87562806  0.67100028  1
  H+  H270  1  0.35874467  0.96993094  0.83707500  1
  H+  H271  1  0.87990777  0.55600491  0.83077848  1
  H+  H272  1  0.99152239  0.62465767  0.16062060  1
  H+  H273  1  0.39246290  0.82199682  0.61356716  1
  H+  H274  1  0.67939966  0.60207151  0.90003627  1
  H+  H275  1  0.39582433  0.52830435  0.99145941  1
  H+  H276  1  0.10935368  0.88089972  0.50051798  1
  H+  H277  1  0.52099970  0.13974111  0.49073423  1
  H+  H278  1  0.88393714  0.86630962  0.66292707  1
  H+  H279  1  0.08354321  0.71925835  0.29777361  1
  H+  H280  1  0.32818708  0.66991434  0.43362900  1
  H+  H281  1  0.72146745  0.61374692  0.32834355  1
  H+  H282  1  0.60096380  0.22366035  0.66770642  1
  H+  H283  1  0.62270542  0.33870581  0.87270491  1
  H+  H284  1  0.35953003  0.13823167  0.34851296  1
  H+  H285  1  0.60149167  0.95224727  0.35282935  1
  H+  H286  1  0.91664187  0.31927301  0.42857637  1
  H+  H287  1  0.42664594  0.01173352  0.62339196  1
  H+  H288  1  0.91181688  0.31798875  0.61997003  1
  H+  H289  1  0.92099734  0.33908961  0.27019286  1
  H+  H290  1  0.07425820  0.90792755  0.40668107  1
  H+  H291  1  0.41265842  0.57607752  0.60026104  1
  H+  H292  1  0.80999286  0.13331775  0.40514350  1
  H+  H293  1  0.67300328  0.33601056  0.93065073  1
  H+  H294  1  0.51704343  0.12314265  0.00716050  1
  H+  H295  1  0.09730424  0.90736395  0.08370704  1
  H+  H296  1  0.31982191  0.66438922  0.75212718  1
  H+  H297  1  0.12713903  0.01576185  0.50614142  1
  H+  H298  1  0.66570078  0.09278129  0.57880531  1
  H+  H299  1  0.13269715  1.02394983  0.34114031  1
  H+  H300  1  0.07470476  0.15933906  0.76500485  1
  H+  H301  1  0.41755633  0.08828603  0.55896749  1
  H+  H302  1  0.59955756  0.16915336  0.40787983  1
  H+  H303  1  0.76801656  0.33105701  0.78484607  1
  H+  H304  1  0.32537327  0.17046293  0.44160573  1
  H+  H305  1  0.14287625  0.06374746  0.60180332  1
  H+  H306  1  0.83640208  0.15565100  0.74478947  1
  H+  H307  1  0.11267186  0.43287737  0.42748385  1
  H+  H308  1  0.42084603  0.07118269  0.93442860  1
  H+  H309  1  0.12579740  0.67877088  0.41167988  1
  H+  H310  1  0.17119699  0.85826354  0.26990392  1
  H+  H311  1  0.18368852  0.85884143  0.92028287  1
  H+  H312  1  0.90977006  0.32759893  0.93279689  1
  H+  H313  1  0.58750800  0.43045674  0.06946268  1
  H+  H314  1  0.57116856  0.15527152  0.07082497  1
  H+  H315  1  0.34064112  0.66018899  0.06534484  1
  H+  H316  1  0.65448383  0.10917794  0.84892942  1
  H+  H317  1  0.15384787  0.90147053  0.02870640  1
  H+  H318  1  0.69712723  0.98033236  0.72260075  1
  H+  H319  1  0.62804539  0.01433738  1.00673024  1
  H+  H320  1  0.35358824  0.72386183  0.33631714  1
  H+  H321  1  0.90747916  0.06863730  0.93354584  1
  H+  H322  1  0.41717582  0.58167799  0.23629197  1
  H+  H323  1  0.31959136  0.90656628  0.78151327  1
  H+  H324  1  0.91840127  0.83717492  0.59920852  1
  H+  H325  1  0.32893913  0.42076692  0.43164393  1
  H+  H326  1  0.59496697  0.73556460  0.32108434  1
  H+  H327  1  0.42893470  0.35203073  0.89866965  1
  H+  H328  1  0.16346832  0.33752160  0.94330596  1
  H+  H329  1  0.41908930  0.58984018  0.89148982  1
  H+  H330  1  0.33359431  0.41896471  0.06978380  1
  H+  H331  1  0.57090870  0.00972517  0.28115099  1
  H+  H332  1  0.35985776  0.17832296  0.72179205  1
  H+  H333  1  0.58159680  0.65735156  0.43856988  1
  H+  H334  1  0.32934513  0.91478697  0.43844662  1
  H+  H335  1  0.47451897  0.36325824  0.32712850  1
  H+  H336  1  0.16406521  0.83597409  0.60833866  1
  H+  H337  1  0.08481282  0.41685260  0.77095878  1
  H+  H338  1  0.23300153  0.61716879  0.51165212  1
  H+  H339  1  0.67116099  0.59131987  0.26476290  1
  H+  H340  1  0.36386960  0.14358617  0.04405466  1
  H+  H341  1  0.58539033  0.43930351  0.72917822  1
  H+  H342  1  0.19239766  0.78484356  0.21679417  1
  H+  H343  1  0.91922264  0.09030708  0.23316904  1
  H+  H344  1  0.90504573  0.58927338  0.93554889  1
  H+  H345  1  0.15859762  0.54206912  0.15310056  1
  H+  H346  1  0.08901685  0.63341292  0.41375440  1
  H+  H347  1  0.34237167  0.17030337  0.04003263  1
  H+  H348  1  0.13352252  0.26779850  0.16998025  1
  H+  H349  1  0.16938722  0.58176165  0.60520342  1
  H+  H350  1  0.83985277  0.92431575  0.43908650  1
  H+  H351  1  0.88785327  0.64741031  0.83668425  1
  H+  H352  1  0.57786516  0.91920384  0.06863062  1
  H+  H353  1  0.82644581  0.66519966  0.07026927  1
  H+  H354  1  0.92905321  0.84442841  0.22114972  1
  H+  H355  1  0.11653458  0.38649314  0.67541440  1
  H+  H356  1  0.10350801  0.21911635  0.00662544  1
  H+  H357  1  0.82502693  0.91152536  0.07375869  1
  H+  H358  1  0.42223670  0.84492232  0.93933256  1
  H+  H359  1  0.41553900  0.83941193  0.23012734  1
  H+  H360  1  0.67784221  0.09049653  0.22368120  1
  H+  H361  1  0.11183657  0.22678995  0.68011680  1
  H+  H362  1  0.82811126  0.90199267  0.76863041  1
  H+  H363  1  0.81864610  0.42074814  0.42570368  1
  H+  H364  1  0.08323424  0.17300047  0.40408890  1
  H+  H365  1  0.58230398  0.66870471  0.06787804  1
  H+  H366  1  0.90640015  0.54226014  0.18196108  1
  H+  H367  1  0.56913288  0.67007059  0.74193988  1
  H+  H368  1  0.16793873  0.57320632  0.93691361  1
  H+  H369  1  0.91898985  0.07736582  0.60819224  1
  H+  H370  1  0.39271560  0.61480943  0.99313771  1
  H+  H371  1  0.83899966  0.43437822  0.72804773  1
  H+  H372  1  0.27874298  0.39025642  0.49535547  1
  H+  H373  1  0.56202702  0.88225625  0.40720222  1
  H+  H374  1  0.90926011  0.33712096  0.49776840  1
  H+  H375  1  0.17059118  0.58723702  0.25405527  1
  H+  H376  1  0.84039007  0.17109063  0.09192531  1
  H+  H377  1  0.02430659  0.14464416  0.16327305  1
  H+  H378  1  0.16356553  0.33010034  0.26634333  1
  H+  H379  1  0.82550633  0.67675653  0.43635971  1
  H+  H380  1  0.57808943  0.91684018  0.77068487  1
  H+  H381  1  0.05856435  0.00596720  0.96992887  1
  H+  H382  1  0.32700758  0.40875285  0.72683888  1
  H+  H383  1  0.41074449  0.32408588  0.27000754  1
  O2-  O384  1  0.08351736  0.18007131  0.14656391  1
  O2-  O385  1  0.08154864  0.16766119  0.48225831  1
  O2-  O386  1  0.07271846  0.15047437  0.81231989  1
  O2-  O387  1  0.01237475  0.37459545  0.15797864  1
  O2-  O388  1  0.10972526  0.42660603  0.47299132  1
  O2-  O389  1  0.07883593  0.41565572  0.81613829  1
  O2-  O390  1  0.08925165  0.66979521  0.12535045  1
  O2-  O391  1  0.08848879  0.67292666  0.53959832  1
  O2-  O392  1  0.09065260  0.67346487  0.83507362  1
  O2-  O393  1  0.08261744  0.90680519  0.15524420  1
  O2-  O394  1  0.07758171  0.90832154  0.48260011  1
  O2-  O395  1  0.07562036  0.90717624  0.81416416  1
  O2-  O396  1  0.31577873  0.14171723  0.16661304  1
  O2-  O397  1  0.32294687  0.16549136  0.48693772  1
  O2-  O398  1  0.35435799  0.19020936  0.80378114  1
  O2-  O399  1  0.33476262  0.41490273  0.14893217  1
  O2-  O400  1  0.33647833  0.42723162  0.47669375  1
  O2-  O401  1  0.32627925  0.42306616  0.81281136  1
  O2-  O402  1  0.34388075  0.67111627  0.14855766  1
  O2-  O403  1  0.33292742  0.67291053  0.47896869  1
  O2-  O404  1  0.32736375  0.66120724  0.81454930  1
  O2-  O405  1  0.33064709  0.91053415  0.13887565  1
  O2-  O406  1  0.33161090  0.91902605  0.48378018  1
  O2-  O407  1  0.32637970  0.90827101  0.82667624  1
  O2-  O408  1  0.57734236  0.16414861  0.14870824  1
  O2-  O409  1  0.58341636  0.16869110  0.47912532  1
  O2-  O410  1  0.60686235  0.17000935  0.83890361  1
  O2-  O411  1  0.59996547  0.42737407  0.15040307  1
  O2-  O412  1  0.59273248  0.42926688  0.47280043  1
  O2-  O413  1  0.59292161  0.45688514  0.80784481  1
  O2-  O414  1  0.58601706  0.66881242  0.13877363  1
  O2-  O415  1  0.58377665  0.66000227  0.48429460  1
  O2-  O416  1  0.56227929  0.66820475  0.80463790  1
  O2-  O417  1  0.58369268  0.92238756  0.14890741  1
  O2-  O418  1  0.53991475  0.84147872  0.48016301  1
  O2-  O419  1  0.57727862  0.91316076  0.81525636  1
  O2-  O420  1  0.84412009  0.17623593  0.13727373  1
  O2-  O421  1  0.81600411  0.13345007  0.48467218  1
  O2-  O422  1  0.83890792  0.15228566  0.81573207  1
  O2-  O423  1  0.83897302  0.42649455  0.15073281  1
  O2-  O424  1  0.81736475  0.43176328  0.47112912  1
  O2-  O425  1  0.80631153  0.38463731  0.80594951  1
  O2-  O426  1  0.84453810  0.68255171  0.15140726  1
  O2-  O427  1  0.83026082  0.67893099  0.48237924  1
  O2-  O428  1  0.83965255  0.69687912  0.80680944  1
  O2-  O429  1  0.83666707  0.91244156  0.15027675  1
  O2-  O430  1  0.83824824  0.91761689  0.48446257  1
  O2-  O431  1  0.82756841  0.89944638  0.81356420  1
  O2-  O432  1  0.16495880  0.06285035  0.20117623  1
  O2-  O433  1  0.15300669  0.07540358  0.52246221  1
  O2-  O434  1  0.16240701  0.08285078  0.82648760  1
  O2-  O435  1  0.16986876  0.33068995  0.18775180  1
  O2-  O436  1  0.17470261  0.33192382  0.52603246  1
  O2-  O437  1  0.16755345  0.33907164  0.86099196  1
  O2-  O438  1  0.18174416  0.59686796  0.17408439  1
  O2-  O439  1  0.17423001  0.58296780  0.52979665  1
  O2-  O440  1  0.16681262  0.58263402  0.85987531  1
  O2-  O441  1  0.18211772  0.82125756  0.18928769  1
  O2-  O442  1  0.16872516  0.84064867  0.53321670  1
  O2-  O443  1  0.16923806  0.84908769  0.87658491  1
  O2-  O444  1  0.41205249  0.07202527  0.19753481  1
  O2-  O445  1  0.41640826  0.09035465  0.51379401  1
  O2-  O446  1  0.42195374  0.09010878  0.83070443  1
  O2-  O447  1  0.39633563  0.30641913  0.18972647  1
  O2-  O448  1  0.43097166  0.35100440  0.50562042  1
  O2-  O449  1  0.42648820  0.35185163  0.85352999  1
  O2-  O450  1  0.41993827  0.58434537  0.19088989  1
  O2-  O451  1  0.41406106  0.59114915  0.51631999  1
  O2-  O452  1  0.41359944  0.58881479  0.84655133  1
  O2-  O453  1  0.42210843  0.84063487  0.18489399  1
  O2-  O454  1  0.40145575  0.82874146  0.53305006  1
  O2-  O455  1  0.41538198  0.82740561  0.86024265  1
  O2-  O456  1  0.67747121  0.09251755  0.17887966  1
  O2-  O457  1  0.65820959  0.08500894  0.52842801  1
  O2-  O458  1  0.68526987  0.07656678  0.85486476  1
  O2-  O459  1  0.67101647  0.33486992  0.18287153  1
  O2-  O460  1  0.65969765  0.33507351  0.52386523  1
  O2-  O461  1  0.67478625  0.33833539  0.88414386  1
  O2-  O462  1  0.68615715  0.60466617  0.18810812  1
  O2-  O463  1  0.66841701  0.58338794  0.52714127  1
  O2-  O464  1  0.67880704  0.60729805  0.85488619  1
  O2-  O465  1  0.77265151  0.84246261  0.26642616  1
  O2-  O466  1  0.67425642  0.82611972  0.52694535  1
  O2-  O467  1  0.66763720  0.82613005  0.84368873  1
  O2-  O468  1  0.91951985  0.08507639  0.18797265  1
  O2-  O469  1  0.91858196  0.07743902  0.53188030  1
  O2-  O470  1  0.91810903  0.06422509  0.85049380  1
  O2-  O471  1  0.92349725  0.33392615  0.18155296  1
  O2-  O472  1  0.93049283  0.30987227  0.46997026  1
  O2-  O473  1  0.91352471  0.32414694  0.85405362  1
  O2-  O474  1  0.94379923  0.60412650  0.19092413  1
  O2-  O475  1  0.91539467  0.59887987  0.51611550  1
  O2-  O476  1  0.91222235  0.61033010  0.85207361  1
  O2-  O477  1  0.92781142  0.84156336  0.17690315  1
  O2-  O478  1  0.91502518  0.83446341  0.52947509  1
  O2-  O479  1  0.89611720  0.79014152  0.81933401  1
  O2-  O480  1  0.16113870  0.08336491  0.32450990  1
  O2-  O481  1  0.13557919  0.05377651  0.64644927  1
  O2-  O482  1  0.11392915  0.04600836  0.99088885  1
  O2-  O483  1  0.16381169  0.33541192  0.31161518  1
  O2-  O484  1  0.16006500  0.32797535  0.65106226  1
  O2-  O485  1  0.15996162  0.33228700  0.98835744  1
  O2-  O486  1  0.16149964  0.58760733  0.29866505  1
  O2-  O487  1  0.16161843  0.58343728  0.65069716  1
  O2-  O488  1  0.17218068  0.57688080  0.98235807  1
  O2-  O489  1  0.16336753  0.83990451  0.31269579  1
  O2-  O490  1  0.15535723  0.82503487  0.65366436  1
  O2-  O491  1  0.23457023  0.87498260  0.99929277  1
  O2-  O492  1  0.41264520  0.08021410  0.31908439  1
  O2-  O493  1  0.42281689  0.06157641  0.63631328  1
  O2-  O494  1  0.42451492  0.07201808  0.97853542  1
  O2-  O495  1  0.41256523  0.32958688  0.31500612  1
  O2-  O496  1  0.34475207  0.28353158  0.60512322  1
  O2-  O497  1  0.42776270  0.34701689  0.98036592  1
  O2-  O498  1  0.40670079  0.57623355  0.31512101  1
  O2-  O499  1  0.40916216  0.56579656  0.64449245  1
  O2-  O500  1  0.42718190  0.58811772  0.97626019  1
  O2-  O501  1  0.40860799  0.83046208  0.30880740  1
  O2-  O502  1  0.39048407  0.81932993  0.65879472  1
  O2-  O503  1  0.43156188  0.86170347  0.98288701  1
  O2-  O504  1  0.62481530  0.04766739  0.30201722  1
  O2-  O505  1  0.68164563  0.11080801  0.63942644  1
  O2-  O506  1  0.65867238  0.07931854  0.99421533  1
  O2-  O507  1  0.65838499  0.33509473  0.30618903  1
  O2-  O508  1  0.66231714  0.34181877  0.64802024  1
  O2-  O509  1  0.66175932  0.32885907  1.00095201  1
  O2-  O510  1  0.66269287  0.58170805  0.30987882  1
  O2-  O511  1  0.66722401  0.58307650  0.64569758  1
  O2-  O512  1  0.66686007  0.58228382  0.97964213  1
  O2-  O513  1  0.61066105  0.78610792  0.29449446  1
  O2-  O514  1  0.67093538  0.82806810  0.64888131  1
  O2-  O515  1  0.65780539  0.82919292  0.99642907  1
  O2-  O516  1  0.92396181  0.09766329  0.31223566  1
  O2-  O517  1  0.91942594  0.07524126  0.65401217  1
  O2-  O518  1  0.90284135  0.07538703  0.97796861  1
  O2-  O519  1  0.92326263  0.35032044  0.31419450  1
  O2-  O520  1  0.91196641  0.32419264  0.66396191  1
  O2-  O521  1  0.90507210  0.32408069  0.97814983  1
  O2-  O522  1  0.90649192  0.58443360  0.36299427  1
  O2-  O523  1  0.91988779  0.59153089  0.63709319  1
  O2-  O524  1  0.90476497  0.58599627  0.98030166  1
  O2-  O525  1  0.90158659  0.83136211  0.32071936  1
  O2-  O526  1  0.91845290  0.83818987  0.64620105  1
  O2-  O527  1  0.96210273  0.90702856  0.96248862  1
  O2-  O528  1  0.06544252  0.15999630  0.02226732  1
  O2-  O529  1  0.08501739  0.17533009  0.35855207  1
  O2-  O530  1  0.08146281  0.16683872  0.69758278  1
  O2-  O531  1  0.06514815  0.40475553  0.02984269  1
  O2-  O532  1  0.09238234  0.42840758  0.35101925  1
  O2-  O533  1  0.08846278  0.41924017  0.69159192  1
  O2-  O534  1  0.14397476  0.71028356  0.00721939  1
  O2-  O535  1  0.05312728  0.65645693  0.29114598  1
  O2-  O536  1  0.07392611  0.66145577  0.67492349  1
  O2-  O537  1  0.10599831  0.91160843  0.03811085  1
  O2-  O538  1  0.07926087  0.91383302  0.36101117  1
  O2-  O539  1  0.06858668  0.90214412  0.69016566  1
  O2-  O540  1  0.25176696  0.10967379  -0.07525237  1
  O2-  O541  1  0.32963459  0.16841284  0.36329694  1
  O2-  O542  1  0.34870023  0.16490930  0.67817656  1
  O2-  O543  1  0.32990857  0.41832523  0.02436792  1
  O2-  O544  1  0.32659899  0.41224672  0.35348318  1
  O2-  O545  1  0.32233986  0.40420704  0.68203905  1
  O2-  O546  1  0.33908551  0.65367844  0.02079437  1
  O2-  O547  1  0.32266454  0.66464998  0.35365767  1
  O2-  O548  1  0.31624099  0.66861630  0.70292937  1
  O2-  O549  1  0.32377089  0.91624757  0.02365850  1
  O2-  O550  1  0.32860141  0.91166166  0.35869225  1
  O2-  O551  1  0.31200908  0.90939480  0.70431977  1
  O2-  O552  1  0.57761028  0.15718563  0.02549653  1
  O2-  O553  1  0.61717268  0.17504614  0.36295850  1
  O2-  O554  1  0.57184266  0.16197244  0.67814489  1
  O2-  O555  1  0.58594812  0.42486869  0.02460033  1
  O2-  O556  1  0.58201463  0.41821164  0.34887430  1
  O2-  O557  1  0.58755308  0.43524704  0.68406593  1
  O2-  O558  1  0.58506107  0.67531295  0.02132591  1
  O2-  O559  1  0.56678309  0.64341136  0.36308863  1
  O2-  O560  1  0.57446279  0.67385654  0.69180545  1
  O2-  O561  1  0.58185726  0.92169888  0.02348481  1
  O2-  O562  1  0.56527546  0.89087215  0.36228328  1
  O2-  O563  1  0.64633715  0.95848019  0.69683062  1
  O2-  O564  1  0.82234839  0.15982858  0.01397518  1
  O2-  O565  1  0.81591535  0.14631727  0.36080541  1
  O2-  O566  1  0.83929638  0.16024071  0.69813574  1
  O2-  O567  1  0.83358655  0.41601494  0.02818329  1
  O2-  O568  1  0.82051836  0.40685220  0.35457844  1
  O2-  O569  1  0.84051864  0.42902276  0.68347981  1
  O2-  O570  1  0.81742562  0.65822816  0.02569739  1
  O2-  O571  1  0.82079405  0.66647812  0.36249744  1
  O2-  O572  1  0.81326512  0.65173580  0.69005452  1
  O2-  O573  1  0.81737804  0.90995227  0.02805394  1
  O2-  O574  1  0.85654256  0.94264998  0.36361108  1
  O2-  O575  1  0.83379824  0.90604976  0.68583044  1
