# generated using pymatgen
data_H2O
_symmetry_space_group_name_H-M   'P 1'
_cell_length_a   17.99833673
_cell_length_b   18.00133685
_cell_length_c   22.01601321
_cell_angle_alpha   89.99892590
_cell_angle_beta   89.98453306
_cell_angle_gamma   119.98963302
_symmetry_Int_Tables_number   1
_chemical_formula_structural   H2O
_chemical_formula_sum   'H384 O192'
_cell_volume   6178.05509061
_cell_formula_units_Z   192
loop_
 _symmetry_equiv_pos_site_id
 _symmetry_equiv_pos_as_xyz
  1  'x, y, z'
loop_
 _atom_type_symbol
 _atom_type_oxidation_number
  H+  1.0
  O2-  -2.0
loop_
 _atom_site_type_symbol
 _atom_site_label
 _atom_site_symmetry_multiplicity
 _atom_site_fract_x
 _atom_site_fract_y
 _atom_site_fract_z
 _atom_site_occupancy
  H+  H0  1  0.93796228  0.56755692  0.99065579  1
  H+  H1  1  0.39724272  0.87620618  0.67415063  1
  H+  H2  1  0.87617165  0.35030505  0.32913718  1
  H+  H3  1  0.39206156  0.86687163  0.48713828  1
  H+  H4  1  0.88873668  0.78164639  0.66125602  1
  H+  H5  1  0.88108491  0.53808624  0.66459829  1
  H+  H6  1  0.88682556  0.52153404  0.18099449  1
  H+  H7  1  0.54727387  0.38652875  0.34335026  1
  H+  H8  1  0.16118361  0.36777621  0.65907716  1
  H+  H9  1  0.13188412  0.86027058  0.16873109  1
  H+  H10  1  0.39301349  0.28410974  0.50292508  1
  H+  H11  1  0.97673478  0.11668986  0.50469502  1
  H+  H12  1  0.03906229  0.89471279  0.83618446  1
  H+  H13  1  0.88670078  0.02639515  0.50207303  1
  H+  H14  1  0.88068467  0.77307358  0.16286913  1
  H+  H15  1  0.33584078  0.91611184  0.10305761  1
  H+  H16  1  0.01877555  0.88278736  0.15924872  1
  H+  H17  1  0.10720653  0.11855905  0.35909113  1
  H+  H18  1  0.13502860  0.51593352  0.17971812  1
  H+  H19  1  0.62069479  0.11579580  0.99515296  1
  H+  H20  1  0.08067458  0.43983847  0.51372023  1
  H+  H21  1  0.83877151  0.39596204  0.67580098  1
  H+  H22  1  0.16535446  0.78744336  1.00266139  1
  H+  H23  1  0.37501766  0.37983890  0.67093378  1
  H+  H24  1  0.60707863  0.47809002  0.01382386  1
  H+  H25  1  0.02142138  0.41332526  0.79909301  1
  H+  H26  1  0.38035244  0.84266716  0.84721281  1
  H+  H27  1  0.05790321  0.67052926  0.01158591  1
  H+  H28  1  0.41044239  0.26170660  0.31889805  1
  H+  H29  1  0.84259266  0.93033837  0.06758876  1
  H+  H30  1  0.52612209  0.88186489  0.00420508  1
  H+  H31  1  0.52535928  0.88709596  0.15847566  1
  H+  H32  1  0.10749771  0.47516640  0.34053723  1
  H+  H33  1  -0.02430582  0.87644743  0.50004854  1
  H+  H34  1  0.28022122  0.15285619  0.49243370  1
  H+  H35  1  0.28108324  0.71111353  0.11084895  1
  H+  H36  1  0.59757910  0.37507957  0.83417929  1
  H+  H37  1  0.83316004  0.67203717  0.43612970  1
  H+  H38  1  0.62854739  0.84951088  0.32121708  1
  H+  H39  1  0.18134503  0.33672558  0.56705010  1
  H+  H40  1  0.86814932  0.22182173  0.68076520  1
  H+  H41  1  0.32779753  0.89716810  0.74874657  1
  H+  H42  1  0.40818349  0.62312138  0.51282493  1
  H+  H43  1  0.62125974  0.36120299  1.00182368  1
  H+  H44  1  0.37227780  0.48643460  0.49952315  1
  H+  H45  1  1.03513976  0.38086328  1.02167546  1
  H+  H46  1  0.66425432  0.07026878  0.26039733  1
  H+  H47  1  0.38787808  0.52131801  0.83109839  1
  H+  H48  1  0.61380195  0.14029282  0.69313928  1
  H+  H49  1  -0.03250913  0.62309408  0.50257683  1
  H+  H50  1  0.12836156  0.79588276  0.48286591  1
  H+  H51  1  0.27721905  0.14485740  1.01412063  1
  H+  H52  1  0.78426211  0.41332443  0.33969449  1
  H+  H53  1  0.86448805  0.13100413  0.48248820  1
  H+  H54  1  0.86371037  0.88950946  0.66950212  1
  H+  H55  1  0.63824332  0.85793046  0.83740481  1
  H+  H56  1  0.61257100  0.73727476  0.67165027  1
  H+  H57  1  0.34537150  0.12491569  0.33642712  1
  H+  H58  1  0.01136809  0.62197126  0.84069824  1
  H+  H59  1  0.76342342  0.88187041  0.33680681  1
  H+  H60  1  0.89500694  0.86660967  0.84256662  1
  H+  H61  1  0.85678403  0.70048528  -0.00666868  1
  H+  H62  1  0.22224316  0.61205281  0.33219721  1
  H+  H63  1  0.51873466  0.62759503  0.33119600  1
  H+  H64  1  0.88351605  0.25781108  0.01022882  1
  H+  H65  1  0.11633202  0.23339049  0.49898963  1
  H+  H66  1  0.14026652  0.15660479  0.85863865  1
  H+  H67  1  0.13957639  0.39524407  0.30182568  1
  H+  H68  1  0.87528778  0.23856260  0.33043287  1
  H+  H69  1  0.39626389  0.37392095  0.50812205  1
  H+  H70  1  0.36151420  0.97171933  0.70077862  1
  H+  H71  1  0.12644229  0.91595090  0.47799175  1
  H+  H72  1  0.86744230  0.89381486  0.15688411  1
  H+  H73  1  0.33283193  0.41298526  0.76586450  1
  H+  H74  1  0.79093707  0.10436567  0.03195754  1
  H+  H75  1  0.12324312  0.75579188  0.85502536  1
  H+  H76  1  0.64935236  0.52408432  0.66520253  1
  H+  H77  1  0.05340655  0.02095418  0.62642713  1
  H+  H78  1  0.63868678  0.86183352  0.17028313  1
  H+  H79  1  0.47251885  0.11292490  0.17604878  1
  H+  H80  1  0.98413275  0.11821794  0.33096392  1
  H+  H81  1  0.14341026  0.51496164  0.65917055  1
  H+  H82  1  0.17309777  0.18389337  0.83530800  1
  H+  H83  1  0.47257512  0.84742744  0.84126761  1
  H+  H84  1  0.23172543  0.34456602  0.00527500  1
  H+  H85  1  0.11506041  0.48964691  0.81711217  1
  H+  H86  1  0.02546425  0.88047845  0.68176237  1
  H+  H87  1  0.11071328  0.96776014  0.68082851  1
  H+  H88  1  0.13262164  0.86036616  0.64313357  1
  H+  H89  1  0.64950020  0.32348683  0.90694842  1
  H+  H90  1  0.86906795  0.12477057  0.98848836  1
  H+  H91  1  0.52105168  0.38689703  0.67843367  1
  H+  H92  1  0.21124846  0.45027503  0.25294255  1
  H+  H93  1  0.38819497  0.52269194  0.31429895  1
  H+  H94  1  0.53239042  0.39185540  0.50067939  1
  H+  H95  1  0.86410642  0.97877663  0.67146188  1
  H+  H96  1  0.38825781  0.27085917  0.66241372  1
  H+  H97  1  0.86480287  0.09085631  0.84479920  1
  H+  H98  1  0.22309493  0.86193124  0.16926885  1
  H+  H99  1  0.36263079  0.71739517  0.82872851  1
  H+  H100  1  0.61415518  0.97936881  0.67808147  1
  H+  H101  1  0.58255881  0.21208109  0.83912021  1
  H+  H102  1  0.60357143  0.95828468  0.33169117  1
  H+  H103  1  0.16934842  0.57509566  0.89798184  1
  H+  H104  1  0.47823059  0.11553759  0.68336757  1
  H+  H105  1  0.61713226  0.23893166  0.31854507  1
  H+  H106  1  0.23224141  0.37060545  0.50415486  1
  H+  H107  1  0.12438364  0.88707810  1.00918385  1
  H+  H108  1  0.88533546  0.53066314  0.51131706  1
  H+  H109  1  0.71428203  0.61867979  0.15792700  1
  H+  H110  1  0.40003845  0.19368851  0.82417544  1
  H+  H111  1  0.63930441  0.11187420  0.17271708  1
  H+  H112  1  0.85709812  0.58144803  0.99249512  1
  H+  H113  1  0.39957208  0.57608575  0.70930541  1
  H+  H114  1  0.77302689  0.63054088  0.34325598  1
  H+  H115  1  0.82375981  0.17021352  0.89279681  1
  H+  H116  1  0.21107300  0.09263298  0.35382322  1
  H+  H117  1  0.34757137  0.94323108  0.84584418  1
  H+  H118  1  0.77505045  0.87907890  0.82422077  1
  H+  H119  1  0.37101986  0.71425360  1.00051072  1
  H+  H120  1  0.08119947  0.11422196  0.16574626  1
  H+  H121  1  0.21585501  0.36548695  0.85680049  1
  H+  H122  1  0.92235845  0.84198032  0.60161218  1
  H+  H123  1  0.90246307  0.81068082  1.03813292  1
  H+  H124  1  0.88046266  0.60508194  0.83547261  1
  H+  H125  1  0.88104438  1.01150136  0.83611468  1
  H+  H126  1  0.23371642  0.60318214  0.98971347  1
  H+  H127  1  0.21143285  0.66684524  0.52496275  1
  H+  H128  1  0.70380257  0.34808176  0.84434516  1
  H+  H129  1  0.76011983  0.32624211  0.37096558  1
  H+  H130  1  0.72092217  0.09669578  0.32026305  1
  H+  H131  1  0.88408003  0.14264447  0.32912250  1
  H+  H132  1  0.85369835  0.97024225  0.33635365  1
  H+  H133  1  0.26860142  0.39775515  0.32270289  1
  H+  H134  1  0.43708491  0.08778640  0.85106790  1
  H+  H135  1  0.24680096  0.36124758  0.65728405  1
  H+  H136  1  0.16663585  0.33204449  0.21951898  1
  H+  H137  1  1.03925076  0.13390754  0.99831670  1
  H+  H138  1  0.64354314  0.61316578  0.31768372  1
  H+  H139  1  0.72982612  0.10465499  0.49064616  1
  H+  H140  1  0.72971766  0.87451710  0.65673270  1
  H+  H141  1  0.11887040  0.29923537  0.85310078  1
  H+  H142  1  0.36240345  0.14517282  0.68902130  1
  H+  H143  1  0.63763897  0.37202251  0.17690407  1
  H+  H144  1  0.78107056  0.64669538  0.67492056  1
  H+  H145  1  0.20723698  0.11517595  0.17116672  1
  H+  H146  1  0.35997282  0.71829855  0.33469889  1
  H+  H147  1  0.35974129  0.39396006  0.83053930  1
  H+  H148  1  0.38674598  0.12191217  1.00625124  1
  H+  H149  1  0.39331170  0.85670223  0.99674122  1
  H+  H150  1  0.39284696  0.59203432  0.98490681  1
  H+  H151  1  0.61880335  0.72316658  0.82651131  1
  H+  H152  1  0.67691309  0.59859933  0.25463411  1
  H+  H153  1  0.38372665  0.02354295  0.17262911  1
  H+  H154  1  0.13459016  0.77399307  0.63495292  1
  H+  H155  1  0.44657792  0.32421136  0.26241322  1
  H+  H156  1  0.61429321  0.22789119  0.17083576  1
  H+  H157  1  0.02311717  0.38348565  0.33571960  1
  H+  H158  1  0.61552311  0.13895536  0.49472062  1
  H+  H159  1  0.57494243  0.89974365  0.39125613  1
  H+  H160  1  0.03084712  0.38853765  0.16879868  1
  H+  H161  1  0.38284028  0.27391001  0.17432641  1
  H+  H162  1  0.35346852  0.13721026  0.16614443  1
  H+  H163  1  0.58380729  0.08949225  0.34315221  1
  H+  H164  1  0.93046815  0.04773313  0.16773906  1
  H+  H165  1  0.63414400  0.87304600  0.50396814  1
  H+  H166  1  0.62635374  0.51351633  0.85051777  1
  H+  H167  1  0.91132526  0.32884008  0.26604566  1
  H+  H168  1  0.60747276  0.48152204  0.15981767  1
  H+  H169  1  0.85809275  -0.11056834  0.49223685  1
  H+  H170  1  0.39004491  0.61132806  0.83428924  1
  H+  H171  1  0.12673730  0.21367649  0.02183835  1
  H+  H172  1  -0.00327668  0.16826300  0.81832590  1
  H+  H173  1  0.36268555  0.63026727  0.32899585  1
  H+  H174  1  0.47762851  0.37922837  0.85198366  1
  H+  H175  1  0.40012416  0.78150349  0.48906016  1
  H+  H176  1  0.36625242  0.65000282  0.67055197  1
  H+  H177  1  0.73300380  0.86822358  0.99297811  1
  H+  H178  1  0.34230717  0.96371672  0.32818415  1
  H+  H179  1  0.09276428  0.65601980  0.46792318  1
  H+  H180  1  0.52076444  0.38899439  0.16373469  1
  H+  H181  1  0.75982055  0.61981227  1.00100505  1
  H+  H182  1  0.30972798  0.64464072  0.48765077  1
  H+  H183  1  0.38175773  0.59317628  0.16824879  1
  H+  H184  1  0.53378215  0.62941667  0.49507096  1
  H+  H185  1  0.73081780  0.61435669  0.50815518  1
  H+  H186  1  0.12290807  0.97550731  0.01028903  1
  H+  H187  1  0.63888593  0.60673029  0.50556256  1
  H+  H188  1  0.77272948  0.39054342  0.17307967  1
  H+  H189  1  0.38456653  0.36354330  0.17563004  1
  H+  H190  1  0.52908502  0.63543981  0.82248101  1
  H+  H191  1  0.78265440  0.89986631  0.15851879  1
  H+  H192  1  0.60810685  0.71350622  0.33695966  1
  H+  H193  1  0.35718453  0.47362116  0.15902528  1
  H+  H194  1  0.85043108  0.67798683  0.76820431  1
  H+  H195  1  0.57844544  0.12140179  0.83346083  1
  H+  H196  1  0.39601801  0.78855346  0.66523190  1
  H+  H197  1  0.41754711  0.35910595  0.91227119  1
  H+  H198  1  0.74909342  0.39234388  0.66994334  1
  H+  H199  1  0.84144297  0.36236281  1.02462051  1
  H+  H200  1  0.21094632  0.85245784  0.32029691  1
  H+  H201  1  0.97682295  0.12167071  0.65751858  1
  H+  H202  1  0.09859180  0.36273298  0.50911589  1
  H+  H203  1  0.14832557  0.60856904  0.99555144  1
  H+  H204  1  0.86310445  0.13208652  0.67448785  1
  H+  H205  1  0.67748758  0.12420156  0.62158033  1
  H+  H206  1  0.22763860  0.61092152  0.83794623  1
  H+  H207  1  0.96230092  0.60769659  0.27721300  1
  H+  H208  1  0.52976755  0.63458922  -0.00160911  1
  H+  H209  1  0.04705123  0.36769478  0.67229890  1
  H+  H210  1  0.13511329  0.85144373  0.84897820  1
  H+  H211  1  0.63938297  0.87625996  0.65807106  1
  H+  H212  1  0.67392816  0.05635436  0.54845392  1
  H+  H213  1  0.16928190  0.58209937  0.48693126  1
  H+  H214  1  0.27114663  0.89215514  0.48141698  1
  H+  H215  1  0.85409233  0.17063383  0.11229803  1
  H+  H216  1  0.11864876  0.23465430  0.66732857  1
  H+  H217  1  0.77731998  0.13911128  0.16030475  1
  H+  H218  1  0.25958821  0.85500206  0.84119407  1
  H+  H219  1  0.37632355  0.46994188  0.67048242  1
  H+  H220  1  0.93975743  0.09967391  0.26611505  1
  H+  H221  1  0.10439080  0.62905685  0.83960914  1
  H+  H222  1  0.45079295  0.08545879  0.32985159  1
  H+  H223  1  0.16395821  0.58163056  0.27299857  1
  H+  H224  1  0.51636435  0.13746430  0.01792397  1
  H+  H225  1  0.11972270  1.00468680  0.34183787  1
  H+  H226  1  0.62623188  0.26807174  0.66427107  1
  H+  H227  1  0.95472636  0.33511082  0.51752202  1
  H+  H228  1  0.63727794  0.28645422  0.32384819  1
  H+  H229  1  0.85731618  0.63637869  0.15826721  1
  H+  H230  1  0.67949436  0.44266445  0.32874806  1
  H+  H231  1  0.14579893  0.13008407  0.51225060  1
  H+  H232  1  0.38614533  0.77813146  0.17157857  1
  H+  H233  1  0.90308967  0.82732373  0.22403269  1
  H+  H234  1  0.87394225  0.90094533  0.00892134  1
  H+  H235  1  0.63928077  0.61341971  -0.00100555  1
  H+  H236  1  0.37372721  0.85420750  0.32253779  1
  H+  H237  1  0.14595995  0.10606643  0.99326786  1
  H+  H238  1  0.88519493  0.73124599  0.82941487  1
  H+  H239  1  0.02526202  0.63551983  0.16500760  1
  H+  H240  1  0.48935983  0.62763571  0.67430129  1
  H+  H241  1  0.47305152  0.38699183  1.01018573  1
  H+  H242  1  0.26222975  0.10779184  0.85079064  1
  H+  H243  1  0.52003827  0.88222385  0.48322525  1
  H+  H244  1  0.09315842  0.86385840  0.32409902  1
  H+  H245  1  0.98940042  0.86286825  1.00334673  1
  H+  H246  1  0.12399760  0.24644806  0.16796466  1
  H+  H247  1  0.63899600  1.02208044  0.16727729  1
  H+  H248  1  0.60863040  0.97555974  0.00315823  1
  H+  H249  1  0.15361861  0.35321615  0.02717196  1
  H+  H250  1  0.18609526  0.00815914  0.85122944  1
  H+  H251  1  0.37013543  0.25934220  0.83961526  1
  H+  H252  1  0.60614593  0.38234069  0.67981988  1
  H+  H253  1  0.83605569  0.44723043  0.01404402  1
  H+  H254  1  0.70666238  0.35327232  1.00485857  1
  H+  H255  1  0.85928347  0.71426668  0.34314391  1
  H+  H256  1  0.11980748  0.64233302  0.66535780  1
  H+  H257  1  0.69537120  0.09991332  0.84370885  1
  H+  H258  1  0.63325061  0.77112233  0.17021564  1
  H+  H259  1  0.89750086  0.02972741  0.99166341  1
  H+  H260  1  0.88889305  0.27607608  0.17798943  1
  H+  H261  1  0.59825667  0.96172822  0.82659270  1
  H+  H262  1  0.61610093  0.72662289  1.00327521  1
  H+  H263  1  0.09493814  0.62997594  0.32939294  1
  H+  H264  1  0.62349610  0.61683225  0.16360098  1
  H+  H265  1  0.11393123  0.72533723  0.16398582  1
  H+  H266  1  0.33651592  0.65198939  0.05672790  1
  H+  H267  1  0.85901302  0.38740394  0.49926835  1
  H+  H268  1  0.72528130  0.36391244  0.51164092  1
  H+  H269  1  0.12194271  0.46966848  1.01200417  1
  H+  H270  1  0.36228390  0.88769938  0.16417169  1
  H+  H271  1  0.52242340  0.89003711  0.67482212  1
  H+  H272  1  0.12504267  0.02214167  0.16998233  1
  H+  H273  1  0.83830169  0.46659948  0.82532517  1
  H+  H274  1  0.37574449  -0.01834300  1.01593365  1
  H+  H275  1  0.73136167  0.87692716  0.50647698  1
  H+  H276  1  -0.04462389  0.84773469  0.31284778  1
  H+  H277  1  0.61753915  0.22986435  0.49385991  1
  H+  H278  1  0.62420444  0.47951539  0.50148973  1
  H+  H279  1  0.87402096  0.65698501  0.67501014  1
  H+  H280  1  0.61219632  0.96989285  0.47771349  1
  H+  H281  1  0.92019839  0.35399628  0.72050710  1
  H+  H282  1  0.41622731  0.83295632  0.23273431  1
  H+  H283  1  0.25721674  0.63803271  0.15781768  1
  H+  H284  1  0.23076757  0.34121717  0.15936448  1
  H+  H285  1  0.63322007  0.60508961  0.84744897  1
  H+  H286  1  0.85720144  0.36021891  0.81020473  1
  H+  H287  1  0.33551841  0.19009067  0.73888791  1
  H+  H288  1  0.87825707  0.29877507  0.56572922  1
  H+  H289  1  0.41285267  0.57396838  0.24990556  1
  H+  H290  1  0.66617117  0.82556051  0.26341343  1
  H+  H291  1  0.05462539  0.20785082  0.76128955  1
  H+  H292  1  0.88995577  0.78371468  0.50289772  1
  H+  H293  1  0.31821124  0.90653256  0.38798815  1
  H+  H294  1  0.84486660  0.16782423  0.39223139  1
  H+  H295  1  0.91531947  0.08665061  0.59868379  1
  H+  H296  1  0.68231925  0.36976422  0.23756794  1
  H+  H297  1  0.82736022  0.41260942  0.11274128  1
  H+  H298  1  0.58526678  0.17226746  0.10975976  1
  H+  H299  1  0.09359816  0.71731862  0.32122662  1
  H+  H300  1  0.17677935  0.83445611  0.93855046  1
  H+  H301  1  0.35931122  0.66703018  0.42487710  1
  H+  H302  1  0.57572804  0.41870722  0.07432932  1
  H+  H303  1  0.03482308  0.64770549  0.66977373  1
  H+  H304  1  0.92190906  0.33111670  0.96234693  1
  H+  H305  1  0.09527943  0.41779284  0.11271186  1
  H+  H306  1  0.09783699  0.67078974  0.07592177  1
  H+  H307  1  0.83105870  0.65702964  0.09383767  1
  H+  H308  1  0.76760023  0.50397297  0.29129626  1
  H+  H309  1  0.40724556  0.07791749  0.94985336  1
  H+  H310  1  0.14788083  0.04325645  0.51087689  1
  H+  H311  1  0.82444433  0.91542518  0.43241573  1
  H+  H312  1  0.05315673  0.67095786  0.40923444  1
  H+  H313  1  0.12011288  0.98550758  0.43276780  1
  H+  H314  1  0.09387126  0.91322434  0.77533017  1
  H+  H315  1  0.42138676  0.33167406  0.60117247  1
  H+  H316  1  0.40261436  0.07679886  0.26634820  1
  H+  H317  1  0.41894673  0.82308539  0.93670379  1
  H+  H318  1  0.56175816  0.12850921  0.40080920  1
  H+  H319  1  0.86782621  0.84918036  0.31877054  1
  H+  H320  1  0.57265482  0.16811286  0.74771813  1
  H+  H321  1  0.19362611  0.07245620  0.94410813  1
  H+  H322  1  0.27363298  0.64115144  0.67158547  1
  H+  H323  1  0.42282516  0.58963535  0.57676465  1
  H+  H324  1  0.83491625  0.91045443  0.76494836  1
  H+  H325  1  0.57819460  0.90568955  0.76655830  1
  H+  H326  1  0.60344370  0.22713265  0.01393668  1
  H+  H327  1  0.36681497  0.15041212  0.47961960  1
  H+  H328  1  0.12280212  0.21156614  0.34126137  1
  H+  H329  1  0.92096331  0.83812405  0.90358483  1
  H+  H330  1  0.58181009  0.64887559  0.43136095  1
  H+  H331  1  0.79835407  0.41397892  0.76369040  1
  H+  H332  1  0.33514740  0.40885320  0.09954583  1
  H+  H333  1  0.88848105  0.36558134  0.18019019  1
  H+  H334  1  0.63013689  0.06701403  0.89739971  1
  H+  H335  1  0.65237297  0.32336321  0.60113424  1
  H+  H336  1  0.57331044  0.41005304  0.77414757  1
  H+  H337  1  0.56728875  0.66453450  0.10085777  1
  H+  H338  1  0.34180030  0.43220067  0.43727024  1
  H+  H339  1  0.73717826  0.12296542  0.67435502  1
  H+  H340  1  0.92214995  0.07940562  0.92738043  1
  H+  H341  1  0.59197203  0.67720660  0.73095834  1
  H+  H342  1  0.36219825  0.97773883  0.47495312  1
  H+  H343  1  0.64377384  0.86685259  0.99146089  1
  H+  H344  1  0.86390278  0.64861023  0.49831151  1
  H+  H345  1  0.40648068  0.06658255  0.63367591  1
  H+  H346  1  0.50584675  0.62529646  0.16043804  1
  H+  H347  1  0.67812652  0.57869434  0.60382760  1
  H+  H348  1  0.09971099  0.13896203  0.67689659  1
  H+  H349  1  0.63556194  0.36285270  0.50979391  1
  H+  H350  1  0.70877620  0.11807697  0.97944874  1
  H+  H351  1  0.88740469  0.55637221  0.89527626  1
  H+  H352  1  0.08260354  0.91329127  0.10198101  1
  H+  H353  1  0.33584728  0.36749463  0.33514839  1
  H+  H354  1  0.91944780  0.59576859  0.60571787  1
  H+  H355  1  0.10037636  0.42159292  0.73057522  1
  H+  H356  1  0.15636366  0.82646642  0.25832866  1
  H+  H357  1  0.33523040  0.05383706  0.86810077  1
  H+  H358  1  0.39854076  0.46473452  0.99475683  1
  H+  H359  1  0.17516241  0.57609355  0.60112701  1
  H+  H360  1  0.83050718  0.41719780  0.44046695  1
  H+  H361  1  0.05016662  0.87909082  0.38212470  1
  H+  H362  1  0.96307880  0.41237601  0.66336675  1
  H+  H363  1  0.48162375  0.12095519  0.48814516  1
  H+  H364  1  0.08506874  0.17136464  0.44092201  1
  H+  H365  1  0.14618133  0.07816813  0.60174468  1
  H+  H366  1  0.58404483  0.91506129  0.09832779  1
  H+  H367  1  0.83887779  0.21037961  0.82754643  1
  H+  H368  1  0.85394598  0.21494329  0.48352023  1
  H+  H369  1  0.65878630  0.57477574  0.93796281  1
  H+  H370  1  0.41185821  0.09130688  0.53923745  1
  H+  H371  1  0.59701959  0.42388558  0.40672775  1
  H+  H372  1  0.42525385  0.57201786  0.92308393  1
  H+  H373  1  0.46427272  0.85466588  0.32499620  1
  H+  H374  1  0.13197501  0.60472188  0.18047720  1
  H+  H375  1  0.92162751  0.34154003  0.84755224  1
  H+  H376  1  0.67227829  0.83307764  0.89694310  1
  H+  H377  1  0.28896829  0.89342914  0.00834385  1
  H+  H378  1  0.32928876  0.17195204  0.10745643  1
  H+  H379  1  0.35896821  0.24075237  0.01597468  1
  H+  H380  1  0.15808921  0.84389519  0.54780812  1
  H+  H381  1  0.32830417  0.17147844  0.39261316  1
  H+  H382  1  0.33164584  0.66599090  0.76579777  1
  H+  H383  1  0.67145417  0.85210091  0.57369467  1
  O2-  O384  1  0.04759998  0.14517055  0.15429336  1
  O2-  O385  1  0.08367175  0.17137511  0.48613747  1
  O2-  O386  1  0.03298044  0.22326721  0.79752083  1
  O2-  O387  1  0.09256956  0.41994028  0.15788912  1
  O2-  O388  1  0.05387555  0.37991323  0.50210714  1
  O2-  O389  1  0.08247616  0.43397634  0.79403817  1
  O2-  O390  1  0.08557657  0.66368822  0.14991940  1
  O2-  O391  1  0.05899892  0.68156288  0.45477616  1
  O2-  O392  1  0.07339713  0.66108461  0.83352630  1
  O2-  O393  1  0.08081859  0.91254168  0.14736148  1
  O2-  O394  1  0.09472840  0.94790854  0.46877621  1
  O2-  O395  1  0.09849803  0.91665487  0.82072587  1
  O2-  O396  1  0.32414956  0.16886569  0.15269566  1
  O2-  O397  1  0.33691478  0.18322984  0.47123930  1
  O2-  O398  1  0.35045802  0.20139065  0.81973307  1
  O2-  O399  1  0.32271695  0.40831995  0.14324310  1
  O2-  O400  1  0.34027962  0.42701616  0.48189988  1
  O2-  O401  1  0.33055971  0.42188823  0.81024959  1
  O2-  O402  1  0.30641687  0.68150874  0.13195745  1
  O2-  O403  1  0.36793728  0.67460318  0.47032829  1
  O2-  O404  1  0.33083170  0.65813577  0.81082193  1
  O2-  O405  1  0.32985222  0.91543650  0.14846751  1
  O2-  O406  1  0.33064280  0.91585426  0.46469075  1
  O2-  O407  1  0.32151506  0.88476048  0.82798300  1
  O2-  O408  1  0.58527492  0.16831593  0.15508532  1
  O2-  O409  1  0.58601235  0.16871148  0.47890100  1
  O2-  O410  1  0.54800180  0.15294722  0.82153200  1
  O2-  O411  1  0.58131288  0.41928488  0.14791098  1
  O2-  O412  1  0.59330091  0.41728126  0.48753513  1
  O2-  O413  1  0.57123820  0.40926452  0.81985507  1
  O2-  O414  1  0.56798496  0.66515534  0.14595338  1
  O2-  O415  1  0.59073431  0.65345570  0.47613949  1
  O2-  O416  1  0.59036910  0.66411475  0.80920699  1
  O2-  O417  1  0.58601618  0.91716328  0.14368193  1
  O2-  O418  1  0.58387471  0.90743916  0.46948905  1
  O2-  O419  1  0.57600345  0.90181134  0.81211975  1
  O2-  O420  1  0.84061402  0.17594790  0.15422654  1
  O2-  O421  1  0.83186056  0.15766828  0.46319531  1
  O2-  O422  1  0.81002623  0.15528965  0.84996605  1
  O2-  O423  1  0.83383403  0.41916818  0.15783470  1
  O2-  O424  1  0.83368586  0.42244872  0.48567344  1
  O2-  O425  1  0.80308903  0.40569699  0.80837331  1
  O2-  O426  1  0.83046543  0.66636569  0.13830852  1
  O2-  O427  1  0.83690482  0.68105363  0.48213226  1
  O2-  O428  1  0.85753149  0.67267975  0.81261055  1
  O2-  O429  1  0.84293405  0.93059416  0.14350641  1
  O2-  O430  1  0.82640805  0.91927949  0.47805506  1
  O2-  O431  1  0.83639261  0.90967302  0.81032417  1
  O2-  O432  1  0.14579380  0.08233502  0.18263976  1
  O2-  O433  1  0.17873943  0.10257892  0.52793613  1
  O2-  O434  1  0.23601097  0.05352933  0.87438146  1
  O2-  O435  1  0.17578357  0.29993541  0.18458672  1
  O2-  O436  1  0.17320192  0.33608047  0.52155152  1
  O2-  O437  1  0.16469417  0.33484531  0.88239191  1
  O2-  O438  1  0.16555503  0.57802473  0.19527109  1
  O2-  O439  1  0.20591206  0.61016685  0.52193222  1
  O2-  O440  1  0.16697293  0.58024926  0.85310093  1
  O2-  O441  1  0.16175625  0.82855568  0.18289471  1
  O2-  O442  1  0.16499034  0.85317996  0.50083627  1
  O2-  O443  1  0.16087205  0.81875306  0.86755012  1
  O2-  O444  1  0.41114787  0.08343697  0.18857250  1
  O2-  O445  1  0.41740182  0.09119261  0.49534505  1
  O2-  O446  1  0.38636230  0.04707803  0.87535439  1
  O2-  O447  1  0.41771521  0.33524018  0.18777272  1
  O2-  O448  1  0.42428795  0.34162791  0.52295445  1
  O2-  O449  1  0.41676228  0.35393958  0.86729980  1
  O2-  O450  1  0.40928781  0.56170031  0.18261247  1
  O2-  O451  1  0.42658677  0.58492265  0.53263882  1
  O2-  O452  1  0.42264355  0.58226424  0.84686541  1
  O2-  O453  1  0.42013536  0.83760614  0.18707017  1
  O2-  O454  1  0.42805223  0.84273392  0.50113254  1
  O2-  O455  1  0.41473362  0.81526395  0.86087028  1
  O2-  O456  1  0.67130471  0.08179993  0.18424444  1
  O2-  O457  1  0.66998122  0.07590225  0.50790849  1
  O2-  O458  1  0.63269032  0.06700016  0.85196639  1
  O2-  O459  1  0.66991524  0.34573269  0.19571350  1
  O2-  O460  1  0.66398160  0.32887739  0.52407750  1
  O2-  O461  1  0.64457055  0.31689818  0.86177970  1
  O2-  O462  1  0.65560587  0.58606106  0.17466027  1
  O2-  O463  1  0.67094040  0.57860019  0.52334616  1
  O2-  O464  1  0.65465944  0.57132788  0.86939265  1
  O2-  O465  1  0.66937663  0.83183610  0.18456243  1
  O2-  O466  1  0.67149411  0.85151743  0.52517317  1
  O2-  O467  1  0.67196299  0.83078851  0.85159443  1
  O2-  O468  1  0.96778799  0.10185463  0.19027494  1
  O2-  O469  1  0.91436688  0.08729281  0.51634339  1
  O2-  O470  1  0.90553789  0.07072849  0.85377396  1
  O2-  O471  1  0.91949272  0.33608104  0.19525535  1
  O2-  O472  1  0.89000455  0.30817323  0.52228797  1
  O2-  O473  1  0.89448125  0.33133314  0.80768514  1
  O2-  O474  1  0.91955022  0.58499319  0.19197087  1
  O2-  O475  1  0.91363776  0.59089611  0.52625671  1
  O2-  O476  1  0.89685640  0.56113084  0.85093539  1
  O2-  O477  1  0.91100917  0.83313285  0.17847836  1
  O2-  O478  1  0.91751112  0.84537802  0.51752658  1
  O2-  O479  1  0.93008298  0.84241508  0.85962942  1
  O2-  O480  1  0.14821229  0.05917661  0.36526661  1
  O2-  O481  1  0.11237731  0.05649636  0.64048882  1
  O2-  O482  1  0.18121566  0.07595611  0.98764926  1
  O2-  O483  1  0.18614322  0.39500396  0.27381596  1
  O2-  O484  1  0.18627808  0.33424195  0.64093414  1
  O2-  O485  1  0.18522046  0.32232439  1.03506489  1
  O2-  O486  1  0.16114550  0.58363152  0.31847002  1
  O2-  O487  1  0.17007280  0.57600389  0.64556632  1
  O2-  O488  1  0.17144444  0.57337612  0.97850757  1
  O2-  O489  1  0.15050678  0.82235985  0.30386480  1
  O2-  O490  1  0.15166532  0.83050440  0.61501009  1
  O2-  O491  1  0.18637107  0.84468569  0.98430315  1
  O2-  O492  1  0.39355667  0.06897314  0.31132112  1
  O2-  O493  1  0.41431986  0.08478515  0.67582387  1
  O2-  O494  1  0.41491904  0.08810846  0.99467554  1
  O2-  O495  1  0.46243994  0.31137825  0.30254751  1
  O2-  O496  1  0.42187208  0.33238120  0.64655330  1
  O2-  O497  1  0.41190323  0.36005729  0.99249566  1
  O2-  O498  1  0.41403828  0.58121528  0.29779231  1
  O2-  O499  1  0.42206488  0.58880283  0.66789405  1
  O2-  O500  1  0.42710997  0.56710799  0.96864865  1
  O2-  O501  1  0.40434095  0.82358285  0.30862667  1
  O2-  O502  1  0.43082706  0.85036602  0.65595486  1
  O2-  O503  1  0.42093314  0.82360699  0.98251470  1
  O2-  O504  1  0.66151185  0.06407815  0.30599463  1
  O2-  O505  1  0.67437203  0.09801853  0.66089595  1
  O2-  O506  1  0.64632300  0.08337507  0.97431423  1
  O2-  O507  1  0.73026886  0.44456924  0.30408938  1
  O2-  O508  1  0.65215720  0.32685602  0.64666301  1
  O2-  O509  1  0.64868696  0.32836429  0.98599216  1
  O2-  O510  1  0.68864376  0.60491254  0.29873524  1
  O2-  O511  1  0.68840330  0.58143507  0.64829223  1
  O2-  O512  1  0.66532291  0.57838770  0.98496261  1
  O2-  O513  1  0.66500997  0.82462477  0.30897445  1
  O2-  O514  1  0.67037467  0.84789535  0.63878338  1
  O2-  O515  1  0.67363333  0.83616285  0.97654473  1
  O2-  O516  1  0.92679330  0.09614566  0.31051933  1
  O2-  O517  1  0.91535881  0.08505411  0.64383180  1
  O2-  O518  1  0.92562811  0.08834297  0.97284682  1
  O2-  O519  1  0.90903917  0.32303287  0.31274203  1
  O2-  O520  1  0.91747740  0.35541242  0.67566150  1
  O2-  O521  1  0.91354221  0.32157025  1.00598627  1
  O2-  O522  1  0.90444401  0.58173408  0.25811564  1
  O2-  O523  1  0.92089882  0.59752491  0.65098449  1
  O2-  O524  1  0.87863530  0.54192234  0.97740936  1
  O2-  O525  1  0.89443427  0.81853097  0.29914164  1
  O2-  O526  1  0.92196584  0.84378192  0.64670214  1
  O2-  O527  1  0.92445365  0.83110381  0.99732984  1
  O2-  O528  1  0.09554283  0.15013433  0.01605199  1
  O2-  O529  1  0.08191123  0.15850102  0.36161177  1
  O2-  O530  1  0.07650545  0.17765545  0.68523455  1
  O2-  O531  1  0.09594637  0.41333529  0.03344464  1
  O2-  O532  1  0.08475829  0.41236230  0.34587889  1
  O2-  O533  1  0.10449128  0.41261039  0.68394658  1
  O2-  O534  1  0.10983705  0.67754617  0.03056818  1
  O2-  O535  1  0.05747986  0.65585283  0.33441696  1
  O2-  O536  1  0.09801863  0.68176144  0.67316806  1
  O2-  O537  1  0.08957603  0.91319823  0.02323903  1
  O2-  O538  1  0.05797096  0.89050609  0.33844847  1
  O2-  O539  1  0.08592692  0.90842913  0.69648323  1
  O2-  O540  1  0.33820917  0.18109173  0.02922062  1
  O2-  O541  1  0.31689191  0.15847599  0.34844363  1
  O2-  O542  1  0.33494062  0.18062719  0.69453799  1
  O2-  O543  1  0.37399895  0.40908822  0.01821140  1
  O2-  O544  1  0.31770201  0.40741291  0.34905074  1
  O2-  O545  1  0.34330625  0.41037828  0.68561650  1
  O2-  O546  1  0.34057851  0.65197245  0.01197277  1
  O2-  O547  1  0.33361617  0.65830391  0.35073680  1
  O2-  O548  1  0.33356284  0.67629414  0.68709509  1
  O2-  O549  1  0.34821785  0.91927072  0.02598349  1
  O2-  O550  1  0.31388616  0.90230395  0.34254982  1
  O2-  O551  1  0.33640356  0.90933728  0.70455204  1
  O2-  O552  1  0.57865293  0.16717399  0.03014596  1
  O2-  O553  1  0.53710877  0.09221555  0.36459585  1
  O2-  O554  1  0.58058433  0.16965457  0.70223788  1
  O2-  O555  1  0.57109684  0.41718010  0.02823447  1
  O2-  O556  1  0.60170857  0.43144046  0.36209318  1
  O2-  O557  1  0.57944400  0.41435819  0.69737901  1
  O2-  O558  1  0.58660376  0.66683407  0.01918538  1
  O2-  O559  1  0.57616316  0.65305279  0.35097979  1
  O2-  O560  1  0.58103953  0.67763108  0.68648792  1
  O2-  O561  1  0.58719176  0.91642109  0.01856607  1
  O2-  O562  1  0.57020964  0.89761489  0.34595351  1
  O2-  O563  1  0.58664899  0.91807860  0.68887581  1
  O2-  O564  1  0.82693811  0.14647995  0.00149675  1
  O2-  O565  1  0.84870159  0.17175729  0.34553088  1
  O2-  O566  1  0.83373727  0.16181322  0.69277011  1
  O2-  O567  1  0.80862794  0.39106667  0.03606065  1
  O2-  O568  1  0.81053620  0.38240044  0.36382899  1
  O2-  O569  1  0.80892915  0.42710890  0.68732734  1
  O2-  O570  1  0.82369305  0.64453371  0.01349814  1
  O2-  O571  1  0.83045831  0.65831541  0.36397152  1
  O2-  O572  1  0.84234155  0.68596291  0.68956117  1
  O2-  O573  1  0.84208146  0.92987481  0.02155726  1
  O2-  O574  1  0.82373026  0.91227870  0.35409476  1
  O2-  O575  1  0.83118910  0.91774925  0.68509617  1
