# generated using pymatgen
data_H2O
_symmetry_space_group_name_H-M   'P 1'
_cell_length_a   17.99703240
_cell_length_b   17.99359704
_cell_length_c   21.99789113
_cell_angle_alpha   89.97461909
_cell_angle_beta   90.01444588
_cell_angle_gamma   120.02050438
_symmetry_Int_Tables_number   1
_chemical_formula_structural   H2O
_chemical_formula_sum   'H384 O192'
_cell_volume   6167.94875598
_cell_formula_units_Z   192
loop_
 _symmetry_equiv_pos_site_id
 _symmetry_equiv_pos_as_xyz
  1  'x, y, z'
loop_
 _atom_type_symbol
 _atom_type_oxidation_number
  H+  1.0
  O2-  -2.0
loop_
 _atom_site_type_symbol
 _atom_site_label
 _atom_site_symmetry_multiplicity
 _atom_site_fract_x
 _atom_site_fract_y
 _atom_site_fract_z
 _atom_site_occupancy
  H+  H0  1  0.77175796  0.63880774  0.50231334  1
  H+  H1  1  1.11805051  0.88353570  0.67598530  1
  H+  H2  1  0.60422423  0.66237723  0.15526194  1
  H+  H3  1  0.71732380  0.11915664  0.33124873  1
  H+  H4  1  0.87136021  0.72444866  0.66410039  1
  H+  H5  1  0.23645601  0.11096134  0.52606698  1
  H+  H6  1  0.40272064  0.88225019  0.98047697  1
  H+  H7  1  0.88125905  0.36380608  0.17513663  1
  H+  H8  1  0.35901874  0.73066410  1.00511218  1
  H+  H9  1  0.86278587  0.51120344  0.53841389  1
  H+  H10  1  0.84956797  -0.04527195  0.34684022  1
  H+  H11  1  0.62851464  0.77231245  -0.01148374  1
  H+  H12  1  0.36506941  0.73269637  0.16567301  1
  H+  H13  1  0.92660902  0.74984675  0.15267563  1
  H+  H14  1  0.25588678  0.08203516  0.32092193  1
  H+  H15  1  0.86242471  0.89468596  0.50174022  1
  H+  H16  1  0.77144016  0.87613815  0.67583551  1
  H+  H17  1  0.44642749  0.34308559  0.17054092  1
  H+  H18  1  0.12014580  0.89848725  0.49540570  1
  H+  H19  1  0.48061299  0.10678550  0.18053343  1
  H+  H20  1  0.90318006  0.29053260  0.84162088  1
  H+  H21  1  0.54175840  0.12500654  0.67608481  1
  H+  H22  1  0.22574704  0.59479628  0.00963972  1
  H+  H23  1  0.13034593  0.53461346  0.16130921  1
  H+  H24  1  0.10467768  0.02453027  0.17103163  1
  H+  H25  1  0.87416096  0.73437174  0.81576691  1
  H+  H26  1  0.12889711  0.04751022  0.98731625  1
  H+  H27  1  0.48709020  0.90782634  0.94287800  1
  H+  H28  1  0.13433285  0.28162407  0.83027888  1
  H+  H29  1  0.19116534  0.10544387  0.18823969  1
  H+  H30  1  0.61012644  0.22417427  0.99884709  1
  H+  H31  1  0.27154716  0.39229720  0.50922500  1
  H+  H32  1  -0.00319994  0.62815728  0.17114066  1
  H+  H33  1  0.28588323  0.86646194  -0.01175314  1
  H+  H34  1  0.38077177  1.02215079  -0.01248504  1
  H+  H35  1  0.57405192  0.42957219  0.14519661  1
  H+  H36  1  0.75184015  0.60464315  -0.02323107  1
  H+  H37  1  0.72101222  0.87997205  0.16581161  1
  H+  H38  1  0.13328149  0.58351513  0.00433436  1
  H+  H39  1  0.62990563  0.36226981  0.49552253  1
  H+  H40  1  0.05181957  0.19011312  0.38722617  1
  H+  H41  1  0.21982408  0.13344560  -0.02130239  1
  H+  H42  1  0.10947141  0.38994428  0.81495202  1
  H+  H43  1  0.13061904  0.28390982  0.16768435  1
  H+  H44  1  1.01113717  0.40118676  0.14093614  1
  H+  H45  1  0.42241083  0.64716167  0.67063403  1
  H+  H46  1  0.63697326  0.02198372  1.00814752  1
  H+  H47  1  0.58710412  0.63264752  0.01541307  1
  H+  H48  1  0.39147272  0.90307017  0.65527219  1
  H+  H49  1  0.88100809  0.03522844  0.15587370  1
  H+  H50  1  0.02612895  0.62310128  -0.00583657  1
  H+  H51  1  0.62554513  -0.01401349  0.66975969  1
  H+  H52  1  0.37289805  0.97463915  0.15816574  1
  H+  H53  1  0.39858972  0.62020230  0.51286065  1
  H+  H54  1  0.88953426  0.77913381  0.51431578  1
  H+  H55  1  0.75936425  0.10002907  0.64628937  1
  H+  H56  1  0.14194370  0.15314569  0.50789643  1
  H+  H57  1  0.36436268  0.63428225  0.34347551  1
  H+  H58  1  0.11191109  0.32468904  0.67129326  1
  H+  H59  1  0.88618713  0.60746061  0.63938005  1
  H+  H60  1  0.85514150  0.14265324  0.48654514  1
  H+  H61  1  0.72517895  0.37960850  0.97732322  1
  H+  H62  1  0.91571460  0.83387212  0.89391326  1
  H+  H63  1  0.10002485  0.91815475  0.00845724  1
  H+  H64  1  0.46869546  0.62471082  0.17317840  1
  H+  H65  1  0.28412041  0.88924992  0.15524148  1
  H+  H66  1  -0.00492168  0.12227129  -0.00075342  1
  H+  H67  1  0.12691448  0.09903021  0.66858414  1
  H+  H68  1  0.14692595  0.73289811  0.12106088  1
  H+  H69  1  0.61142142  0.57633359  0.22015997  1
  H+  H70  1  0.14274469  0.02574773  0.51712075  1
  H+  H71  1  0.24993650  0.05852126  0.35095519  1
  H+  H72  1  0.35655270  0.39846557  0.00740724  1
  H+  H73  1  0.60392390  0.21938053  0.49589594  1
  H+  H74  1  0.63211432  0.11493982  0.16796010  1
  H+  H75  1  0.46985075  0.11184465  0.99061725  1
  H+  H76  1  0.03635520  0.64216379  0.35328291  1
  H+  H77  1  0.18290216  0.84445195  0.54634693  1
  H+  H78  1  0.49083972  0.12002836  0.51772027  1
  H+  H79  1  0.11380706  0.14070584  0.81982887  1
  H+  H80  1  0.27394193  0.12731209  0.67020859  1
  H+  H81  1  0.25005663  0.67067099  0.66002050  1
  H+  H82  1  0.60312146  0.60439353  0.82257125  1
  H+  H83  1  0.76450037  0.88167395  -0.00265921  1
  H+  H84  1  0.63242697  0.83525069  0.82923015  1
  H+  H85  1  0.88712370  0.28765857  0.32548977  1
  H+  H86  1  0.84646695  0.66406097  0.41813770  1
  H+  H87  1  0.60964696  0.97199491  0.34401270  1
  H+  H88  1  0.91843470  0.22841286  0.65496066  1
  H+  H89  1  0.13492763  0.76799166  0.36022174  1
  H+  H90  1  0.10252497  0.14538991  0.99759465  1
  H+  H91  1  0.63149254  0.36537868  0.68900779  1
  H+  H92  1  0.38508510  0.36555695  0.51895555  1
  H+  H93  1  0.13035865  0.64697347  0.15714841  1
  H+  H94  1  0.09407772  0.14828439  0.34559775  1
  H+  H95  1  0.85951173  0.13252335  0.00680472  1
  H+  H96  1  0.14118985  0.29429876  0.32122437  1
  H+  H97  1  0.39676025  0.12499484  0.52830732  1
  H+  H98  1  0.63539925  0.38789269  0.14216362  1
  H+  H99  1  1.01527734  0.38321746  0.48638052  1
  H+  H100  1  0.93405296  0.09466160  0.32047583  1
  H+  H101  1  0.84937197  0.15138618  0.33702237  1
  H+  H102  1  0.34618833  0.12184888  0.82371986  1
  H+  H103  1  0.85312821  0.63341210  0.51792221  1
  H+  H104  1  0.71806021  0.85592946  0.32311449  1
  H+  H105  1  0.00990678  0.88192899  0.35501920  1
  H+  H106  1  0.61045525  0.13561842  0.00372316  1
  H+  H107  1  0.47582766  0.86686555  0.48770718  1
  H+  H108  1  0.16722901  0.88269876  0.99942408  1
  H+  H109  1  0.37362405  0.98926248  0.81555530  1
  H+  H110  1  1.02442852  0.39682705  0.82245743  1
  H+  H111  1  0.87469102  0.62637133  0.99279113  1
  H+  H112  1  0.36565183  0.21620316  0.67146789  1
  H+  H113  1  0.66589537  0.33579365  0.22420538  1
  H+  H114  1  0.52671465  0.40946274  0.34011943  1
  H+  H115  1  0.54129279  0.60725647  0.66844714  1
  H+  H116  1  0.63543077  0.86317998  0.99001016  1
  H+  H117  1  0.61285250  0.47583340  0.49819130  1
  H+  H118  1  0.36033397  0.71982097  0.34706622  1
  H+  H119  1  0.10476952  0.89395355  0.35647476  1
  H+  H120  1  0.91886812  0.27590509  0.99651390  1
  H+  H121  1  0.23796143  0.87364356  0.81936383  1
  H+  H122  1  0.47832286  0.85979658  0.33716455  1
  H+  H123  1  0.37457406  0.23595384  0.52221839  1
  H+  H124  1  0.10343797  0.65024132  0.65756580  1
  H+  H125  1  0.86763046  0.40066729  0.33099385  1
  H+  H126  1  0.38791202  0.09745600  0.19149854  1
  H+  H127  1  0.77437029  0.88175371  0.82483131  1
  H+  H128  1  0.37115300  0.72772395  0.49442541  1
  H+  H129  1  0.90358028  0.38334937  0.00645197  1
  H+  H130  1  0.52407352  0.38447234  0.69036428  1
  H+  H131  1  0.32180789  0.15046957  0.76210035  1
  H+  H132  1  0.85406189  0.59566307  0.14991125  1
  H+  H133  1  0.83946482  0.17576689  0.77172784  1
  H+  H134  1  0.66868768  0.57479575  0.56775357  1
  H+  H135  1  0.39728147  0.30011332  0.33631122  1
  H+  H136  1  0.73595446  0.07402683  0.85584338  1
  H+  H137  1  0.52469353  0.88272658  0.01869637  1
  H+  H138  1  0.33780580  0.16554638  0.36394219  1
  H+  H139  1  0.62242921  0.62446733  0.34549067  1
  H+  H140  1  0.86639790  0.89252059  0.67368945  1
  H+  H141  1  0.72346539  0.34991483  0.16464212  1
  H+  H142  1  0.45998199  0.61390797  0.98364181  1
  H+  H143  1  0.47646328  0.85893611  0.82486622  1
  H+  H144  1  0.12551991  0.64410518  0.34861318  1
  H+  H145  1  0.85268225  0.90680302  0.15551264  1
  H+  H146  1  0.97137373  0.91345033  0.20320103  1
  H+  H147  1  -0.00971722  0.62932287  0.83694743  1
  H+  H148  1  0.77604095  0.39236028  0.47413357  1
  H+  H149  1  0.86059870  0.48236315  0.67034388  1
  H+  H150  1  0.38414478  0.09826046  0.66849303  1
  H+  H151  1  0.39286878  0.52783153  0.51030691  1
  H+  H152  1  -0.03974246  0.85921807  -0.00563283  1
  H+  H153  1  0.75582231  0.56974451  0.14349125  1
  H+  H154  1  0.62312205  0.00295542  0.17190858  1
  H+  H155  1  0.62268357  0.89941923  0.17298033  1
  H+  H156  1  0.13235933  0.25370856  0.65779710  1
  H+  H157  1  0.52930088  0.63460434  0.49725105  1
  H+  H158  1  0.21932745  0.79809812  0.23250903  1
  H+  H159  1  0.02477302  0.13854545  0.82519775  1
  H+  H160  1  0.22265011  0.37073025  0.82974017  1
  H+  H161  1  0.41081812  0.49612169  0.65166615  1
  H+  H162  1  0.14536523  0.54292299  0.63982847  1
  H+  H163  1  0.69317202  0.66538507  0.22236600  1
  H+  H164  1  0.35198842  0.48452720  0.00334629  1
  H+  H165  1  0.13381276  0.52591981  0.81776879  1
  H+  H166  1  0.88425978  0.28197173  0.49392356  1
  H+  H167  1  0.86985744  0.72610225  0.35973595  1
  H+  H168  1  0.97873452  0.86944468  0.51287049  1
  H+  H169  1  0.60920782  0.22215882  0.15788775  1
  H+  H170  1  0.89891727  0.82041334  0.19084398  1
  H+  H171  1  0.11890694  0.98126797  0.67857882  1
  H+  H172  1  0.75361975  0.61175185  0.34491686  1
  H+  H173  1  0.88182181  0.76241869  0.99083770  1
  H+  H174  1  0.93911071  0.60551642  0.27185679  1
  H+  H175  1  0.85494648  0.23023882  0.16089538  1
  H+  H176  1  0.63106763  0.10450257  0.51156518  1
  H+  H177  1  0.83424205  0.91883571  0.76605111  1
  H+  H178  1  0.40723689  0.83137887  0.87801007  1
  H+  H179  1  0.85064914  0.87608626  1.00017656  1
  H+  H180  1  0.63257864  0.48712076  -0.00743941  1
  H+  H181  1  0.61821840  0.88064085  0.49751721  1
  H+  H182  1  0.92101541  0.53359821  0.17925611  1
  H+  H183  1  0.24936917  0.86791237  0.36875626  1
  H+  H184  1  0.12245711  0.72975244  0.81262702  1
  H+  H185  1  0.58122510  0.18910177  0.76461756  1
  H+  H186  1  0.49652853  0.40867929  0.83919317  1
  H+  H187  1  0.37285207  0.90117107  0.80272727  1
  H+  H188  1  0.01120890  0.12594620  0.67691224  1
  H+  H189  1  0.58808965  -0.09100074  0.76394611  1
  H+  H190  1  0.13341989  0.91233247  0.16405456  1
  H+  H191  1  1.01384633  0.15598115  0.15150308  1
  H+  H192  1  0.88523469  0.02383229  0.83747779  1
  H+  H193  1  0.64116944  0.74228848  0.66770953  1
  H+  H194  1  0.78112231  0.40497438  0.82336691  1
  H+  H195  1  0.63958860  0.37355333  0.31630034  1
  H+  H196  1  0.59372482  0.07495849  0.82811319  1
  H+  H197  1  0.13621217  0.38095333  0.31942886  1
  H+  H198  1  0.43716902  0.21046117  0.37613805  1
  H+  H199  1  0.38040827  0.53377037  0.17221511  1
  H+  H200  1  0.52714932  0.89945370  0.17760280  1
  H+  H201  1  0.23010472  0.61424752  0.32836969  1
  H+  H202  1  0.22799430  0.37513162  0.16842657  1
  H+  H203  1  0.87002139  0.03511762  0.51360410  1
  H+  H204  1  0.38978785  0.53226456  0.33367282  1
  H+  H205  1  0.13036703  0.77048842  0.20663289  1
  H+  H206  1  0.90059541  0.12051707  0.83504968  1
  H+  H207  1  0.37348679  0.61455318  0.98475231  1
  H+  H208  1  0.21856825  0.87200809  0.65800828  1
  H+  H209  1  0.80558564  0.34303139  0.00611743  1
  H+  H210  1  0.03118832  0.34797955  0.73779835  1
  H+  H211  1  0.09961343  0.15240540  0.15267454  1
  H+  H212  1  0.81330674  0.47075742  0.12712450  1
  H+  H213  1  0.47655147  0.37686068  0.99149921  1
  H+  H214  1  0.62355464  0.48129378  0.34804548  1
  H+  H215  1  0.59656459  0.12279642  0.35354340  1
  H+  H216  1  0.58412584  0.89027835  0.64915300  1
  H+  H217  1  0.93838958  0.22992993  0.76724069  1
  H+  H218  1  0.14758653  0.28708061  0.51493472  1
  H+  H219  1  0.72538297  0.11810285  0.17041063  1
  H+  H220  1  0.21974767  0.10792338  0.82814014  1
  H+  H221  1  0.36701979  0.40265493  0.82189589  1
  H+  H222  1  0.12922397  0.77731923  0.66038773  1
  H+  H223  1  0.38947013  0.29040000  -0.02180195  1
  H+  H224  1  0.50207849  0.10698172  0.35707842  1
  H+  H225  1  0.38648872  0.86510622  0.47491144  1
  H+  H226  1  0.62195669  0.94710981  0.83129052  1
  H+  H227  1  0.11444736  0.48308499  0.34055140  1
  H+  H228  1  0.63472707  0.86526712  0.32042666  1
  H+  H229  1  0.67140931  0.61073984  0.95094748  1
  H+  H230  1  0.59187999  0.66139956  0.43867950  1
  H+  H231  1  0.53662597  0.63024168  0.34354538  1
  H+  H232  1  0.35952897  0.97127890  0.71823806  1
  H+  H233  1  0.22231235  0.61309589  0.82123784  1
  H+  H234  1  0.39635466  0.86814974  0.18092101  1
  H+  H235  1  0.47194827  0.12885139  0.83571282  1
  H+  H236  1  0.46658778  0.88239521  0.66853976  1
  H+  H237  1  0.62218378  0.38982592  -0.00943219  1
  H+  H238  1  0.63653554  0.60885862  0.51036617  1
  H+  H239  1  0.11169416  -0.01975046  0.82263725  1
  H+  H240  1  0.47165810  0.61001608  0.83006894  1
  H+  H241  1  0.36177327  0.40780224  0.15450735  1
  H+  H242  1  0.38448214  0.34961572  0.67213885  1
  H+  H243  1  0.89075553  0.87081268  0.83593083  1
  H+  H244  1  0.08928630  0.62326355  0.45045553  1
  H+  H245  1  0.63579402  0.82548949  0.68171395  1
  H+  H246  1  0.03728558  0.85475904  0.14835322  1
  H+  H247  1  0.34213284  0.77432824  0.67360306  1
  H+  H248  1  0.16862454  0.73923206  -0.02908073  1
  H+  H249  1  0.92953867  0.59060937  0.92132260  1
  H+  H250  1  0.47643025  0.36875263  0.51544837  1
  H+  H251  1  0.26936397  0.37347652  0.67182436  1
  H+  H252  1  0.12472155  0.84064036  -0.00101030  1
  H+  H253  1  0.58856498  0.42970191  0.74896136  1
  H+  H254  1  0.08541236  0.91679241  0.74338310  1
  H+  H255  1  0.89785724  0.51886439  -0.02252400  1
  H+  H256  1  0.61653563  0.70057373  0.82716820  1
  H+  H257  1  0.65333861  0.60360768  0.66302174  1
  H+  H258  1  0.90651432  0.62786762  0.33460954  1
  H+  H259  1  0.02321598  0.88838951  0.82433545  1
  H+  H260  1  0.35903512  0.14004324  -0.01576537  1
  H+  H261  1  1.00983641  0.36010291  1.00765417  1
  H+  H262  1  0.65062981  0.51466189  0.66298397  1
  H+  H263  1  0.60139636  0.74907372  0.15622986  1
  H+  H264  1  0.64182383  0.31239181  0.83052809  1
  H+  H265  1  0.76955907  0.88536250  0.50377086  1
  H+  H266  1  0.36266346  0.73118701  0.80971042  1
  H+  H267  1  0.62843690  0.09585562  0.80460230  1
  H+  H268  1  0.63783585  0.76464467  0.51105585  1
  H+  H269  1  0.87057556  0.85260803  0.35192547  1
  H+  H270  1  0.86762910  0.39579158  0.82469730  1
  H+  H271  1  0.23501826  0.87573046  0.48343642  1
  H+  H272  1  0.33239260  0.18808316  0.17882432  1
  H+  H273  1  0.35971871  0.64200538  0.16351279  1
  H+  H274  1  0.26797794  0.40387073  0.34515466  1
  H+  H275  1  0.89805614  0.72688851  0.17993398  1
  H+  H276  1  0.35027585  0.06024529  0.32441717  1
  H+  H277  1  0.22608940  0.61688130  0.16921183  1
  H+  H278  1  0.38623819  0.85224932  0.34433630  1
  H+  H279  1  0.87830048  0.01401573  0.98770878  1
  H+  H280  1  0.97797473  0.04377909  0.29852881  1
  H+  H281  1  0.85587847  0.14158549  0.16106654  1
  H+  H282  1  0.08158343  0.01071011  0.32894348  1
  H+  H283  1  0.35028205  -0.04460599  0.36061454  1
  H+  H284  1  0.42409948  0.68489737  0.68672279  1
  H+  H285  1  0.89233142  0.37425159  0.49399603  1
  H+  H286  1  0.12375331  0.46951754  0.04648584  1
  H+  H287  1  0.35412740  0.40068957  0.35022348  1
  H+  H288  1  0.14170421  0.19825087  0.44619002  1
  H+  H289  1  0.76997617  0.39414592  0.68469916  1
  H+  H290  1  0.42440830  0.33247281  0.61393113  1
  H+  H291  1  0.91478059  0.07825768  0.22031922  1
  H+  H292  1  0.32634772  0.41825188  0.44816414  1
  H+  H293  1  0.86299732  0.02855534  0.67667373  1
  H+  H294  1  0.78637503  0.63143735  0.66545042  1
  H+  H295  1  0.16683020  0.83323687  0.30345926  1
  H+  H296  1  0.62326035  0.21928080  0.67746414  1
  H+  H297  1  0.10193288  0.06745686  0.26703254  1
  H+  H298  1  0.82336434  0.92177465  0.08903993  1
  H+  H299  1  0.30781574  0.69063249  0.72737106  1
  H+  H300  1  0.35431062  0.48368860  0.81574345  1
  H+  H301  1  0.67998147  0.04407683  0.91485432  1
  H+  H302  1  0.68938828  0.34535214  0.54035135  1
  H+  H303  1  0.59061615  0.64422079  0.73359767  1
  H+  H304  1  0.42927910  0.37182295  0.89360530  1
  H+  H305  1  0.68201181  0.12123231  0.66222392  1
  H+  H306  1  0.62238680  0.97218493  0.49430695  1
  H+  H307  1  0.35614181  0.31890902  0.28008922  1
  H+  H308  1  0.14759348  0.86700525  0.83239454  1
  H+  H309  1  0.07195166  0.94580201  0.06657253  1
  H+  H310  1  0.65750159  0.08559774  0.27296097  1
  H+  H311  1  0.84460406  0.41565421  0.09119788  1
  H+  H312  1  0.71144952  0.57056631  0.28161031  1
  H+  H313  1  0.93566083  0.34677844  0.90219216  1
  H+  H314  1  0.15804911  0.08743841  0.88705666  1
  H+  H315  1  0.15551953  0.34513798  0.92864409  1
  H+  H316  1  0.16295599  0.07326843  0.61000727  1
  H+  H317  1  0.32472848  0.42962462  0.09463043  1
  H+  H318  1  0.11692640  0.51419658  0.49303882  1
  H+  H319  1  0.20809644  0.37259482  -0.01144308  1
  H+  H320  1  0.64945288  0.40734728  0.83742473  1
  H+  H321  1  0.92007750  0.33869073  0.23060956  1
  H+  H322  1  0.91092729  0.07880956  0.92920504  1
  H+  H323  1  0.97518354  0.86521381  0.66365910  1
  H+  H324  1  0.66430488  0.81845612  0.89179887  1
  H+  H325  1  0.60939763  0.42738563  0.06123737  1
  H+  H326  1  0.83433257  0.16852760  0.06574499  1
  H+  H327  1  0.90373807  0.83483346  0.29050285  1
  H+  H328  1  0.40871019  0.05074313  0.27536485  1
  H+  H329  1  0.56312029  0.67835508  0.06607452  1
  H+  H330  1  0.91914445  0.84056233  0.60269898  1
  H+  H331  1  0.84593169  0.43945150  0.42493638  1
  H+  H332  1  0.66043808  0.34303124  0.62834907  1
  H+  H333  1  0.07619043  0.15795088  0.73186557  1
  H+  H334  1  0.08035631  0.93173318  0.44460692  1
  H+  H335  1  0.19793662  0.80213714  0.91320678  1
  H+  H336  1  0.82437060  0.17813985  0.40019094  1
  H+  H337  1  0.52873768  0.23540522  0.77396655  1
  H+  H338  1  0.34088635  0.67980367  0.06815088  1
  H+  H339  1  0.08411574  0.41727223  0.39764910  1
  H+  H340  1  0.72499903  0.11188212  1.00120538  1
  H+  H341  1  0.44786055  0.56384251  0.59568368  1
  H+  H342  1  0.57565166  0.16214975  0.09880740  1
  H+  H343  1  0.42000513  0.58840341  0.27238314  1
  H+  H344  1  0.42179180  0.83846918  0.24388843  1
  H+  H345  1  0.66332476  0.81805132  0.57307405  1
  H+  H346  1  0.81914912  0.90888396  0.41274169  1
  H+  H347  1  0.42542852  0.07911157  0.58332607  1
  H+  H348  1  0.16812441  0.58838856  0.26942348  1
  H+  H349  1  0.08060557  0.65264582  0.05507938  1
  H+  H350  1  0.90199983  0.63260096  0.83853752  1
  H+  H351  1  0.47323154  0.40053626  0.22764524  1
  H+  H352  1  0.29570719  0.11292683  0.13277625  1
  H+  H353  1  0.58830557  0.91075826  0.40214155  1
  H+  H354  1  0.87430690  0.49241534  0.33244515  1
  H+  H355  1  0.58337061  0.91368087  0.07828482  1
  H+  H356  1  0.68310344  0.54702924  0.86708280  1
  H+  H357  1  0.33265589  0.65433096  0.44603610  1
  H+  H358  1  0.10827655  0.38810044  0.49356748  1
  H+  H359  1  0.73287771  0.38362844  0.31274989  1
  H+  H360  1  0.32844871  0.41020116  0.73081525  1
  H+  H361  1  0.33640836  0.18354570  0.03703925  1
  H+  H362  1  0.83986401  0.42949963  0.74864580  1
  H+  H363  1  0.67697467  0.08071073  0.56436638  1
  H+  H364  1  0.85052905  0.67081363  0.75967087  1
  H+  H365  1  0.82842059  0.63275632  0.05229758  1
  H+  H366  1  0.16198093  0.59428060  0.57769102  1
  H+  H367  1  0.33519953  0.91003574  0.05246716  1
  H+  H368  1  0.66854765  0.84874279  0.23232385  1
  H+  H369  1  0.36293440  0.64233415  0.80366672  1
  H+  H370  1  0.57630601  0.41722075  0.43830559  1
  H+  H371  1  0.40604904  0.58955691  0.88491255  1
  H+  H372  1  0.11609460  0.63696390  0.81240708  1
  H+  H373  1  0.06680456  0.17288820  0.06089777  1
  H+  H374  1  0.98054425  0.37274904  0.32465183  1
  H+  H375  1  0.08289632  0.67512303  0.72282652  1
  H+  H376  1  0.35444012  0.18032868  0.46341863  1
  H+  H377  1  0.16262707  0.34252154  0.57387359  1
  H+  H378  1  0.76647675  0.14273233  0.48535429  1
  H+  H379  1  0.66951714  0.35313642  0.91583055  1
  H+  H380  1  0.56456884  0.14742147  0.44300353  1
  H+  H381  1  0.88346731  0.10289344  0.56638895  1
  H+  H382  1  0.16579332  0.34523997  0.23449806  1
  H+  H383  1  0.41555379  0.08417449  0.89586856  1
  O2-  O384  1  0.07537036  0.18755835  0.13640694  1
  O2-  O385  1  0.12356331  0.19142426  0.48867890  1
  O2-  O386  1  0.08284085  0.17131865  0.80662706  1
  O2-  O387  1  0.05641362  0.45205803  0.11890488  1
  O2-  O388  1  0.07834529  0.41474071  0.47221555  1
  O2-  O389  1  0.07536774  0.41472071  0.79579962  1
  O2-  O390  1  0.10292376  0.68249290  0.14248421  1
  O2-  O391  1  0.07091597  0.59252923  0.48991363  1
  O2-  O392  1  0.08660352  0.66978513  0.79817281  1
  O2-  O393  1  0.08309589  0.91523144  0.15044443  1
  O2-  O394  1  0.08453160  0.92783519  0.48940022  1
  O2-  O395  1  0.08395345  0.91840247  0.80802541  1
  O2-  O396  1  0.30045849  0.12541593  0.17632088  1
  O2-  O397  1  0.34955901  0.17386976  0.50796716  1
  O2-  O398  1  0.31325056  0.14768052  0.80674003  1
  O2-  O399  1  0.32320483  0.42877464  0.14186063  1
  O2-  O400  1  0.33178194  0.41606284  0.49283089  1
  O2-  O401  1  0.32698379  0.42188291  0.80468041  1
  O2-  O402  1  0.33273509  0.67504414  0.14675310  1
  O2-  O403  1  0.34562982  0.66413360  0.48972572  1
  O2-  O404  1  0.33196372  0.67299791  0.79060828  1
  O2-  O405  1  0.34331675  0.91525083  0.14056556  1
  O2-  O406  1  0.32903747  0.91118622  0.44615895  1
  O2-  O407  1  0.34592825  0.93548903  0.79026309  1
  O2-  O408  1  0.57727937  0.16017067  0.14416925  1
  O2-  O409  1  0.57001656  0.15557948  0.48965251  1
  O2-  O410  1  0.56031350  0.21354711  0.79686380  1
  O2-  O411  1  0.62245083  0.43145540  0.12250164  1
  O2-  O412  1  0.57878186  0.41418451  0.48347239  1
  O2-  O413  1  0.60148743  0.44695723  0.82095830  1
  O2-  O414  1  0.56997513  0.68834047  0.14079073  1
  O2-  O415  1  0.59155064  0.66399763  0.48436249  1
  O2-  O416  1  0.57815813  0.64125547  0.81174301  1
  O2-  O417  1  0.58832950  0.93239338  0.16039892  1
  O2-  O418  1  0.59318920  0.91292410  0.47738412  1
  O2-  O419  1  0.58118148  0.89432298  0.80780841  1
  O2-  O420  1  0.82292025  0.16918678  0.14597595  1
  O2-  O421  1  0.82547404  0.17362824  0.46765029  1
  O2-  O422  1  0.89011632  0.20044970  0.79780363  1
  O2-  O423  1  0.83038331  0.42669796  0.13318386  1
  O2-  O424  1  0.83819169  0.43166859  0.46989211  1
  O2-  O425  1  0.83922177  0.42518186  0.80505157  1
  O2-  O426  1  0.80422274  0.57205487  0.12153614  1
  O2-  O427  1  0.83528591  0.66824013  0.49354908  1
  O2-  O428  1  0.84869124  0.67327529  0.80460274  1
  O2-  O429  1  0.82192040  0.93184744  0.13414567  1
  O2-  O430  1  0.82856672  0.92072571  0.48617048  1
  O2-  O431  1  0.83516730  0.91952236  0.81185864  1
  O2-  O432  1  0.12831871  0.08214594  0.18904451  1
  O2-  O433  1  0.17493024  0.08416167  0.53710094  1
  O2-  O434  1  0.15677472  0.08027666  0.84241200  1
  O2-  O435  1  0.16704801  0.34332958  0.18634136  1
  O2-  O436  1  0.16827750  0.34772026  0.52868127  1
  O2-  O437  1  0.16118385  0.34273737  0.84285884  1
  O2-  O438  1  0.16525808  0.59053205  0.18347257  1
  O2-  O439  1  0.14227896  0.57756182  0.50415067  1
  O2-  O440  1  0.16178142  0.58517921  0.83418113  1
  O2-  O441  1  0.18115285  0.82101450  0.22413684  1
  O2-  O442  1  0.17715615  0.85408793  0.50333906  1
  O2-  O443  1  0.18121950  0.83792105  0.83918817  1
  O2-  O444  1  0.42197704  0.06912706  0.19880547  1
  O2-  O445  1  0.42709932  0.09087404  0.53803505  1
  O2-  O446  1  0.41452369  0.08408548  0.85056842  1
  O2-  O447  1  0.47309931  0.40314601  0.18296098  1
  O2-  O448  1  0.41782546  0.33725779  0.53384735  1
  O2-  O449  1  0.43383984  0.37615573  0.84905721  1
  O2-  O450  1  0.41008649  0.59176871  0.19124302  1
  O2-  O451  1  0.43019962  0.58808704  0.52393355  1
  O2-  O452  1  0.41057284  0.59144819  0.83975679  1
  O2-  O453  1  0.42908413  0.84193604  0.19824968  1
  O2-  O454  1  0.41368235  0.83548588  0.49592702  1
  O2-  O455  1  0.41357106  0.83548149  0.83339199  1
  O2-  O456  1  0.66303664  0.08534959  0.18500358  1
  O2-  O457  1  0.66775770  0.07894306  0.51949801  1
  O2-  O458  1  0.69618186  0.02272641  0.87833882  1
  O2-  O459  1  0.66294475  0.32505916  0.17792421  1
  O2-  O460  1  0.66095738  0.32842604  0.50102751  1
  O2-  O461  1  0.67893111  0.36922984  0.84989762  1
  O2-  O462  1  0.65978673  0.61674705  0.19520800  1
  O2-  O463  1  0.66715057  0.57676968  0.52213442  1
  O2-  O464  1  0.65509981  0.54143111  0.82759651  1
  O2-  O465  1  0.66217228  0.85145581  0.18439481  1
  O2-  O466  1  0.66565670  0.82470039  0.52828850  1
  O2-  O467  1  0.66670554  0.81099645  0.84713831  1
  O2-  O468  1  0.91411552  0.09261580  0.17661890  1
  O2-  O469  1  0.89427305  0.09670158  0.52248816  1
  O2-  O470  1  0.91842617  0.08264011  0.85584155  1
  O2-  O471  1  0.91327915  0.33438758  0.18488586  1
  O2-  O472  1  0.92072495  0.34210195  0.50767008  1
  O2-  O473  1  0.92323052  0.34883987  0.85849559  1
  O2-  O474  1  0.93954599  0.59351775  0.19001510  1
  O2-  O475  1  0.84287212  0.54217241  0.56520343  1
  O2-  O476  1  0.93447027  0.60710983  0.85862873  1
  O2-  O477  1  0.90977395  0.87499087  0.20917043  1
  O2-  O478  1  0.91771114  0.84046500  0.52725039  1
  O2-  O479  1  0.92322930  0.84168750  0.84930717  1
  O2-  O480  1  0.07520394  0.05695042  0.30792647  1
  O2-  O481  1  0.16128331  0.07097960  0.65614006  1
  O2-  O482  1  0.15748907  0.10596166  0.96893991  1
  O2-  O483  1  0.16831185  0.35215441  0.30141481  1
  O2-  O484  1  0.15598762  0.31638052  0.65060255  1
  O2-  O485  1  0.14915102  0.34099695  0.97324290  1
  O2-  O486  1  0.16832651  0.58822785  0.31439476  1
  O2-  O487  1  0.16986278  0.60087223  0.62359326  1
  O2-  O488  1  0.16467930  0.55132234  1.00495660  1
  O2-  O489  1  0.16497437  0.83270831  0.34856963  1
  O2-  O490  1  0.15757058  0.84256447  0.64757560  1
  O2-  O491  1  0.21880960  0.78740415  0.95045278  1
  O2-  O492  1  0.39483729  0.04441730  0.31999144  1
  O2-  O493  1  0.41821105  0.06797296  0.65790875  1
  O2-  O494  1  0.40991393  0.08395720  0.97476817  1
  O2-  O495  1  0.40387104  0.34740821  0.30873144  1
  O2-  O496  1  0.42036651  0.32372424  0.65880362  1
  O2-  O497  1  0.41754525  0.35381296  0.97664230  1
  O2-  O498  1  0.42641879  0.59134716  0.31730462  1
  O2-  O499  1  0.46337358  0.54445300  0.63368666  1
  O2-  O500  1  0.40085383  0.58285653  0.96719793  1
  O2-  O501  1  0.41754545  0.83012618  0.32080181  1
  O2-  O502  1  0.40678377  0.85708096  0.65398626  1
  O2-  O503  1  0.43958617  0.85901453  0.96339815  1
  O2-  O504  1  0.65636328  0.08178874  0.31767265  1
  O2-  O505  1  0.69522387  0.07996456  0.64265455  1
  O2-  O506  1  0.66353086  0.07901835  0.98780235  1
  O2-  O507  1  0.67506029  0.35581169  0.29327369  1
  O2-  O508  1  0.66391780  0.33560848  0.67187761  1
  O2-  O509  1  0.66561839  0.34533848  0.96393405  1
  O2-  O510  1  0.69622268  0.57913458  0.32252122  1
  O2-  O511  1  0.68175495  0.57283862  0.64443510  1
  O2-  O512  1  0.69119594  0.57002878  0.95814262  1
  O2-  O513  1  0.66722238  0.84235894  0.29788381  1
  O2-  O514  1  0.66645828  0.80605169  0.65567016  1
  O2-  O515  1  0.66223721  0.83165859  0.97196085  1
  O2-  O516  1  0.92312409  0.04597344  0.29488502  1
  O2-  O517  1  0.89449386  0.09158109  0.68402633  1
  O2-  O518  1  0.90984837  0.07637839  0.97558567  1
  O2-  O519  1  0.92137401  0.34564503  0.30676286  1
  O2-  O520  1  0.94961820  0.29206409  0.66865708  1
  O2-  O521  1  0.95552668  0.33683476  0.98405959  1
  O2-  O522  1  0.93845417  0.60078326  0.31680672  1
  O2-  O523  1  0.89805027  0.56328748  0.61958563  1
  O2-  O524  1  0.92568008  0.58076917  0.96976738  1
  O2-  O525  1  0.90629058  0.82771928  0.33470437  1
  O2-  O526  1  0.91572735  0.83642488  0.64850902  1
  O2-  O527  1  0.90252275  0.82261564  0.97707040  1
  O2-  O528  1  0.05924613  0.15995589  0.01586517  1
  O2-  O529  1  0.10252462  0.20326773  0.36306024  1
  O2-  O530  1  0.07276161  0.14824062  0.68646832  1
  O2-  O531  1  0.08833887  0.41535138  0.07297040  1
  O2-  O532  1  0.08519940  0.42066309  0.35143707  1
  O2-  O533  1  0.00917580  0.29195720  0.71419918  1
  O2-  O534  1  0.08613794  0.64874451  0.01103610  1
  O2-  O535  1  0.09562436  0.67053807  0.37068700  1
  O2-  O536  1  0.08282540  0.68525560  0.67777561  1
  O2-  O537  1  0.06850926  0.94710817  0.02189271  1
  O2-  O538  1  0.07194639  0.92358713  0.36421372  1
  O2-  O539  1  0.08758942  0.91765216  0.69458639  1
  O2-  O540  1  0.33092594  0.17555559  -0.00684132  1
  O2-  O541  1  0.38668701  0.21681375  0.38218556  1
  O2-  O542  1  0.33562453  0.15298878  0.68138877  1
  O2-  O543  1  0.32661902  0.42758072  0.02451452  1
  O2-  O544  1  0.32474861  0.43066421  0.36575594  1
  O2-  O545  1  0.32990017  0.40082475  0.68563709  1
  O2-  O546  1  0.33793948  0.67386372  0.02282967  1
  O2-  O547  1  0.32748458  0.65789838  0.35745902  1
  O2-  O548  1  0.29146378  0.71495068  0.69047080  1
  O2-  O549  1  0.34021421  0.91595343  0.00786021  1
  O2-  O550  1  0.31813205  0.89574504  0.37927421  1
  O2-  O551  1  0.35708986  0.97652457  0.67218023  1
  O2-  O552  1  0.57930581  0.16619524  0.01700715  1
  O2-  O553  1  0.56037326  0.14372905  0.37299097  1
  O2-  O554  1  0.60080739  0.15951273  0.69194393  1
  O2-  O555  1  0.59843536  0.42617625  0.01166960  1
  O2-  O556  1  0.58050504  0.42029968  0.35878079  1
  O2-  O557  1  0.58546368  0.41509693  0.70369060  1
  O2-  O558  1  0.56366330  0.67069868  0.02055977  1
  O2-  O559  1  0.59422486  0.65449319  0.36223077  1
  O2-  O560  1  0.59971616  0.64856031  0.68866497  1
  O2-  O561  1  0.58490553  0.91215794  0.03336697  1
  O2-  O562  1  0.58160289  0.91071832  0.35645357  1
  O2-  O563  1  0.58169060  0.92499399  0.68233654  1
  O2-  O564  1  0.83487260  0.16843831  0.02036942  1
  O2-  O565  1  0.82205069  0.18231757  0.35272703  1
  O2-  O566  1  0.86137225  0.12809401  0.63765957  1
  O2-  O567  1  0.85648145  0.39747503  0.01639644  1
  O2-  O568  1  0.83726586  0.43121299  0.34482825  1
  O2-  O569  1  0.83286002  0.42722612  0.69489468  1
  O2-  O570  1  0.83946300  0.65239153  0.00927522  1
  O2-  O571  1  0.84745907  0.66500675  0.37221821  1
  O2-  O572  1  0.84902224  0.66360747  0.67628046  1
  O2-  O573  1  0.82496123  0.91168890  0.01346167  1
  O2-  O574  1  0.81683235  0.89845752  0.36703518  1
  O2-  O575  1  0.83120804  0.91734048  0.68924045  1
