# generated using pymatgen
data_H2O
_symmetry_space_group_name_H-M   'P 1'
_cell_length_a   17.98608114
_cell_length_b   17.99598162
_cell_length_c   22.00553127
_cell_angle_alpha   90.01250654
_cell_angle_beta   89.98527421
_cell_angle_gamma   119.99803165
_symmetry_Int_Tables_number   1
_chemical_formula_structural   H2O
_chemical_formula_sum   'H384 O192'
_cell_volume   6168.55123170
_cell_formula_units_Z   192
loop_
 _symmetry_equiv_pos_site_id
 _symmetry_equiv_pos_as_xyz
  1  'x, y, z'
loop_
 _atom_type_symbol
 _atom_type_oxidation_number
  H+  1.0
  O2-  -2.0
loop_
 _atom_site_type_symbol
 _atom_site_label
 _atom_site_symmetry_multiplicity
 _atom_site_fract_x
 _atom_site_fract_y
 _atom_site_fract_z
 _atom_site_occupancy
  H+  H0  1  0.39804755  0.64573032  0.32350570  1
  H+  H1  1  0.61083289  0.88553097  0.81581100  1
  H+  H2  1  0.50966555  0.12911574  0.68354225  1
  H+  H3  1  0.83908769  -0.02642946  1.00078128  1
  H+  H4  1  0.87226065  0.59010115  0.85213464  1
  H+  H5  1  0.36429560  0.45111469  0.32286677  1
  H+  H6  1  0.34033200  0.54363682  0.19111211  1
  H+  H7  1  0.73987954  0.62209093  0.99016346  1
  H+  H8  1  0.60950952  0.84668344  0.98262399  1
  H+  H9  1  0.06138052  0.39967839  0.55986125  1
  H+  H10  1  0.50003467  0.88245254  0.50922315  1
  H+  H11  1  0.83606161  0.68371981  0.76512481  1
  H+  H12  1  0.85251168  0.98472035  0.80422098  1
  H+  H13  1  0.41157726  0.88200145  0.16995042  1
  H+  H14  1  0.56935799  0.14603136  0.43142466  1
  H+  H15  1  0.73425274  0.62369805  0.84306196  1
  H+  H16  1  0.42790332  0.79333222  0.99577237  1
  H+  H17  1  0.82809830  0.41292319  0.72866844  1
  H+  H18  1  0.96881048  0.11653222  0.64956669  1
  H+  H19  1  0.86542931  0.26329027  0.49846776  1
  H+  H20  1  0.61946072  0.72545251  0.82030868  1
  H+  H21  1  0.37761222  0.84873774  0.82518845  1
  H+  H22  1  0.02445234  0.63301943  0.83633090  1
  H+  H23  1  0.73541884  0.11116621  0.32599786  1
  H+  H24  1  0.42313823  0.35128630  0.96863558  1
  H+  H25  1  0.38432536  0.03393634  0.66439599  1
  H+  H26  1  0.50782580  0.38502626  0.49125871  1
  H+  H27  1  0.41050242  0.33255406  0.54201210  1
  H+  H28  1  0.65246366  1.02192703  0.17424789  1
  H+  H29  1  1.01999981  0.62809184  0.68014024  1
  H+  H30  1  0.86373854  0.10508518  0.50615276  1
  H+  H31  1  0.45816081  0.10046935  0.51316246  1
  H+  H32  1  0.95436047  0.35555521  0.50652373  1
  H+  H33  1  0.83854292  0.37586845  0.49165629  1
  H+  H34  1  0.47288791  0.61671015  0.66000003  1
  H+  H35  1  0.73459976  0.37969360  0.32707087  1
  H+  H36  1  0.26433128  0.13742679  0.66639560  1
  H+  H37  1  0.35385022  0.16573988  0.39164817  1
  H+  H38  1  0.85116203  0.22647845  0.65748559  1
  H+  H39  1  0.33700862  0.35015748  0.97157545  1
  H+  H40  1  0.33593653  0.16431211  0.04907007  1
  H+  H41  1  0.32663619  0.38541201  0.38000038  1
  H+  H42  1  0.44764353  0.32477529  0.25657022  1
  H+  H43  1  0.25409031  0.38895485  0.01380377  1
  H+  H44  1  0.52647915  0.13221417  1.00739719  1
  H+  H45  1  0.64771527  0.86457135  0.66348336  1
  H+  H46  1  0.62725771  0.10849157  0.67142692  1
  H+  H47  1  0.76854827  0.87092012  0.15613877  1
  H+  H48  1  0.55507109  0.15981621  0.88439891  1
  H+  H49  1  0.14810067  0.53333519  0.00196278  1
  H+  H50  1  -0.02487777  0.32157256  0.79211580  1
  H+  H51  1  0.63421395  0.38982541  0.52337482  1
  H+  H52  1  0.64189350  0.61656475  0.83916816  1
  H+  H53  1  0.54061933  0.89917944  0.16187814  1
  H+  H54  1  0.18241859  0.83042636  0.93070464  1
  H+  H55  1  0.14295060  0.02073977  0.99313219  1
  H+  H56  1  0.76693902  0.63543987  0.34171650  1
  H+  H57  1  0.12878800  0.60939835  0.66365234  1
  H+  H58  1  0.13281100  0.62478004  0.18133695  1
  H+  H59  1  0.35558575  0.49248444  0.66524861  1
  H+  H60  1  0.61770532  0.72049505  0.67143658  1
  H+  H61  1  0.88676923  0.25614250  0.34050881  1
  H+  H62  1  0.88898153  0.60589065  0.99868360  1
  H+  H63  1  0.88076324  0.87418339  0.60857414  1
  H+  H64  1  0.61438100  0.12239389  0.34664146  1
  H+  H65  1  0.98315922  0.61269376  1.00048589  1
  H+  H66  1  0.29325890  0.14034165  0.76702367  1
  H+  H67  1  0.95760633  0.09335674  0.99423126  1
  H+  H68  1  0.86046344  0.71860475  -0.00371988  1
  H+  H69  1  0.21975096  0.85479427  0.83344582  1
  H+  H70  1  0.35944661  0.76998674  0.50724731  1
  H+  H71  1  0.16251011  0.37729664  0.86769518  1
  H+  H72  1  0.39263558  0.13275682  0.50868885  1
  H+  H73  1  0.35557768  0.14479839  0.67783106  1
  H+  H74  1  0.77498978  0.37786691  0.82862685  1
  H+  H75  1  0.49200320  0.65096640  0.32121078  1
  H+  H76  1  0.61860809  0.73403485  0.34033916  1
  H+  H77  1  0.89017561  0.85821407  0.14364019  1
  H+  H78  1  0.98819227  0.40849627  0.86384046  1
  H+  H79  1  0.10327010  0.37545602  0.64532959  1
  H+  H80  1  0.61009195  -0.02591524  0.81996473  1
  H+  H81  1  0.12887098  -0.04152992  0.33854058  1
  H+  H82  1  0.64380045  0.26206478  0.17473251  1
  H+  H83  1  0.26512526  0.63413045  0.49245229  1
  H+  H84  1  0.16463340  0.98744560  0.50312768  1
  H+  H85  1  0.36075200  0.36577436  0.46751804  1
  H+  H86  1  0.88021139  0.80989097  0.83818514  1
  H+  H87  1  0.52994503  0.63547200  0.81955750  1
  H+  H88  1  0.54741388  0.38790646  0.94657363  1
  H+  H89  1  0.84880896  0.38631430  0.66600602  1
  H+  H90  1  0.39143888  0.61513914  0.82463625  1
  H+  H91  1  0.58591900  0.70731681  0.15052850  1
  H+  H92  1  0.22875570  0.41498184  0.16773978  1
  H+  H93  1  0.09668193  0.11911618  0.00422729  1
  H+  H94  1  0.92222839  0.20785186  0.37837026  1
  H+  H95  1  0.87701996  0.85880094  0.50007318  1
  H+  H96  1  0.01493532  0.62335431  0.48844603  1
  H+  H97  1  0.75413414  0.12966365  0.66774800  1
  H+  H98  1  0.88319667  0.10621126  0.15891680  1
  H+  H99  1  0.65073481  0.11125221  0.17246892  1
  H+  H100  1  0.75041084  0.13016640  0.49585048  1
  H+  H101  1  0.63180253  0.02075008  0.66245109  1
  H+  H102  1  0.22662858  0.36545551  0.31709584  1
  H+  H103  1  0.11423621  0.63519394  0.33995589  1
  H+  H104  1  0.71949893  0.10876040  0.84663915  1
  H+  H105  1  0.19542329  0.28501479  0.18379070  1
  H+  H106  1  0.40567794  0.83655530  0.59838896  1
  H+  H107  1  0.26123564  0.02794540  0.52649079  1
  H+  H108  1  0.27936849  0.38129395  0.83328401  1
  H+  H109  1  0.62434286  0.89078281  0.16494710  1
  H+  H110  1  0.11321499  0.23263699  0.64190169  1
  H+  H111  1  0.10073289  0.25016728  0.32524428  1
  H+  H112  1  0.60186355  0.26144326  0.68424795  1
  H+  H113  1  0.11951664  0.25483899  1.01064170  1
  H+  H114  1  0.10864114  0.14206288  0.84252353  1
  H+  H115  1  0.64141106  0.27712698  0.84508427  1
  H+  H116  1  0.13177021  0.52184978  0.65441808  1
  H+  H117  1  0.16387347  0.87573255  0.17656174  1
  H+  H118  1  0.14112305  0.27899719  0.86057664  1
  H+  H119  1  0.97959344  0.87842006  0.84174923  1
  H+  H120  1  0.96232217  0.85318277  0.50751406  1
  H+  H121  1  0.16576683  0.89610744  0.00677858  1
  H+  H122  1  0.76295511  0.88473936  0.48974571  1
  H+  H123  1  0.44990382  0.08519432  0.83621528  1
  H+  H124  1  0.85949926  -0.02719652  0.33493193  1
  H+  H125  1  0.62462598  0.09557933  -0.00468248  1
  H+  H126  1  0.62270703  0.11123969  0.50981645  1
  H+  H127  1  0.39796519  0.75672679  0.15431358  1
  H+  H128  1  0.85249767  0.21938796  0.84785684  1
  H+  H129  1  0.12456488  0.72746837  0.35641303  1
  H+  H130  1  0.36762328  0.72443871  0.82199951  1
  H+  H131  1  0.35260756  0.91496005  0.06484936  1
  H+  H132  1  0.38728948  0.62546192  0.51170116  1
  H+  H133  1  0.85029047  -0.03167312  0.14908681  1
  H+  H134  1  0.47043324  0.85732943  0.82422970  1
  H+  H135  1  0.62682908  0.76697999  -0.01721735  1
  H+  H136  1  0.00236702  0.14206013  0.49194588  1
  H+  H137  1  0.13795751  0.10730107  0.61969752  1
  H+  H138  1  0.37637176  0.36746524  0.70328210  1
  H+  H139  1  0.63419119  0.52607192  0.32810413  1
  H+  H140  1  0.87839940  0.51969778  0.49273263  1
  H+  H141  1  0.89203576  0.37347445  0.84065565  1
  H+  H142  1  0.92653723  0.58176669  0.10517655  1
  H+  H143  1  0.39252153  0.52552934  0.82326379  1
  H+  H144  1  0.16105046  0.85680198  0.35967961  1
  H+  H145  1  0.36148564  0.64450371  0.66952484  1
  H+  H146  1  0.33909530  0.18674561  0.82842581  1
  H+  H147  1  0.61000366  0.64120652  0.34229051  1
  H+  H148  1  0.68130759  0.08593011  0.26474167  1
  H+  H149  1  0.85010278  0.13042487  0.66705377  1
  H+  H150  1  0.27942090  0.90303908  0.66616016  1
  H+  H151  1  0.85704921  0.63639467  0.34496720  1
  H+  H152  1  0.84981998  0.20816242  -0.00093158  1
  H+  H153  1  0.38880499  0.87542996  0.31730696  1
  H+  H154  1  0.89709424  0.39036353  0.33701654  1
  H+  H155  1  0.84789955  0.72197467  0.49719933  1
  H+  H156  1  0.39712294  0.09608277  0.31955037  1
  H+  H157  1  0.30485275  0.87744215  0.33792540  1
  H+  H158  1  0.09965978  0.85717028  0.49223378  1
  H+  H159  1  0.34654615  0.95216313  0.82413757  1
  H+  H160  1  0.40544200  0.11863812  0.16544110  1
  H+  H161  1  0.92095409  0.83105524  0.93198179  1
  H+  H162  1  0.73886446  0.88003376  -0.00047159  1
  H+  H163  1  0.10908754  0.72575744  0.83351389  1
  H+  H164  1  0.88791840  0.02321998  0.65801291  1
  H+  H165  1  0.85183470  0.97212889  0.48963390  1
  H+  H166  1  0.72372636  0.86888254  0.82031876  1
  H+  H167  1  0.59056474  0.96836659  0.51051741  1
  H+  H168  1  0.38234518  0.21434728  0.32738086  1
  H+  H169  1  0.21299219  0.83702455  0.41075039  1
  H+  H170  1  0.00758206  0.10358885  0.15715612  1
  H+  H171  1  0.03309215  0.87651088  0.34261306  1
  H+  H172  1  0.87093499  0.49109750  0.34555532  1
  H+  H173  1  0.09739926  0.16399206  0.34368930  1
  H+  H174  1  0.16700063  0.79101655  0.17604787  1
  H+  H175  1  1.03127624  0.40077235  0.35582031  1
  H+  H176  1  0.25899768  0.10080076  0.32098502  1
  H+  H177  1  0.62568500  0.86346379  0.51600614  1
  H+  H178  1  0.87169907  0.46660820  0.00951130  1
  H+  H179  1  0.89912270  0.70657754  0.82209349  1
  H+  H180  1  0.72860496  0.86221846  0.32337698  1
  H+  H181  1  0.24915924  0.85258280  0.98725255  1
  H+  H182  1  0.04616898  0.37560720  0.69866514  1
  H+  H183  1  0.86730202  0.37433587  1.00786739  1
  H+  H184  1  0.10034909  0.37648420  1.01704225  1
  H+  H185  1  0.15730604  0.32025175  0.95506836  1
  H+  H186  1  0.52795055  0.88817560  0.66327039  1
  H+  H187  1  0.13878337  0.87580774  0.65412964  1
  H+  H188  1  0.15328807  0.49029019  0.77841455  1
  H+  H189  1  0.13364811  0.74709521  0.50349237  1
  H+  H190  1  0.38064457  0.24651544  0.47770885  1
  H+  H191  1  0.13816165  0.36772514  0.50267158  1
  H+  H192  1  0.14571931  0.09811653  0.17053896  1
  H+  H193  1  0.03554327  0.65798204  0.16004538  1
  H+  H194  1  -0.02871743  0.34804602  -0.00304436  1
  H+  H195  1  0.85804923  0.75802162  0.68974032  1
  H+  H196  1  0.29222922  0.14467374  0.14815877  1
  H+  H197  1  0.14462572  0.53203171  0.33296557  1
  H+  H198  1  0.52917542  0.87537469  0.32354639  1
  H+  H199  1  0.39300610  0.34315269  0.30657997  1
  H+  H200  1  0.06661605  0.33542484  0.78498972  1
  H+  H201  1  -0.02206881  0.83887799  -0.01038987  1
  H+  H202  1  0.38605656  0.78189966  0.65919853  1
  H+  H203  1  0.65049799  0.36977956  0.83483404  1
  H+  H204  1  0.63968061  0.39997494  0.71282592  1
  H+  H205  1  0.45587061  0.76992896  0.28100704  1
  H+  H206  1  0.69356668  0.74527508  0.19981267  1
  H+  H207  1  0.97718757  0.85479826  0.15083039  1
  H+  H208  1  0.11897507  0.63685999  1.01246016  1
  H+  H209  1  0.77975479  0.66058369  0.67640393  1
  H+  H210  1  0.22443808  0.37093612  0.64736179  1
  H+  H211  1  0.63662754  0.60870408  0.66198466  1
  H+  H212  1  0.53206960  0.38945368  0.34162447  1
  H+  H213  1  0.86252997  0.46697425  0.82922898  1
  H+  H214  1  0.14856886  0.62390859  0.85334583  1
  H+  H215  1  0.85404191  0.13360225  0.83714772  1
  H+  H216  1  0.63753848  0.49043833  0.81224448  1
  H+  H217  1  0.86724706  0.35298295  0.17170434  1
  H+  H218  1  0.47650327  0.62574903  0.51152949  1
  H+  H219  1  0.63861823  0.62084068  0.99018805  1
  H+  H220  1  0.53821675  0.13454333  0.16021892  1
  H+  H221  1  0.96446651  0.11489070  0.30998596  1
  H+  H222  1  0.35916009  0.27344555  0.71592133  1
  H+  H223  1  0.52862752  0.62870117  -0.01389509  1
  H+  H224  1  0.09532042  0.68220951  0.10225992  1
  H+  H225  1  0.15355496  0.28541430  0.18781400  1
  H+  H226  1  0.62735271  0.50517755  0.50831949  1
  H+  H227  1  0.29426946  0.89783006  0.15794941  1
  H+  H228  1  0.87591204  0.10982915  0.31035291  1
  H+  H229  1  0.86197332  0.21879912  0.14808803  1
  H+  H230  1  0.01081020  0.90051988  0.68583270  1
  H+  H231  1  0.27067697  0.36786465  0.46746505  1
  H+  H232  1  0.39459399  0.89320476  0.00756197  1
  H+  H233  1  0.76455235  0.37612747  0.16034518  1
  H+  H234  1  0.88435550  0.31442813  0.58797630  1
  H+  H235  1  0.08568930  0.18960566  0.78962844  1
  H+  H236  1  0.70884845  0.43240285  0.57129470  1
  H+  H237  1  0.40819949  0.67477078  0.15155467  1
  H+  H238  1  0.72903230  0.60574432  0.51025218  1
  H+  H239  1  0.57847997  0.94947749  -0.00025586  1
  H+  H240  1  0.52448939  0.11804177  0.34017946  1
  H+  H241  1  0.29521328  0.14717854  0.47834146  1
  H+  H242  1  0.10665632  0.97825026  0.82866445  1
  H+  H243  1  0.36796992  0.73512688  0.33615664  1
  H+  H244  1  0.77443543  0.12919027  0.15455454  1
  H+  H245  1  0.98647319  0.62510925  0.33047354  1
  H+  H246  1  0.42787508  0.31528596  0.80972416  1
  H+  H247  1  0.30119244  0.67005269  0.00755917  1
  H+  H248  1  0.16791335  0.09305711  0.32386019  1
  H+  H249  1  0.39633239  0.46867054  0.18789855  1
  H+  H250  1  0.09529700  0.15763815  0.68809192  1
  H+  H251  1  0.97004233  0.11505612  0.84532861  1
  H+  H252  1  0.21913750  0.98085683  0.04398434  1
  H+  H253  1  0.88077949  0.53027594  0.66748031  1
  H+  H254  1  0.13530598  0.86359598  0.84211918  1
  H+  H255  1  0.27496846  0.64825779  0.33980123  1
  H+  H256  1  0.39700236  0.01466279  0.99545405  1
  H+  H257  1  0.60898338  0.73183171  0.49653255  1
  H+  H258  1  0.49559971  0.62034986  0.14912817  1
  H+  H259  1  0.59022478  0.21007757  0.48833231  1
  H+  H260  1  0.33610805  0.84397290  0.51158068  1
  H+  H261  1  0.12690658  0.27438126  0.49649482  1
  H+  H262  1  0.72381508  0.63426403  0.17000303  1
  H+  H263  1  0.17529239  0.47135390  0.79660126  1
  H+  H264  1  0.45136801  0.37390633  0.16706305  1
  H+  H265  1  0.65844387  0.53362605  0.67633423  1
  H+  H266  1  0.95402013  0.34456225  0.64084258  1
  H+  H267  1  0.11224002  0.42055292  0.16762595  1
  H+  H268  1  0.67347024  0.33526565  0.93752174  1
  H+  H269  1  0.63079474  0.34381314  0.17822622  1
  H+  H270  1  0.63987093  0.47791986  0.02742430  1
  H+  H271  1  0.39370487  0.53425570  -0.02610108  1
  H+  H272  1  0.12374627  -0.02949358  0.15935717  1
  H+  H273  1  0.38749967  0.22808520  0.14145403  1
  H+  H274  1  0.34704120  0.21230453  -0.01414169  1
  H+  H275  1  0.64952826  0.39554019  0.02670056  1
  H+  H276  1  0.27057988  0.64094550  0.66974319  1
  H+  H277  1  0.19773467  0.41242395  0.23502774  1
  H+  H278  1  0.38404014  0.98712307  0.15298723  1
  H+  H279  1  0.20478022  0.10834747  0.83817420  1
  H+  H280  1  0.90062818  0.86582460  0.33291616  1
  H+  H281  1  1.00920798  0.38098618  0.16830754  1
  H+  H282  1  0.22018023  0.11296339  0.98712285  1
  H+  H283  1  0.61629620  -0.03210405  0.33011954  1
  H+  H284  1  0.52321167  0.36576210  -0.02488946  1
  H+  H285  1  0.12006176  0.72540765  0.00591554  1
  H+  H286  1  0.87885417  0.51339996  0.15459129  1
  H+  H287  1  0.12628191  0.60363385  0.50600795  1
  H+  H288  1  0.75764921  0.39062828  0.49898211  1
  H+  H289  1  0.82937855  0.91628456  0.39609281  1
  H+  H290  1  0.67394093  0.80931233  0.23718023  1
  H+  H291  1  0.91458086  0.32368008  0.93637479  1
  H+  H292  1  0.32064741  0.90569534  0.75948314  1
  H+  H293  1  0.87046041  0.09956674  0.99072375  1
  H+  H294  1  0.19191160  0.07795192  0.22571149  1
  H+  H295  1  0.09288733  0.42630345  0.41338010  1
  H+  H296  1  0.91171762  0.56798837  0.90947926  1
  H+  H297  1  0.58834206  0.66074967  0.73007933  1
  H+  H298  1  0.85740452  0.72220492  0.14050777  1
  H+  H299  1  0.66900218  0.56942950  0.57541601  1
  H+  H300  1  0.84705906  0.91234949  0.75947820  1
  H+  H301  1  0.32806438  0.67321969  0.43463572  1
  H+  H302  1  0.05193944  0.17921984  0.42991527  1
  H+  H303  1  0.17418390  0.33795618  0.58263162  1
  H+  H304  1  0.09948516  0.18688838  0.15742284  1
  H+  H305  1  0.16059777  0.58485866  0.26961196  1
  H+  H306  1  0.92473896  0.59586954  0.27247968  1
  H+  H307  1  0.70833824  0.08729324  0.99349904  1
  H+  H308  1  0.63022020  0.32705834  0.62937988  1
  H+  H309  1  0.57747110  0.67271849  0.43836908  1
  H+  H310  1  0.61767785  0.22088653  0.00592661  1
  H+  H311  1  0.62440149  0.39886412  0.34157160  1
  H+  H312  1  0.33976248  0.43256550  0.05328402  1
  H+  H313  1  0.89676403  0.07684391  0.56432160  1
  H+  H314  1  0.41739533  0.59321944  0.23919506  1
  H+  H315  1  0.57727048  0.39742578  0.11640293  1
  H+  H316  1  0.89137967  0.62363583  0.67169935  1
  H+  H317  1  0.85788694  0.28833590  0.22468841  1
  H+  H318  1  0.67187403  0.34032754  0.27092461  1
  H+  H319  1  0.08150326  0.89912841  0.43504904  1
  H+  H320  1  0.59644601  0.16298714  0.10063990  1
  H+  H321  1  0.34786154  0.37660567  0.78829611  1
  H+  H322  1  0.06696952  0.41429907  0.06888278  1
  H+  H323  1  0.89351989  0.77528075  0.33653345  1
  H+  H324  1  0.41665641  0.59585841  0.59786357  1
  H+  H325  1  0.58726374  0.42489525  0.43852206  1
  H+  H326  1  0.17985089  0.59598024  0.94457043  1
  H+  H327  1  0.36400913  0.69708094  0.06439792  1
  H+  H328  1  0.43113503  0.08526898  0.22702791  1
  H+  H329  1  0.51600951  0.39312177  0.62511140  1
  H+  H330  1  0.40261861  0.00860861  0.31086329  1
  H+  H331  1  0.39863088  0.30403587  0.87827016  1
  H+  H332  1  0.38892899  0.10013429  0.98777371  1
  H+  H333  1  0.88383701  0.61108106  0.49563520  1
  H+  H334  1  0.63811261  0.86382530  0.31926308  1
  H+  H335  1  0.08228791  0.65351200  0.73779241  1
  H+  H336  1  0.73538762  0.35482646  -0.00537354  1
  H+  H337  1  0.81765445  0.66248552  0.43686877  1
  H+  H338  1  0.23660821  0.62274268  0.85039430  1
  H+  H339  1  0.17220124  0.84332034  0.59835810  1
  H+  H340  1  0.61182554  0.13139263  0.84756362  1
  H+  H341  1  0.62731296  0.61668097  0.16900925  1
  H+  H342  1  0.36750849  0.89938187  0.66806718  1
  H+  H343  1  0.82894884  0.42364947  0.40174843  1
  H+  H344  1  0.65318009  0.06484316  0.90216523  1
  H+  H345  1  0.80484657  0.90974544  0.06477281  1
  H+  H346  1  0.06287394  0.13675798  0.06599283  1
  H+  H347  1  0.82200679  0.15083823  0.05876160  1
  H+  H348  1  0.57599315  0.65753724  0.05163206  1
  H+  H349  1  0.66363294  0.59270762  0.27091057  1
  H+  H350  1  0.03851907  0.04077148  0.74195072  1
  H+  H351  1  0.43405014  0.58648979  0.91224084  1
  H+  H352  1  0.73427792  0.85809661  0.66038079  1
  H+  H353  1  0.90356430  0.07107587  0.22009067  1
  H+  H354  1  0.84679829  0.62758748  0.14332665  1
  H+  H355  1  0.10812107  0.91364349  0.10148563  1
  H+  H356  1  0.10491941  0.97691915  0.66846586  1
  H+  H357  1  0.18476450  0.06304606  0.58488895  1
  H+  H358  1  0.14681790  0.38194254  0.33089543  1
  H+  H359  1  0.08072049  0.65231558  0.43218052  1
  H+  H360  1  0.65810848  0.08901402  0.57086939  1
  H+  H361  1  0.10175592  0.47878449  0.51604516  1
  H+  H362  1  0.82091209  0.65896089  0.05764589  1
  H+  H363  1  0.14698016  0.07952146  0.90090675  1
  H+  H364  1  0.90179683  0.06833099  0.89753420  1
  H+  H365  1  0.67150087  0.58749064  0.92766824  1
  H+  H366  1  0.33557578  0.36906880  0.19983661  1
  H+  H367  1  0.40648343  0.05338301  0.90038118  1
  H+  H368  1  0.08653394  0.06576753  0.73948727  1
  H+  H369  1  0.08337293  0.92035848  0.76894810  1
  H+  H370  1  0.67007659  0.83737814  0.88375958  1
  H+  H371  1  0.11168708  0.52820251  0.17934430  1
  H+  H372  1  0.48942767  0.34500356  0.62403415  1
  H+  H373  1  0.43870664  0.84079470  0.22927095  1
  H+  H374  1  0.82554721  0.40086055  0.09986759  1
  H+  H375  1  0.41503285  0.09927247  0.60819383  1
  H+  H376  1  0.58377889  0.91669869  0.72442001  1
  H+  H377  1  0.31177381  0.43443538  0.72410453  1
  H+  H378  1  0.16244492  0.58470501  0.56838303  1
  H+  H379  1  0.66876916  0.83564074  0.56786438  1
  H+  H380  1  0.94456411  0.37816814  0.27889971  1
  H+  H381  1  0.32886229  0.66248327  0.76474950  1
  H+  H382  1  0.80994692  0.15834957  0.43497604  1
  H+  H383  1  0.56253257  0.14813040  0.74562380  1
  O2-  O384  1  0.06919352  0.12727344  0.14319691  1
  O2-  O385  1  0.06058129  0.17706958  0.47373594  1
  O2-  O386  1  0.08272196  0.18210887  0.83353263  1
  O2-  O387  1  0.06293524  0.42099792  0.14732531  1
  O2-  O388  1  0.06572851  0.41193318  0.51614535  1
  O2-  O389  1  0.01285980  0.31412216  0.76294045  1
  O2-  O390  1  0.09614740  0.68649151  0.14770492  1
  O2-  O391  1  0.07867520  0.65050936  0.47790589  1
  O2-  O392  1  0.08400856  0.66408095  0.82136796  1
  O2-  O393  1  0.09189050  0.91001372  0.14496287  1
  O2-  O394  1  0.07742879  0.89585701  0.48061407  1
  O2-  O395  1  0.08197313  0.91773342  0.81446507  1
  O2-  O396  1  0.34889348  0.16890448  0.12707721  1
  O2-  O397  1  0.35390361  0.18222864  0.46246561  1
  O2-  O398  1  0.28796761  0.13398526  0.81202281  1
  O2-  O399  1  0.38293333  0.40968304  0.17443049  1
  O2-  O400  1  0.32366871  0.38413270  0.44431712  1
  O2-  O401  1  0.32809139  0.41497321  0.80561631  1
  O2-  O402  1  0.37098412  0.69619477  0.13801200  1
  O2-  O403  1  0.32603146  0.67115139  0.48021940  1
  O2-  O404  1  0.33553617  0.66099237  0.80973395  1
  O2-  O405  1  0.35383343  0.92623549  0.13873773  1
  O2-  O406  1  0.24292923  0.85164703  0.48177761  1
  O2-  O407  1  0.31474194  0.89395447  0.80433205  1
  O2-  O408  1  0.59976389  0.16320297  0.14598465  1
  O2-  O409  1  0.56567304  0.14943207  0.47878696  1
  O2-  O410  1  0.58006477  0.16526779  0.84408614  1
  O2-  O411  1  0.56704344  0.38786948  0.16168466  1
  O2-  O412  1  0.57940177  0.42395766  0.48359549  1
  O2-  O413  1  0.61636435  0.43336330  0.79247125  1
  O2-  O414  1  0.55233978  0.65192802  0.12884387  1
  O2-  O415  1  0.57631380  0.67101722  0.48335208  1
  O2-  O416  1  0.59273383  0.66338431  0.80865608  1
  O2-  O417  1  0.60400446  0.92816413  0.14975366  1
  O2-  O418  1  0.56240751  0.90576710  0.50519750  1
  O2-  O419  1  0.58184505  0.91662666  0.80002061  1
  O2-  O420  1  0.83387035  0.15830775  0.13439473  1
  O2-  O421  1  0.81207432  0.15928631  0.47960410  1
  O2-  O422  1  0.82111178  0.16357216  0.82825005  1
  O2-  O423  1  0.82656542  0.40566028  0.14535651  1
  O2-  O424  1  0.81191872  0.40919125  0.47603754  1
  O2-  O425  1  0.83595743  0.40706163  0.81341334  1
  O2-  O426  1  0.81754505  0.65899722  0.12952771  1
  O2-  O427  1  0.81724717  0.66071694  0.48268282  1
  O2-  O428  1  0.83845980  0.68021288  0.81199011  1
  O2-  O429  1  0.82056293  0.90928998  0.13088118  1
  O2-  O430  1  0.82321831  0.91272523  0.47314623  1
  O2-  O431  1  0.81284977  0.93423471  0.77956981  1
  O2-  O432  1  0.18873327  0.08076918  0.18046035  1
  O2-  O433  1  0.21502726  0.04099663  0.52026635  1
  O2-  O434  1  0.14227463  0.08329735  0.85596489  1
  O2-  O435  1  0.21373140  0.44655047  0.19651286  1
  O2-  O436  1  0.16918922  0.33576614  0.50838854  1
  O2-  O437  1  0.18158084  0.33716484  0.87915081  1
  O2-  O438  1  0.14800215  0.58364165  0.19963418  1
  O2-  O439  1  0.15825350  0.57502666  0.52292376  1
  O2-  O440  1  0.18006921  0.59715863  0.87154018  1
  O2-  O441  1  0.20090966  0.85196267  0.18838922  1
  O2-  O442  1  0.16361288  0.80955999  0.51747141  1
  O2-  O443  1  0.16301764  0.83044608  0.85601638  1
  O2-  O444  1  0.43635160  0.08997679  0.18085843  1
  O2-  O445  1  0.40511618  0.09292455  0.53251817  1
  O2-  O446  1  0.39524425  0.04672119  0.85594502  1
  O2-  O447  1  0.47407270  0.33282674  0.17064929  1
  O2-  O448  1  0.42231726  0.33541135  0.49866930  1
  O2-  O449  1  0.42351223  0.28363981  0.84718727  1
  O2-  O450  1  0.40142196  0.56234514  0.19705380  1
  O2-  O451  1  0.41727888  0.59728656  0.52987767  1
  O2-  O452  1  0.42579684  0.58632262  0.83648320  1
  O2-  O453  1  0.44447498  0.85344120  0.18222879  1
  O2-  O454  1  0.38047959  0.82929734  0.52378713  1
  O2-  O455  1  0.41114930  0.82185706  0.83954651  1
  O2-  O456  1  0.68476570  0.08494713  0.18807814  1
  O2-  O457  1  0.65823087  0.08629473  0.52576295  1
  O2-  O458  1  0.65621634  0.07478632  0.85714706  1
  O2-  O459  1  0.67122962  0.32321896  0.18940860  1
  O2-  O460  1  0.67523649  0.37914894  0.54862313  1
  O2-  O461  1  0.67602813  0.33902188  0.85633555  1
  O2-  O462  1  0.67713454  0.63246258  0.19559049  1
  O2-  O463  1  0.66862300  0.56769092  0.52929454  1
  O2-  O464  1  0.67370128  0.58785053  0.85657966  1
  O2-  O465  1  0.68163340  0.79303183  0.19387986  1
  O2-  O466  1  0.66547677  0.84010120  0.52313083  1
  O2-  O467  1  0.66522790  0.83222803  0.83905634  1
  O2-  O468  1  0.90775478  0.07030150  0.17464464  1
  O2-  O469  1  0.89796327  0.07816990  0.51919904  1
  O2-  O470  1  0.90745291  0.07893868  0.85291686  1
  O2-  O471  1  0.89439198  0.31953429  0.19027678  1
  O2-  O472  1  0.89115636  0.32361950  0.51435230  1
  O2-  O473  1  0.93404828  0.35506053  0.85785942  1
  O2-  O474  1  0.91194842  0.57750872  0.14832360  1
  O2-  O475  1  0.91716562  0.58149651  0.50074931  1
  O2-  O476  1  0.90877750  0.56645113  0.86402339  1
  O2-  O477  1  0.91365664  0.82070750  0.15372595  1
  O2-  O478  1  0.90211392  0.82779039  0.52181638  1
  O2-  O479  1  0.92271933  0.85858572  0.86197968  1
  O2-  O480  1  0.19731697  0.06670811  0.30409972  1
  O2-  O481  1  0.16939416  0.07630377  0.62613568  1
  O2-  O482  1  0.15714533  0.07848710  0.97803998  1
  O2-  O483  1  0.16714068  0.35117761  0.30380218  1
  O2-  O484  1  0.16571444  0.33514041  0.62825637  1
  O2-  O485  1  0.14967342  0.31752329  1.00006328  1
  O2-  O486  1  0.16902222  0.59016049  0.31579139  1
  O2-  O487  1  0.16300408  0.58326709  0.64375645  1
  O2-  O488  1  0.17709799  0.59460500  0.99085206  1
  O2-  O489  1  0.19447635  0.82708475  0.36615831  1
  O2-  O490  1  0.18286489  0.86209128  0.64099331  1
  O2-  O491  1  0.18725450  0.82830121  0.97630263  1
  O2-  O492  1  0.42945058  0.07173047  0.29900414  1
  O2-  O493  1  0.41565806  0.09701365  0.65399005  1
  O2-  O494  1  0.42532104  0.07468495  0.97803033  1
  O2-  O495  1  0.43164349  0.31908469  0.30001580  1
  O2-  O496  1  0.38624217  0.33252599  0.73326075  1
  O2-  O497  1  0.36326966  0.31662025  0.95567655  1
  O2-  O498  1  0.44121493  0.64244716  0.29641509  1
  O2-  O499  1  0.41304905  0.59177908  0.64525650  1
  O2-  O500  1  0.44227138  0.58663565  0.95730226  1
  O2-  O501  1  0.43885348  0.81195730  0.29261971  1
  O2-  O502  1  0.41864431  0.84188317  0.64320041  1
  O2-  O503  1  0.46419378  0.85621219  0.98036911  1
  O2-  O504  1  0.67703710  0.08306509  0.31035880  1
  O2-  O505  1  0.66121855  0.08436933  0.65193414  1
  O2-  O506  1  0.64720602  0.05805570  0.98007178  1
  O2-  O507  1  0.67388761  0.35339274  0.31470560  1
  O2-  O508  1  0.60895802  0.31739840  0.67133889  1
  O2-  O509  1  0.67371008  0.32790225  0.98238814  1
  O2-  O510  1  0.66421869  0.58823092  0.31589584  1
  O2-  O511  1  0.67287976  0.58278549  0.64900920  1
  O2-  O512  1  0.67350791  0.59075335  0.97462888  1
  O2-  O513  1  0.66931594  0.83056658  0.30627528  1
  O2-  O514  1  0.67309538  0.82916523  0.64952777  1
  O2-  O515  1  0.65182101  0.82831004  0.97007412  1
  O2-  O516  1  0.90397834  0.07785421  0.29628150  1
  O2-  O517  1  0.90452167  0.08226611  0.64593929  1
  O2-  O518  1  0.89759182  0.06441098  0.97769248  1
  O2-  O519  1  0.93269194  0.36303914  0.32195716  1
  O2-  O520  1  0.89054497  0.31248099  0.63365290  1
  O2-  O521  1  0.91028471  0.31566804  0.98112995  1
  O2-  O522  1  0.92389460  0.59439828  0.31673538  1
  O2-  O523  1  0.91893480  0.59180484  0.65712529  1
  O2-  O524  1  0.92072837  0.57528543  0.98880056  1
  O2-  O525  1  0.93201072  0.83519321  0.32321109  1
  O2-  O526  1  0.89843320  0.86504562  0.69569829  1
  O2-  O527  1  0.91865840  0.81444626  0.97634706  1
  O2-  O528  1  0.06290361  0.14517161  0.02107190  1
  O2-  O529  1  0.06159331  0.19038931  0.34195312  1
  O2-  O530  1  0.07843208  0.16813460  0.64838264  1
  O2-  O531  1  0.07094780  0.41039704  0.02384199  1
  O2-  O532  1  0.09216158  0.42384183  0.36905348  1
  O2-  O533  1  0.06328964  0.39776338  0.65619030  1
  O2-  O534  1  0.08593940  0.66703755  0.02433848  1
  O2-  O535  1  0.08211699  0.66323064  0.35687845  1
  O2-  O536  1  0.08099294  0.64982888  0.69301523  1
  O2-  O537  1  0.16072144  0.94289800  0.02959949  1
  O2-  O538  1  0.09402968  0.90240850  0.35858636  1
  O2-  O539  1  0.07368325  0.92068135  0.68958255  1
  O2-  O540  1  0.32680356  0.15501972  0.00418893  1
  O2-  O541  1  0.35169019  0.15591336  0.34584206  1
  O2-  O542  1  0.31748173  0.16722831  0.69152741  1
  O2-  O543  1  0.31837610  0.42503021  0.01171104  1
  O2-  O544  1  0.32864122  0.38980429  0.33102321  1
  O2-  O545  1  0.31853619  0.43084751  0.67983634  1
  O2-  O546  1  0.36228999  0.70149395  0.01877499  1
  O2-  O547  1  0.33371652  0.67729343  0.35770478  1
  O2-  O548  1  0.33060944  0.67399404  0.68546454  1
  O2-  O549  1  0.35350488  0.91292635  0.01874169  1
  O2-  O550  1  0.36765142  0.91297972  0.33218588  1
  O2-  O551  1  0.33899826  0.93068614  0.68444104  1
  O2-  O552  1  0.58761978  0.16061575  0.02161011  1
  O2-  O553  1  0.57899620  0.14511088  0.36398408  1
  O2-  O554  1  0.56969191  0.15290658  0.70148659  1
  O2-  O555  1  0.64201580  0.43555260  0.05397813  1
  O2-  O556  1  0.59054850  0.42601314  0.35826738  1
  O2-  O557  1  0.66045939  0.45828175  0.73330017  1
  O2-  O558  1  0.58884201  0.66072544  0.00711845  1
  O2-  O559  1  0.58194969  0.67395999  0.35617060  1
  O2-  O560  1  0.58577494  0.65923743  0.68459952  1
  O2-  O561  1  0.54759634  0.88675137  0.01000345  1
  O2-  O562  1  0.58993110  0.90691819  0.34122165  1
  O2-  O563  1  0.58864319  0.91859443  0.67869399  1
  O2-  O564  1  0.81828381  0.14716866  0.01319985  1
  O2-  O565  1  0.87093888  0.19762778  0.35609883  1
  O2-  O566  1  0.82028152  0.16395974  0.67711032  1
  O2-  O567  1  0.83810600  0.40580594  0.02333265  1
  O2-  O568  1  0.84218416  0.42905124  0.35699391  1
  O2-  O569  1  0.82455368  0.41926846  0.68438682  1
  O2-  O570  1  0.82372291  0.65643719  0.01115853  1
  O2-  O571  1  0.82553572  0.66435713  0.36086619  1
  O2-  O572  1  0.83711031  0.69446139  0.69550924  1
  O2-  O573  1  0.80085307  0.91184037  0.01732505  1
  O2-  O574  1  0.83266830  0.91358847  0.35063920  1
  O2-  O575  1  0.86510523  0.89554181  0.64514714  1
