# generated using pymatgen
data_H2O
_symmetry_space_group_name_H-M   'P 1'
_cell_length_a   17.99097304
_cell_length_b   17.98703780
_cell_length_c   21.97368394
_cell_angle_alpha   89.95316836
_cell_angle_beta   90.04328919
_cell_angle_gamma   120.03008904
_symmetry_Int_Tables_number   1
_chemical_formula_structural   H2O
_chemical_formula_sum   'H384 O192'
_cell_volume   6156.24462531
_cell_formula_units_Z   192
loop_
 _symmetry_equiv_pos_site_id
 _symmetry_equiv_pos_as_xyz
  1  'x, y, z'
loop_
 _atom_type_symbol
 _atom_type_oxidation_number
  H+  1.0
  O2-  -2.0
loop_
 _atom_site_type_symbol
 _atom_site_label
 _atom_site_symmetry_multiplicity
 _atom_site_fract_x
 _atom_site_fract_y
 _atom_site_fract_z
 _atom_site_occupancy
  H+  H0  1  0.89024535  0.53178012  0.65372885  1
  H+  H1  1  0.64241981  0.02616725  0.66568924  1
  H+  H2  1  0.66528300  0.09885971  0.90316501  1
  H+  H3  1  0.38624852  0.01402164  0.99466189  1
  H+  H4  1  0.09374248  0.89196209  0.16777002  1
  H+  H5  1  0.64748188  0.78266885  0.31807238  1
  H+  H6  1  0.48488679  0.87122539  0.48050435  1
  H+  H7  1  0.13368011  0.86971246  0.33802690  1
  H+  H8  1  0.15264047  0.84988395  0.24139840  1
  H+  H9  1  0.83622371  0.17892047  0.81387000  1
  H+  H10  1  0.37329292  0.24849585  0.34351924  1
  H+  H11  1  0.63201697  0.64517104  0.82122177  1
  H+  H12  1  0.16671892  0.86059153  0.65029031  1
  H+  H13  1  0.86570121  0.61593521  0.49104890  1
  H+  H14  1  0.62255622  0.39172158  0.67829676  1
  H+  H15  1  0.67445641  0.49143475  0.16805766  1
  H+  H16  1  0.43507361  0.57152263  0.89932604  1
  H+  H17  1  0.94991840  0.46994154  0.83274430  1
  H+  H18  1  0.85637179  -0.02752792  1.00383983  1
  H+  H19  1  0.11534727  0.72246106  0.48092597  1
  H+  H20  1  0.02292285  0.14864231  0.50322121  1
  H+  H21  1  0.53383532  0.64486109  0.15899417  1
  H+  H22  1  0.36540350  0.38072322  0.00703334  1
  H+  H23  1  0.15219493  0.27070487  0.17648467  1
  H+  H24  1  0.87128534  0.14388090  0.14596500  1
  H+  H25  1  0.63689722  0.86845267  0.16382481  1
  H+  H26  1  0.27776889  0.13580434  0.82924020  1
  H+  H27  1  0.35692045  0.86519742  0.32675253  1
  H+  H28  1  0.87015883  0.22680933  0.66073333  1
  H+  H29  1  0.72863752  0.11516791  0.65575542  1
  H+  H30  1  0.85338360  0.42108738  0.85737082  1
  H+  H31  1  0.60196365  0.47551564  0.01391244  1
  H+  H32  1  0.54038650  0.89261664  0.69284899  1
  H+  H33  1  0.61588258  -0.04142150  0.49177522  1
  H+  H34  1  0.78172334  0.14431782  0.14958604  1
  H+  H35  1  0.47402534  0.10791129  0.83801583  1
  H+  H36  1  0.39985245  0.24785126  0.08444462  1
  H+  H37  1  0.72815661  0.36783520  0.56919186  1
  H+  H38  1  0.98154549  0.33029941  0.83353308  1
  H+  H39  1  0.88513281  0.60556228  0.16479068  1
  H+  H40  1  0.48427900  0.85695827  -0.01215177  1
  H+  H41  1  0.87859669  0.88914269  0.38122321  1
  H+  H42  1  0.54303510  0.63982926  0.82213221  1
  H+  H43  1  0.66100688  0.90617950  0.33383194  1
  H+  H44  1  0.15622808  0.64694563  0.17748756  1
  H+  H45  1  0.62571601  0.89197559  0.67372063  1
  H+  H46  1  -0.02821157  0.61432998  -0.00829232  1
  H+  H47  1  0.38488403  0.11148150  0.83926260  1
  H+  H48  1  0.40478265  0.60402970  0.64650211  1
  H+  H49  1  0.61680608  0.97612315  0.00141435  1
  H+  H50  1  0.56515898  0.91396370  0.83144314  1
  H+  H51  1  0.38498805  0.64806275  0.32248580  1
  H+  H52  1  0.14261959  0.28610363  0.65771563  1
  H+  H53  1  0.14043953  0.64476158  0.32737915  1
  H+  H54  1  0.23513072  0.37599636  0.50340780  1
  H+  H55  1  0.91080113  0.26297709  0.50403912  1
  H+  H56  1  0.14650423  0.13744023  0.67071547  1
  H+  H57  1  0.76588035  0.39296246  1.00908616  1
  H+  H58  1  0.63513944  0.11211922  1.00119701  1
  H+  H59  1  0.90096728  0.73267279  0.14279367  1
  H+  H60  1  0.11757433  0.72693878  0.66112652  1
  H+  H61  1  0.40709437  0.53479358  0.17699960  1
  H+  H62  1  0.32763127  0.58951017  0.71661054  1
  H+  H63  1  0.12670399  0.76768007  0.99215525  1
  H+  H64  1  0.61432539  0.25844120  0.84694610  1
  H+  H65  1  0.97315146  0.10117225  0.35103899  1
  H+  H66  1  0.28051923  0.38881412  0.81705963  1
  H+  H67  1  0.07461357  0.58952271  0.82810311  1
  H+  H68  1  -0.01740415  0.88374053  0.35409628  1
  H+  H69  1  0.12340634  0.14241094  0.82743132  1
  H+  H70  1  0.88384587  0.39340214  0.14225346  1
  H+  H71  1  0.11739819  0.89232701  0.81970876  1
  H+  H72  1  0.61511167  0.57832169  0.48934262  1
  H+  H73  1  0.52160562  0.65161558  0.32774192  1
  H+  H74  1  0.85766043  0.13769904  0.34132037  1
  H+  H75  1  0.04891081  0.14232494  0.16558641  1
  H+  H76  1  0.13650429  0.40406484  0.49309371  1
  H+  H77  1  0.33868997  0.16814854  0.73415043  1
  H+  H78  1  0.13217055  0.61092034  0.49891353  1
  H+  H79  1  0.67583318  0.36804493  0.21217898  1
  H+  H80  1  0.24902287  0.61979542  0.30933089  1
  H+  H81  1  0.58380357  0.66507998  0.42053242  1
  H+  H82  1  0.63600931  0.77116888  0.98820393  1
  H+  H83  1  0.58828543  0.42175527  0.73461541  1
  H+  H84  1  0.28987971  0.39364544  0.16645995  1
  H+  H85  1  0.86159468  0.26816118  0.31226981  1
  H+  H86  1  0.71010214  -0.01473275  0.37772079  1
  H+  H87  1  0.37474112  0.00337961  0.32947569  1
  H+  H88  1  0.72534433  0.11412603  0.99273463  1
  H+  H89  1  0.39058592  0.77434409  0.30853871  1
  H+  H90  1  -0.01860282  0.36811170  0.65755627  1
  H+  H91  1  0.14215749  0.02718349  0.18315733  1
  H+  H92  1  -0.02949334  0.60863829  0.19032723  1
  H+  H93  1  0.47239804  0.36075386  0.98312806  1
  H+  H94  1  0.14145596  0.35872259  0.32714239  1
  H+  H95  1  0.86950072  0.13438065  -0.00452120  1
  H+  H96  1  0.73119588  0.86002578  0.49831753  1
  H+  H97  1  0.45168844  0.85122173  0.88823184  1
  H+  H98  1  0.86327741  0.73823029  0.82054787  1
  H+  H99  1  0.13140159  0.52468897  0.65365542  1
  H+  H100  1  0.32619025  0.04060917  0.18652813  1
  H+  H101  1  0.32280161  0.38938691  0.40547270  1
  H+  H102  1  0.36733521  0.22519424  0.82740614  1
  H+  H103  1  0.62284314  -0.01579868  0.15017882  1
  H+  H104  1  0.16975099  0.58409351  1.09419667  1
  H+  H105  1  0.77313590  -0.09794370  0.15927303  1
  H+  H106  1  0.45993592  0.35478298  0.49915023  1
  H+  H107  1  0.25862959  0.87040070  0.00308032  1
  H+  H108  1  0.34876287  0.66887272  0.82267902  1
  H+  H109  1  0.41041132  0.05649490  0.50593442  1
  H+  H110  1  0.50865321  0.36801658  0.37856334  1
  H+  H111  1  0.54080201  0.40093693  0.06285966  1
  H+  H112  1  0.83334966  0.38794209  0.35317549  1
  H+  H113  1  0.07772279  0.66637211  0.25340657  1
  H+  H114  1  1.03275440  0.13892752  0.82906455  1
  H+  H115  1  0.23159222  0.12651697  0.66949464  1
  H+  H116  1  0.08793361  0.45348055  0.81937986  1
  H+  H117  1  0.52564893  0.13009565  0.01225810  1
  H+  H118  1  0.64353599  0.78213086  0.16284668  1
  H+  H119  1  0.62003811  0.88759577  1.00090082  1
  H+  H120  1  0.22468723  0.13354000  0.33790202  1
  H+  H121  1  0.60546109  0.38483168  0.83089906  1
  H+  H122  1  0.05001618  0.92301243  0.51118329  1
  H+  H123  1  0.13588303  1.00839345  0.50651876  1
  H+  H124  1  0.02498453  0.36507881  0.16023184  1
  H+  H125  1  0.13268963  0.40122860  0.00529423  1
  H+  H126  1  0.20609387  0.87622645  0.17861981  1
  H+  H127  1  0.37246837  0.15460620  0.48490100  1
  H+  H128  1  0.74604135  0.37784279  0.66610768  1
  H+  H129  1  0.57827985  0.50756064  0.30881528  1
  H+  H130  1  0.63330800  0.11823135  0.32070943  1
  H+  H131  1  0.03600850  0.39889887  0.33659239  1
  H+  H132  1  0.43638510  0.60240013  0.23375044  1
  H+  H133  1  0.23712481  0.87721192  0.49595924  1
  H+  H134  1  0.66201436  0.87699930  0.83920806  1
  H+  H135  1  0.11909037  0.39433107  0.66375453  1
  H+  H136  1  0.36025088  0.38759250  0.50011605  1
  H+  H137  1  0.12367763  0.36032348  0.16747758  1
  H+  H138  1  0.48596559  0.36225747  0.66090925  1
  H+  H139  1  0.22325243  0.34404291  0.33083560  1
  H+  H140  1  0.86902042  0.87359757  0.48115488  1
  H+  H141  1  0.12977268  0.50527660  0.49883878  1
  H+  H142  1  0.97550086  0.60858404  0.49719770  1
  H+  H143  1  0.84887844  0.60419595  0.32156820  1
  H+  H144  1  0.61111560  0.21936317  0.01833467  1
  H+  H145  1  0.70538191  0.35534933  0.31784112  1
  H+  H146  1  0.71982333  0.61033801  0.99543004  1
  H+  H147  1  0.14566807  0.27611827  0.83834137  1
  H+  H148  1  0.26972316  0.89643941  0.82211993  1
  H+  H149  1  1.01710609  0.88373238  1.00582617  1
  H+  H150  1  0.85835683  0.89300961  0.65518891  1
  H+  H151  1  0.12747447  0.85669453  0.99376732  1
  H+  H152  1  0.61777434  0.71548950  0.48358380  1
  H+  H153  1  0.39618154  0.36104168  0.66007650  1
  H+  H154  1  0.84418770  0.45963249  0.50870650  1
  H+  H155  1  0.91778238  0.59622757  0.92935319  1
  H+  H156  1  -0.11624954  0.02122234  0.62255465  1
  H+  H157  1  0.86006043  0.64185645  0.00030723  1
  H+  H158  1  0.89336020  0.55118779  0.83184815  1
  H+  H159  1  0.40502661  0.51862195  0.83590308  1
  H+  H160  1  0.40348601  0.87678416  0.67901100  1
  H+  H161  1  0.56142992  0.33807279  0.45563179  1
  H+  H162  1  0.42178335  0.41226142  0.33151282  1
  H+  H163  1  0.59557311  0.21796098  0.32258975  1
  H+  H164  1  0.95284032  0.80802752  0.50497104  1
  H+  H165  1  0.63911550  0.85297653  0.49653302  1
  H+  H166  1  0.39509180  0.12063684  0.66296012  1
  H+  H167  1  0.11143921  0.47204876  0.03098190  1
  H+  H168  1  0.62299569  0.22928747  0.67777166  1
  H+  H169  1  0.64250492  0.77500186  0.65433970  1
  H+  H170  1  0.35171050  0.92323589  0.15631280  1
  H+  H171  1  0.14194500  0.02735405  0.83891494  1
  H+  H172  1  0.02909384  0.15089701  0.67365706  1
  H+  H173  1  0.37671284  0.47406763  0.66065240  1
  H+  H174  1  0.31127412  0.30893716  0.36668937  1
  H+  H175  1  0.78517345  0.89223975  0.81690663  1
  H+  H176  1  0.53940740  0.63733286  0.66409533  1
  H+  H177  1  0.32312714  0.74631999  0.70692192  1
  H+  H178  1  0.59857938  0.91402228  0.42595297  1
  H+  H179  1  0.14150535  0.78094001  0.83304782  1
  H+  H180  1  0.72397222  0.09223677  0.50807055  1
  H+  H181  1  0.65437036  0.78298433  0.83397446  1
  H+  H182  1  0.16752953  0.83627957  0.89470309  1
  H+  H183  1  0.60877771  0.63409765  1.00426219  1
  H+  H184  1  0.16128973  0.58370928  0.56339981  1
  H+  H185  1  0.68031199  0.20970713  0.55492150  1
  H+  H186  1  0.89878286  0.10647535  0.83011641  1
  H+  H187  1  0.66707905  0.83182609  0.59365774  1
  H+  H188  1  1.01272192  0.90555808  0.17191614  1
  H+  H189  1  0.66609114  0.51271481  0.31524499  1
  H+  H190  1  0.65343217  0.12739146  0.16586701  1
  H+  H191  1  0.10545329  0.63069113  0.03485666  1
  H+  H192  1  0.77089570  0.14237125  0.33652595  1
  H+  H193  1  1.02700666  0.04032476  1.05478127  1
  H+  H194  1  0.14349095  0.09825982  0.99819159  1
  H+  H195  1  0.82160741  0.46811834  0.34506909  1
  H+  H196  1  0.10402881  0.00448538  0.67375256  1
  H+  H197  1  0.31541868  0.60047279  0.68647001  1
  H+  H198  1  0.20315001  0.62551168  0.66124357  1
  H+  H199  1  0.13926272  0.14321055  0.17003176  1
  H+  H200  1  0.36556593  0.47960073  0.48934648  1
  H+  H201  1  0.60983730  0.64607229  0.32912713  1
  H+  H202  1  0.87822232  0.77185891  0.65491642  1
  H+  H203  1  0.58366890  0.43800798  0.46816504  1
  H+  H204  1  0.13574853  0.12834583  0.51607019  1
  H+  H205  1  0.90429493  0.02245640  0.83468233  1
  H+  H206  1  0.66189024  0.57796749  0.93607157  1
  H+  H207  1  0.40757193  0.55428180  0.31934458  1
  H+  H208  1  0.87990227  0.89119876  0.19365132  1
  H+  H209  1  0.09448955  0.91784014  0.65372900  1
  H+  H210  1  0.64291706  0.52268433  0.65455079  1
  H+  H211  1  0.38054524  0.91616090  0.47670661  1
  H+  H212  1  0.77834818  0.38219428  0.47047113  1
  H+  H213  1  0.89329796  0.87089388  0.83155283  1
  H+  H214  1  0.10091129  0.21758739  0.34238951  1
  H+  H215  1  0.30708220  0.66202525  0.15041072  1
  H+  H216  1  -0.02465257  0.62294369  0.65088948  1
  H+  H217  1  0.52935898  0.20497716  0.48121749  1
  H+  H218  1  0.98023063  0.86802823  0.83665165  1
  H+  H219  1  0.64449709  0.61160272  0.64863323  1
  H+  H220  1  0.37685646  0.47502908  0.01068116  1
  H+  H221  1  0.48638762  0.12318383  0.66342475  1
  H+  H222  1  0.88174368  0.86389009  0.99170262  1
  H+  H223  1  0.36650204  -0.00384951  0.82556660  1
  H+  H224  1  0.58323203  0.66878151  0.06320948  1
  H+  H225  1  0.08386740  0.92549390  0.76320078  1
  H+  H226  1  0.25583111  0.39725089  0.98945288  1
  H+  H227  1  0.35413301  0.23055935  0.49442212  1
  H+  H228  1  0.28676076  0.13876364  1.00976744  1
  H+  H229  1  0.86012751  0.12934823  0.49193743  1
  H+  H230  1  0.52035459  0.38978790  0.82546952  1
  H+  H231  1  0.74109688  0.62909200  0.17441982  1
  H+  H232  1  0.38608595  0.35977497  0.83047867  1
  H+  H233  1  0.62930206  0.36197698  1.00398049  1
  H+  H234  1  0.87197264  0.80321535  0.21127492  1
  H+  H235  1  0.89796397  0.25538160  0.98990049  1
  H+  H236  1  0.65921795  0.05181656  0.84139368  1
  H+  H237  1  0.65557581  0.20871965  0.52713324  1
  H+  H238  1  0.61846336  0.13840151  0.67646365  1
  H+  H239  1  0.96226666  0.86801975  0.65243244  1
  H+  H240  1  0.60892061  0.13780083  0.83383904  1
  H+  H241  1  0.73062712  0.61425666  0.84049744  1
  H+  H242  1  0.39666994  0.61916238  0.49525147  1
  H+  H243  1  0.46795498  0.96111055  0.20147581  1
  H+  H244  1  0.89466497  0.03544596  0.16620312  1
  H+  H245  1  0.85865289  0.73051019  0.00066615  1
  H+  H246  1  0.22006107  0.86443759  0.32706277  1
  H+  H247  1  0.55806168  0.23594280  0.20212310  1
  H+  H248  1  0.10602660  0.13122143  0.34706876  1
  H+  H249  1  0.77038898  0.63637915  0.66427596  1
  H+  H250  1  0.07201385  0.91193916  0.06763460  1
  H+  H251  1  0.88543737  0.63590980  0.83345424  1
  H+  H252  1  0.64043116  0.52517578  0.84040582  1
  H+  H253  1  0.70211391  0.34507129  0.84641782  1
  H+  H254  1  0.09824886  0.63171266  0.66460540  1
  H+  H255  1  0.86862514  -0.02142034  0.38983155  1
  H+  H256  1  0.11627602  -0.01157202  0.35206982  1
  H+  H257  1  0.38733896  0.64701749  0.15206676  1
  H+  H258  1  0.37977507  0.99324062  0.67087629  1
  H+  H259  1  0.96978634  0.09608305  0.99199987  1
  H+  H260  1  0.37497643  0.13903490  1.00665307  1
  H+  H261  1  0.62351332  0.64607872  0.15536029  1
  H+  H262  1  0.16509511  0.10099659  0.57721648  1
  H+  H263  1  0.37024186  0.22807339  0.67416214  1
  H+  H264  1  0.44734760  0.80046955  0.82931817  1
  H+  H265  1  0.86758088  0.13884586  0.64381251  1
  H+  H266  1  0.38696931  0.26977886  0.98406818  1
  H+  H267  1  0.51431014  0.13823868  0.21022833  1
  H+  H268  1  0.02060834  0.66078850  0.81644334  1
  H+  H269  1  0.89272707  0.27455692  0.15659821  1
  H+  H270  1  0.23558424  0.65340804  0.84943344  1
  H+  H271  1  0.76928547  0.88257479  0.00926943  1
  H+  H272  1  0.36759932  0.73416780  0.47802240  1
  H+  H273  1  0.75150522  0.64938731  0.34792527  1
  H+  H274  1  0.39141353  0.13699747  0.19976561  1
  H+  H275  1  0.39754018  0.85819396  -0.02206755  1
  H+  H276  1  0.15871927  0.53158383  0.31027635  1
  H+  H277  1  0.22922285  0.61272171  0.83412895  1
  H+  H278  1  0.24315056  0.46136001  0.94889659  1
  H+  H279  1  0.89416637  0.32919891  0.83810605  1
  H+  H280  1  0.85656589  0.48451814  1.00188870  1
  H+  H281  1  0.35352618  0.96798355  0.43148641  1
  H+  H282  1  0.35832393  0.71133613  -0.00309840  1
  H+  H283  1  0.89364901  0.01960907  0.52570205  1
  H+  H284  1  0.99556307  0.35389870  0.99078694  1
  H+  H285  1  0.84387050  0.69876019  0.49832111  1
  H+  H286  1  0.38654326  0.60327878  0.98847970  1
  H+  H287  1  0.87626113  0.48166852  0.15101942  1
  H+  H288  1  0.83486550  0.16602885  0.43283203  1
  H+  H289  1  0.98658526  0.28225010  0.54745754  1
  H+  H290  1  0.65146191  0.03786423  0.32031793  1
  H+  H291  1  0.92231404  0.33666623  0.59915854  1
  H+  H292  1  0.51061368  0.12714582  0.33590646  1
  H+  H293  1  0.89626176  0.03527516  0.30756326  1
  H+  H294  1  0.37456580  0.07502440  0.28827588  1
  H+  H295  1  0.42210840  0.81356362  0.63952606  1
  H+  H296  1  0.90202791  0.81210672  0.56391759  1
  H+  H297  1  0.91377474  0.86588852  0.29961531  1
  H+  H298  1  0.17195429  0.34304913  0.59602548  1
  H+  H299  1  0.29578176  0.89744398  0.66501496  1
  H+  H300  1  0.33429906  0.93104151  0.75933539  1
  H+  H301  1  0.07134429  0.54186847  0.88955670  1
  H+  H302  1  0.91306244  0.33144400  0.21705249  1
  H+  H303  1  0.28183022  0.64394400  0.48382344  1
  H+  H304  1  0.92699131  0.10782924  0.21786871  1
  H+  H305  1  0.09992484  0.73481381  0.20075978  1
  H+  H306  1  0.67747953  0.09837693  0.22788996  1
  H+  H307  1  0.34728905  0.66375171  0.06059532  1
  H+  H308  1  0.31903786  0.85304108  0.04621509  1
  H+  H309  1  0.14949576  0.01554064  0.99340591  1
  H+  H310  1  0.34532456  0.41974373  0.10593758  1
  H+  H311  1  0.81184815  0.30534147  0.27669384  1
  H+  H312  1  0.08000116  0.67855984  0.75684494  1
  H+  H313  1  0.47866902  0.60978053  0.99429241  1
  H+  H314  1  0.81686188  0.64656209  0.43316990  1
  H+  H315  1  0.13005387  0.72913072  0.33545264  1
  H+  H316  1  0.16772314  0.08673782  0.27907909  1
  H+  H317  1  0.07536636  0.17199019  0.44031663  1
  H+  H318  1  0.66646294  0.05971567  0.56816171  1
  H+  H319  1  0.08035802  0.13505141  0.07667737  1
  H+  H320  1  0.08458525  0.41543183  0.72432402  1
  H+  H321  1  0.09669132  0.42903193  0.39395577  1
  H+  H322  1  0.41524106  0.07214837  0.93536686  1
  H+  H323  1  0.18415753  0.34890772  0.89173822  1
  H+  H324  1  0.32654235  0.19999022  0.40548173  1
  H+  H325  1  0.41330976  0.33139190  0.89246915  1
  H+  H326  1  0.08946926  0.39066013  0.09995189  1
  H+  H327  1  0.83683082  0.92583863  0.10252203  1
  H+  H328  1  0.66356032  0.41956562  0.12194037  1
  H+  H329  1  0.41567233  0.84445163  0.25441905  1
  H+  H330  1  0.09304083  0.93437867  0.41384715  1
  H+  H331  1  0.13962547  0.28934074  0.50281302  1
  H+  H332  1  0.42675544  0.65529900  0.82448194  1
  H+  H333  1  0.48411305  0.61453925  0.49113899  1
  H+  H334  1  0.67810013  0.83457892  0.93044795  1
  H+  H335  1  0.48239710  0.90176707  0.15896809  1
  H+  H336  1  0.93720263  0.31670906  0.92457958  1
  H+  H337  1  0.62623646  0.94199780  0.77403659  1
  H+  H338  1  0.77260464  0.89707350  0.65862870  1
  H+  H339  1  0.14974021  0.87722044  0.50480940  1
  H+  H340  1  0.64440969  0.54613169  0.54601654  1
  H+  H341  1  0.43531532  0.11213900  0.56565015  1
  H+  H342  1  0.23970462  0.09614048  0.19968691  1
  H+  H343  1  0.86180927  0.64238481  0.66631156  1
  H+  H344  1  0.67066315  0.58404000  0.22757688  1
  H+  H345  1  0.42254997  0.85426379  0.53581675  1
  H+  H346  1  0.18834393  0.83508628  0.58650011  1
  H+  H347  1  0.59791166  0.66950288  0.72475233  1
  H+  H348  1  0.08825946  0.66062049  0.42268668  1
  H+  H349  1  0.25683486  0.68350535  0.75505386  1
  H+  H350  1  0.84127085  0.92583187  0.75527476  1
  H+  H351  1  0.04134091  0.39202785  0.49396016  1
  H+  H352  1  0.30804942  0.85853043  0.38901090  1
  H+  H353  1  0.84065532  0.67261675  0.09093471  1
  H+  H354  1  0.34374557  0.67299798  0.38079330  1
  H+  H355  1  0.84264535  0.14480829  0.74901920  1
  H+  H356  1  0.67626300  0.84080338  0.25816942  1
  H+  H357  1  0.57894785  0.16622643  0.77243527  1
  H+  H358  1  0.65562368  0.32884724  0.94539288  1
  H+  H359  1  0.84390367  0.73441067  0.35394836  1
  H+  H360  1  0.58815594  0.92213584  0.09176826  1
  H+  H361  1  0.11927474  0.38235977  0.81924367  1
  H+  H362  1  0.06125260  0.67197621  0.07303479  1
  H+  H363  1  0.30895803  0.94341483  0.10106216  1
  H+  H364  1  0.83122987  0.67614889  0.76104086  1
  H+  H365  1  0.87432780  0.56449767  0.26591181  1
  H+  H366  1  0.08390649  0.17828683  0.73653846  1
  H+  H367  1  0.17420517  0.08305977  0.90022539  1
  H+  H368  1  0.41827186  0.33578649  0.56731267  1
  H+  H369  1  0.57726498  0.22427496  0.41911437  1
  H+  H370  1  0.84278165  0.17014455  0.05523299  1
  H+  H371  1  0.34125071  0.41793813  0.75779754  1
  H+  H372  1  0.17123167  0.32918696  0.23780841  1
  H+  H373  1  0.91489315  0.83895472  0.93075771  1
  H+  H374  1  0.86056907  0.43190769  0.73325925  1
  H+  H375  1  0.18927652  0.59434085  0.21088944  1
  H+  H376  1  0.43438583  0.58265605  0.58425742  1
  H+  H377  1  0.87736979  0.39680201  0.67138399  1
  H+  H378  1  0.22096889  0.60710109  1.03187959  1
  H+  H379  1  0.28274747  0.39091765  0.66393354  1
  H+  H380  1  0.37743275  0.34164425  0.15887171  1
  H+  H381  1  0.91959104  0.07753025  0.92768525  1
  H+  H382  1  0.91965080  0.58658316  0.56022956  1
  H+  H383  1  0.84286792  0.42632359  0.07698617  1
  O2-  O384  1  0.10919641  0.17227485  0.15107595  1
  O2-  O385  1  0.08068259  0.18336372  0.48505177  1
  O2-  O386  1  0.09336811  0.17324549  0.81280880  1
  O2-  O387  1  0.08713422  0.38802278  0.14630208  1
  O2-  O388  1  0.10178290  0.43398954  0.47867359  1
  O2-  O389  1  0.07712625  0.39829969  0.80186075  1
  O2-  O390  1  0.07610884  0.67197594  0.20867082  1
  O2-  O391  1  0.08507285  0.66113237  0.46857309  1
  O2-  O392  1  0.08046836  0.67928404  0.80257734  1
  O2-  O393  1  0.06783117  0.92583006  0.15039691  1
  O2-  O394  1  0.10591860  0.94404694  0.49207528  1
  O2-  O395  1  0.08646977  0.92332675  0.80823351  1
  O2-  O396  1  0.43762936  0.30059460  0.10819510  1
  O2-  O397  1  0.33497697  0.17689596  0.47083611  1
  O2-  O398  1  0.33834445  0.16340449  0.81379541  1
  O2-  O399  1  0.34939550  0.42042046  0.15125884  1
  O2-  O400  1  0.32962689  0.41660769  0.48089889  1
  O2-  O401  1  0.34154815  0.41709700  0.80341126  1
  O2-  O402  1  0.36254758  0.67897347  0.13083503  1
  O2-  O403  1  0.34074350  0.67216912  0.46782862  1
  O2-  O404  1  0.40699268  0.69358257  0.80668855  1
  O2-  O405  1  0.30828091  0.94018060  0.14575594  1
  O2-  O406  1  0.34617572  0.94596871  0.47318349  1
  O2-  O407  1  0.33066723  0.93161519  0.80589426  1
  O2-  O408  1  0.50744912  0.18169668  0.18877538  1
  O2-  O409  1  0.57483526  0.25208412  0.45700395  1
  O2-  O410  1  0.57209216  0.16324725  0.81771555  1
  O2-  O411  1  0.68717401  0.44425052  0.16153968  1
  O2-  O412  1  0.54089670  0.38076215  0.45086995  1
  O2-  O413  1  0.58270629  0.42046935  0.81347753  1
  O2-  O414  1  0.59356289  0.67632504  0.14032126  1
  O2-  O415  1  0.58263782  0.65711460  0.46622602  1
  O2-  O416  1  0.60171651  0.67444035  0.80430127  1
  O2-  O417  1  0.58546838  0.92369550  0.13764980  1
  O2-  O418  1  0.58189792  0.90086533  0.46972480  1
  O2-  O419  1  0.62830713  0.94415477  0.81928383  1
  O2-  O420  1  0.84073453  0.17393079  0.13104412  1
  O2-  O421  1  0.83776561  0.16681382  0.47823170  1
  O2-  O422  1  0.83870514  0.13219720  0.79321164  1
  O2-  O423  1  0.85315661  0.42421000  0.12889810  1
  O2-  O424  1  0.80472218  0.39729935  0.51095413  1
  O2-  O425  1  0.88768709  0.43623738  0.82017472  1
  O2-  O426  1  0.85047506  0.67630479  0.13672803  1
  O2-  O427  1  0.82452032  0.64101381  0.47859507  1
  O2-  O428  1  0.83287609  0.67670690  0.80665075  1
  O2-  O429  1  0.83653127  0.93365787  0.14784541  1
  O2-  O430  1  0.85201300  0.91798980  0.47143648  1
  O2-  O431  1  0.84544756  0.92213418  0.80003699  1
  O2-  O432  1  0.17919816  0.08507622  0.20139538  1
  O2-  O433  1  0.15996083  0.09381541  0.53232832  1
  O2-  O434  1  0.17391560  0.08734280  0.85484889  1
  O2-  O435  1  0.17325795  0.33137040  0.19155501  1
  O2-  O436  1  0.17220940  0.35075841  0.51696718  1
  O2-  O437  1  0.17657474  0.33963047  0.84706824  1
  O2-  O438  1  0.18889592  0.61698318  0.16956688  1
  O2-  O439  1  0.16182325  0.58006800  0.51667027  1
  O2-  O440  1  0.05689558  0.53111098  0.84646173  1
  O2-  O441  1  0.14673090  0.84502185  0.19565870  1
  O2-  O442  1  0.17750851  0.84167480  0.51194899  1
  O2-  O443  1  0.17230767  0.84111074  0.84942738  1
  O2-  O444  1  0.33295125  0.08995771  0.21066967  1
  O2-  O445  1  0.43643071  0.11610483  0.52053998  1
  O2-  O446  1  0.41144142  0.07559179  0.85233632  1
  O2-  O447  1  0.38439378  0.28979202  0.16196773  1
  O2-  O448  1  0.40551795  0.33579815  0.52310147  1
  O2-  O449  1  0.41617463  0.32966277  0.84682564  1
  O2-  O450  1  0.43664419  0.59690786  0.18662729  1
  O2-  O451  1  0.42438675  0.58637946  0.50962930  1
  O2-  O452  1  0.44332877  0.57619727  0.85427120  1
  O2-  O453  1  0.43556008  0.90606225  0.18071029  1
  O2-  O454  1  0.42155470  0.84980873  0.49159714  1
  O2-  O455  1  0.46428858  0.85911119  0.84412600  1
  O2-  O456  1  0.68174911  0.09726389  0.18191131  1
  O2-  O457  1  0.66970814  0.04587000  0.52470728  1
  O2-  O458  1  0.66952479  0.10762792  0.85832857  1
  O2-  O459  1  0.67194239  0.31615534  0.23280584  1
  O2-  O460  1  0.67574494  0.36013743  0.59114739  1
  O2-  O461  1  0.64480143  0.31953910  0.86391060  1
  O2-  O462  1  0.67923636  0.59240022  0.18280562  1
  O2-  O463  1  0.63505127  0.53829854  0.50176088  1
  O2-  O464  1  0.67128737  0.58483043  0.85742384  1
  O2-  O465  1  0.67238171  0.84317524  0.17771614  1
  O2-  O466  1  0.67197370  0.82617275  0.51354949  1
  O2-  O467  1  0.68885182  0.84144662  0.85198792  1
  O2-  O468  1  0.93198473  0.09961076  0.17454788  1
  O2-  O469  1  0.91539811  0.08044568  0.53775246  1
  O2-  O470  1  0.93156179  0.08176213  0.85209819  1
  O2-  O471  1  0.92738004  0.33529314  0.17247119  1
  O2-  O472  1  0.96025740  0.31159145  0.52688020  1
  O2-  O473  1  0.92456126  0.30136009  0.85534107  1
  O2-  O474  1  0.90697559  0.57052966  0.18469242  1
  O2-  O475  1  0.91619716  0.58233265  0.51407437  1
  O2-  O476  1  0.92018263  0.60904649  0.84958524  1
  O2-  O477  1  0.90806698  0.86471250  0.21871378  1
  O2-  O478  1  0.89753931  0.80108146  0.51748110  1
  O2-  O479  1  0.91947451  0.83868617  0.85101879  1
  O2-  O480  1  0.16475447  0.08975903  0.32450115  1
  O2-  O481  1  0.16999288  0.10077205  0.65605766  1
  O2-  O482  1  0.17962418  0.07668991  0.98003880  1
  O2-  O483  1  0.16410361  0.32163236  0.31235650  1
  O2-  O484  1  0.17417620  0.34599007  0.64144572  1
  O2-  O485  1  0.21082917  0.40240688  0.96405497  1
  O2-  O486  1  0.18755281  0.59014827  0.29335196  1
  O2-  O487  1  0.15343457  0.58352321  0.63562796  1
  O2-  O488  1  0.16075812  0.57744370  1.04896086  1
  O2-  O489  1  0.15805361  0.83864377  0.31574672  1
  O2-  O490  1  0.19328035  0.83012852  0.63229517  1
  O2-  O491  1  0.15784692  0.82742878  0.97639302  1
  O2-  O492  1  0.40028391  0.06591524  0.32528987  1
  O2-  O493  1  0.42629288  0.09158825  0.64693543  1
  O2-  O494  1  0.41640172  0.07397389  0.98055231  1
  O2-  O495  1  0.47807482  0.42412822  0.31395808  1
  O2-  O496  1  0.42525188  0.32934279  0.64579896  1
  O2-  O497  1  0.41178320  0.33038914  0.96866128  1
  O2-  O498  1  0.43711776  0.61255121  0.30323184  1
  O2-  O499  1  0.43665228  0.57767731  0.63013376  1
  O2-  O500  1  0.41881429  0.57319657  0.97741535  1
  O2-  O501  1  0.41384006  0.83680451  0.29885269  1
  O2-  O502  1  0.42464360  0.83464141  0.68067383  1
  O2-  O503  1  0.42557172  0.82473600  0.96895978  1
  O2-  O504  1  0.67206345  0.09700949  0.30418378  1
  O2-  O505  1  0.66603804  0.08425800  0.64641328  1
  O2-  O506  1  0.66397076  0.08138972  0.98210602  1
  O2-  O507  1  0.64835509  0.32409061  0.29562075  1
  O2-  O508  1  0.68338131  0.34213452  0.65538009  1
  O2-  O509  1  0.66373060  0.33560204  0.99026744  1
  O2-  O510  1  0.64199440  0.54922443  0.30497978  1
  O2-  O511  1  0.67375129  0.58007671  0.63431792  1
  O2-  O512  1  0.65892498  0.57712663  0.98168988  1
  O2-  O513  1  0.68417460  0.84293657  0.30302596  1
  O2-  O514  1  0.66861512  0.83559280  0.63899948  1
  O2-  O515  1  0.67123410  0.83290717  0.97590925  1
  O2-  O516  1  0.90721690  0.06201809  0.34771526  1
  O2-  O517  1  0.91903078  0.08291254  0.60666996  1
  O2-  O518  1  0.91269955  0.07695080  0.97351415  1
  O2-  O519  1  0.86986593  0.31937860  0.28866771  1
  O2-  O520  1  0.91963814  0.33876195  0.64404328  1
  O2-  O521  1  0.93637976  0.32032048  0.97158813  1
  O2-  O522  1  0.86759010  0.56325351  0.31062782  1
  O2-  O523  1  0.91506475  0.58997823  0.63486700  1
  O2-  O524  1  0.91278113  0.58797025  0.97446482  1
  O2-  O525  1  0.91806381  0.85699170  0.34431977  1
  O2-  O526  1  0.90497885  0.82992398  0.63391765  1
  O2-  O527  1  0.91382200  0.83543179  0.97629223  1
  O2-  O528  1  0.05573007  0.09911164  0.03923200  1
  O2-  O529  1  0.07172596  0.15895511  0.36117953  1
  O2-  O530  1  0.08706797  0.18419195  0.69068307  1
  O2-  O531  1  0.08727434  0.40780196  0.02781439  1
  O2-  O532  1  0.09574063  0.42252740  0.34917495  1
  O2-  O533  1  0.08570919  0.42183428  0.67901282  1
  O2-  O534  1  0.07207113  0.66186878  0.03114559  1
  O2-  O535  1  0.10233190  0.66647625  0.34285923  1
  O2-  O536  1  0.07617432  0.66997447  0.67872452  1
  O2-  O537  1  0.07683043  0.90933682  0.02269288  1
  O2-  O538  1  0.08328797  0.92808611  0.36878662  1
  O2-  O539  1  0.06779273  0.93957685  0.68152035  1
  O2-  O540  1  0.34898804  0.17422116  0.01917566  1
  O2-  O541  1  0.31612874  0.21832372  0.36315314  1
  O2-  O542  1  0.33631253  0.16681403  0.68869515  1
  O2-  O543  1  0.34070437  0.41446261  0.02588802  1
  O2-  O544  1  0.31696159  0.36758054  0.36273792  1
  O2-  O545  1  0.34262473  0.41612088  0.67961927  1
  O2-  O546  1  0.32967566  0.65316609  0.01546423  1
  O2-  O547  1  0.34507058  0.67375562  0.33593075  1
  O2-  O548  1  0.26128873  0.70513902  0.71365438  1
  O2-  O549  1  0.31886445  0.89689510  0.02007584  1
  O2-  O550  1  0.31953813  0.88656761  0.34933391  1
  O2-  O551  1  0.35023271  0.93213499  0.68801688  1
  O2-  O552  1  0.58474797  0.15790598  0.02879535  1
  O2-  O553  1  0.57388614  0.16164964  0.34363357  1
  O2-  O554  1  0.58907435  0.16937380  0.69281037  1
  O2-  O555  1  0.57088449  0.41248923  0.02368228  1
  O2-  O556  1  0.48420593  0.34995741  0.33591199  1
  O2-  O557  1  0.58934776  0.42029554  0.68912878  1
  O2-  O558  1  0.57979700  0.66652031  0.01745749  1
  O2-  O559  1  0.58606760  0.67985477  0.34612997  1
  O2-  O560  1  0.59954606  0.67093152  0.67912479  1
  O2-  O561  1  0.58707620  0.91504704  0.01635651  1
  O2-  O562  1  0.65450677  0.95237705  0.35772002  1
  O2-  O563  1  0.60382099  0.92622882  0.69521393  1
  O2-  O564  1  0.84566880  0.17220240  0.00944978  1
  O2-  O565  1  0.83158020  0.17262017  0.35277262  1
  O2-  O566  1  0.84047655  0.16401119  0.66929605  1
  O2-  O567  1  0.82915594  0.42561480  0.02019455  1
  O2-  O568  1  0.79302766  0.40797704  0.36210648  1
  O2-  O569  1  0.85168502  0.43061532  0.68902092  1
  O2-  O570  1  0.82938041  0.67045885  0.01749587  1
  O2-  O571  1  0.81013635  0.67242657  0.36378716  1
  O2-  O572  1  0.83083798  0.67171185  0.68146056  1
  O2-  O573  1  0.83055923  0.91515234  0.02421950  1
  O2-  O574  1  0.84138686  0.91531390  0.40483216  1
  O2-  O575  1  0.83605202  0.93140647  0.66750854  1
