# generated using pymatgen
data_H2O
_symmetry_space_group_name_H-M   'P 1'
_cell_length_a   17.99522448
_cell_length_b   17.99079151
_cell_length_c   21.98772629
_cell_angle_alpha   90.01420461
_cell_angle_beta   89.99728906
_cell_angle_gamma   119.99814518
_symmetry_Int_Tables_number   1
_chemical_formula_structural   H2O
_chemical_formula_sum   'H384 O192'
_cell_volume   6164.90792518
_cell_formula_units_Z   192
loop_
 _symmetry_equiv_pos_site_id
 _symmetry_equiv_pos_as_xyz
  1  'x, y, z'
loop_
 _atom_type_symbol
 _atom_type_oxidation_number
  H+  1.0
  O2-  -2.0
loop_
 _atom_site_type_symbol
 _atom_site_label
 _atom_site_symmetry_multiplicity
 _atom_site_fract_x
 _atom_site_fract_y
 _atom_site_fract_z
 _atom_site_occupancy
  H+  H0  1  0.13744489  0.60550625  0.33640306  1
  H+  H1  1  0.77631735  0.14911604  0.16210867  1
  H+  H2  1  0.38104339  0.03704431  0.51235904  1
  H+  H3  1  0.50403346  0.37409044  0.81750740  1
  H+  H4  1  0.48425717  0.36556525  0.16899078  1
  H+  H5  1  0.47015740  0.12089715  0.65686897  1
  H+  H6  1  0.37550693  0.60018520  0.18142433  1
  H+  H7  1  0.78677895  0.38724505  0.81727428  1
  H+  H8  1  0.87160890  0.10457136  0.51351685  1
  H+  H9  1  0.95407448  0.85298528  0.11731716  1
  H+  H10  1  0.61085471  0.15080512  0.66639131  1
  H+  H11  1  0.13073173  0.12705051  0.32908685  1
  H+  H12  1  0.23535679  0.85043881  0.17842168  1
  H+  H13  1  0.14355138  0.11340263  0.83293430  1
  H+  H14  1  0.48273332  0.59369602  0.66903406  1
  H+  H15  1  0.89594312  0.25902135  0.34130892  1
  H+  H16  1  0.16351720  0.88843009  0.81993355  1
  H+  H17  1  0.27336168  0.64134919  0.51275319  1
  H+  H18  1  0.18376424  0.06101511  0.98411916  1
  H+  H19  1  0.11948876  0.40124934  0.82249458  1
  H+  H20  1  0.13635477  0.77672033  0.51307544  1
  H+  H21  1  0.22222883  0.86889276  0.51316625  1
  H+  H22  1  0.52550084  0.13046841  -0.00038424  1
  H+  H23  1  0.89817317  0.87202944  0.66130089  1
  H+  H24  1  0.58455838  0.39353082  0.65310960  1
  H+  H25  1  0.13041607  0.74064370  0.68647500  1
  H+  H26  1  0.53404003  0.38582445  1.00555607  1
  H+  H27  1  0.72791082  0.87101539  0.50341762  1
  H+  H28  1  0.39584664  1.02940327  0.17531674  1
  H+  H29  1  0.35620427  0.62950548  0.00958327  1
  H+  H30  1  0.27810000  0.64980998  0.66501281  1
  H+  H31  1  0.85845020  0.97892017  0.15538226  1
  H+  H32  1  0.13930959  0.11859634  0.51219057  1
  H+  H33  1  0.41714181  0.58288760  0.61155511  1
  H+  H34  1  0.62369469  0.59973087  0.83182738  1
  H+  H35  1  0.52295016  0.38577215  0.33989504  1
  H+  H36  1  0.85687533  0.59603875  -0.00280350  1
  H+  H37  1  0.63537901  0.02727595  0.82490947  1
  H+  H38  1  0.34603640  0.36831908  0.65575759  1
  H+  H39  1  0.44652265  0.36533558  0.63649215  1
  H+  H40  1  0.39618022  0.64370058  0.53044093  1
  H+  H41  1  0.00222100  0.38210530  0.00405337  1
  H+  H42  1  0.15793805  0.53255474  0.66479251  1
  H+  H43  1  0.42277715  0.80001464  0.96518360  1
  H+  H44  1  1.03542026  0.15417431  0.82715874  1
  H+  H45  1  0.11766989  0.51900402  0.98097921  1
  H+  H46  1  0.62026906  0.50919079  0.82811496  1
  H+  H47  1  0.12526402  0.23650032  0.82566926  1
  H+  H48  1  0.65835931  0.82879024  0.60080424  1
  H+  H49  1  0.74592706  0.59454714  0.35510193  1
  H+  H50  1  0.61911960  0.50705174  0.33548999  1
  H+  H51  1  0.66039802  0.82861027  0.26246041  1
  H+  H52  1  0.04681878  0.16029360  0.67491923  1
  H+  H53  1  0.38457536  0.02401750  0.98973338  1
  H+  H54  1  0.63617122  0.67675167  0.52863448  1
  H+  H55  1  0.38948115  0.51157328  0.33243493  1
  H+  H56  1  0.26818550  0.54968430  0.77236894  1
  H+  H57  1  0.97722743  0.36549656  0.52796264  1
  H+  H58  1  0.14464347  0.61557818  0.51443634  1
  H+  H59  1  0.64005756  0.02668258  0.32729544  1
  H+  H60  1  0.38118166  0.36180036  0.84119405  1
  H+  H61  1  0.86286259  0.73941891  0.51781224  1
  H+  H62  1  0.14347925  0.87471588  0.66499535  1
  H+  H63  1  0.88012475  0.16113659  0.66442258  1
  H+  H64  1  0.98126944  0.35676056  0.16201171  1
  H+  H65  1  0.14657616  0.13337845  0.65980344  1
  H+  H66  1  0.84261936  0.87425446  1.00080795  1
  H+  H67  1  0.35249652  0.60415616  0.35673414  1
  H+  H68  1  0.86861545  1.01506155  -0.01463999  1
  H+  H69  1  0.62179810  0.38319161  1.00352782  1
  H+  H70  1  0.85901037  0.89051144  0.14952318  1
  H+  H71  1  0.93432853  0.82497665  0.84084274  1
  H+  H72  1  0.64403173  0.27754788  0.83477865  1
  H+  H73  1  0.73325889  0.36088466  0.19193916  1
  H+  H74  1  0.36366784  0.77398874  0.53445876  1
  H+  H75  1  0.22674125  0.36874406  0.84184256  1
  H+  H76  1  0.71401978  0.85375431  0.32500299  1
  H+  H77  1  0.83036158  0.02290145  0.55412084  1
  H+  H78  1  0.84367057  0.61789627  0.81925963  1
  H+  H79  1  0.36392500  0.47548586  0.82268137  1
  H+  H80  1  0.89363673  0.36723777  0.84430646  1
  H+  H81  1  0.61805316  0.23205802  0.18642281  1
  H+  H82  1  0.15265630  1.02572346  0.82792016  1
  H+  H83  1  0.31282710  0.63986674  0.11209229  1
  H+  H84  1  0.86600446  0.48115309  0.66729509  1
  H+  H85  1  0.79208710  0.16345259  0.65779169  1
  H+  H86  1  0.77228858  0.73409527  0.57051391  1
  H+  H87  1  0.14673893  0.61788094  0.67075262  1
  H+  H88  1  0.85031362  0.86356305  0.49468865  1
  H+  H89  1  0.14343011  0.03044062  0.51521567  1
  H+  H90  1  0.13589206  0.64834399  0.01203608  1
  H+  H91  1  0.61001670  0.72295103  0.32988457  1
  H+  H92  1  0.65372249  0.56700215  0.92614478  1
  H+  H93  1  0.64153859  0.11666630  0.32753115  1
  H+  H94  1  0.88162845  0.25915983  0.15921403  1
  H+  H95  1  0.13383731  0.27205101  0.33069937  1
  H+  H96  1  0.53665959  0.91136363  0.65781012  1
  H+  H97  1  0.63771488  0.24535557  0.47701082  1
  H+  H98  1  0.72543241  0.86569934  0.17188037  1
  H+  H99  1  0.89693311  0.28848135  0.62389622  1
  H+  H100  1  0.63235762  0.78159519  0.16971704  1
  H+  H101  1  0.38075741  0.27227606  0.83994831  1
  H+  H102  1  0.66066479  1.04715176  0.17009829  1
  H+  H103  1  0.37828645  0.50150767  0.66433953  1
  H+  H104  1  0.52632901  0.14570895  0.82397981  1
  H+  H105  1  0.15170769  0.07103895  0.91875716  1
  H+  H106  1  0.60973157  0.72172389  0.81776134  1
  H+  H107  1  0.91401835  0.07922539  0.26714474  1
  H+  H108  1  0.88208357  1.01621055  0.32462349  1
  H+  H109  1  0.43787584  0.85942236  0.56388544  1
  H+  H110  1  0.27611897  0.14065094  0.82336857  1
  H+  H111  1  0.63857491  0.78445433  0.50690420  1
  H+  H112  1  0.87386871  0.74099236  0.67617914  1
  H+  H113  1  0.36494240  0.47416035  0.16188452  1
  H+  H114  1  0.62183716  0.99669462  -0.00892331  1
  H+  H115  1  0.61291309  0.83837894  0.65921998  1
  H+  H116  1  0.39309461  0.13109346  0.50452441  1
  H+  H117  1  0.29447218  0.16336332  0.02375793  1
  H+  H118  1  0.67250321  0.72124725  0.03209283  1
  H+  H119  1  0.13772808  0.36151485  0.33353246  1
  H+  H120  1  1.03712424  0.63814974  0.50116485  1
  H+  H121  1  0.17100518  0.42335227  0.67625807  1
  H+  H122  1  0.33067289  0.16765281  0.26051843  1
  H+  H123  1  0.36859393  0.97758908  0.34996358  1
  H+  H124  1  0.71766542  0.86735617  0.98141669  1
  H+  H125  1  0.01664298  0.13234811  0.34477083  1
  H+  H126  1  0.61649142  0.90403572  -0.00734553  1
  H+  H127  1  0.14777774  0.85720416  0.33513242  1
  H+  H128  1  0.48594222  0.63932678  0.98685215  1
  H+  H129  1  0.39229834  0.11618541  -0.00521206  1
  H+  H130  1  0.85131377  0.13005958  0.00840995  1
  H+  H131  1  0.47511665  0.86562762  0.32686476  1
  H+  H132  1  0.63050733  0.51092327  0.98849639  1
  H+  H133  1  0.10933656  0.72447548  0.17806465  1
  H+  H134  1  0.86001785  0.38319780  0.50632975  1
  H+  H135  1  0.37562246  0.42750371  0.50318914  1
  H+  H136  1  0.87367852  0.26682789  -0.00207812  1
  H+  H137  1  0.75239299  0.62050832  0.00460670  1
  H+  H138  1  0.71447863  0.37217748  0.65744968  1
  H+  H139  1  0.73046447  0.11565192  0.50553449  1
  H+  H140  1  0.87844537  0.52054361  0.83056555  1
  H+  H141  1  0.52123677  0.63276482  0.81863616  1
  H+  H142  1  0.11630994  0.38672017  0.50860688  1
  H+  H143  1  0.38212007  0.60217524  0.82598606  1
  H+  H144  1  0.23887908  0.13104644  0.65656639  1
  H+  H145  1  0.27680751  0.89157097  -0.00355819  1
  H+  H146  1  0.84789182  0.43973586  0.34893017  1
  H+  H147  1  0.55904177  0.43357117  0.49364198  1
  H+  H148  1  0.32989019  0.70042898  0.02346497  1
  H+  H149  1  0.07227459  -0.05456406  0.98190441  1
  H+  H150  1  0.36558983  1.00698448  0.66267606  1
  H+  H151  1  1.11037297  0.22333535  0.15593943  1
  H+  H152  1  0.22858935  0.13232104  0.31452326  1
  H+  H153  1  0.12094398  0.98358914  0.67117230  1
  H+  H154  1  0.46978043  0.61177252  0.17621720  1
  H+  H155  1  0.38243764  0.10973608  0.32515539  1
  H+  H156  1  0.35125403  0.78453724  0.63934474  1
  H+  H157  1  0.11387965  0.48743758  0.81740014  1
  H+  H158  1  0.85850276  0.39239619  0.65114325  1
  H+  H159  1  0.50193408  0.91500165  0.15580601  1
  H+  H160  1  0.10598972  0.46937317  0.35422170  1
  H+  H161  1  0.94629808  0.93877787  0.30285886  1
  H+  H162  1  0.06654290  0.90683002  0.82066214  1
  H+  H163  1  0.94077285  0.59139026  0.98196601  1
  H+  H164  1  0.21250589  0.59541671  -0.01655297  1
  H+  H165  1  0.60478206  0.71153438  0.66796206  1
  H+  H166  1  0.90204453  0.52170218  0.51508852  1
  H+  H167  1  0.86064945  0.46454680  0.16020987  1
  H+  H168  1  0.22872661  0.34421726  0.51465883  1
  H+  H169  1  0.37414136  0.99358438  0.81828306  1
  H+  H170  1  0.92200402  0.55217995  0.31457351  1
  H+  H171  1  0.26948248  0.90374345  0.66693248  1
  H+  H172  1  1.02454377  0.13465196  0.50245443  1
  H+  H173  1  0.86666203  0.95996819  0.49013334  1
  H+  H174  1  0.89053248  0.34817736  0.33527108  1
  H+  H175  1  0.61990258  0.50527345  0.17355031  1
  H+  H176  1  0.36228475  0.15031354  0.66483110  1
  H+  H177  1  0.76261454  0.63334665  0.16234510  1
  H+  H178  1  0.87175452  0.62245666  0.51073994  1
  H+  H179  1  0.61381696  0.14260075  0.81938461  1
  H+  H180  1  0.16791861  0.33141626  0.23023051  1
  H+  H181  1  0.03350686  0.89902129  0.49703721  1
  H+  H182  1  0.62698897  0.78244035  0.97818606  1
  H+  H183  1  0.12978455  0.97878406  0.17517221  1
  H+  H184  1  0.15526380  0.86521011  0.18452786  1
  H+  H185  1  0.51562375  0.62683527  0.33489713  1
  H+  H186  1  0.40569186  0.56358312  0.51756366  1
  H+  H187  1  0.62352328  0.13863745  0.18131976  1
  H+  H188  1  0.49554835  0.88480090  0.18174034  1
  H+  H189  1  0.56026576  0.35264275  0.77312374  1
  H+  H190  1  0.12046726  0.59608329  0.18887100  1
  H+  H191  1  0.90150230  0.62404058  0.66317998  1
  H+  H192  1  0.88615842  0.11462140  0.17278408  1
  H+  H193  1  0.52416554  0.13713320  0.18205439  1
  H+  H194  1  0.62030719  0.38458706  0.16133765  1
  H+  H195  1  0.12297597  0.65486272  0.78682076  1
  H+  H196  1  0.37335708  0.23516769  0.17093664  1
  H+  H197  1  0.64024781  1.02850380  0.50143652  1
  H+  H198  1  0.84427175  0.45992695  1.01463811  1
  H+  H199  1  0.97380873  0.11253913  0.17186058  1
  H+  H200  1  0.09873366  0.34864711  -0.00978526  1
  H+  H201  1  0.08808551  0.86689180  0.98074609  1
  H+  H202  1  0.72236672  0.36857661  0.51254047  1
  H+  H203  1  0.65202038  0.92490743  0.14851022  1
  H+  H204  1  0.49882574  0.89345113  0.98088920  1
  H+  H205  1  0.63933412  0.15754044  0.47461329  1
  H+  H206  1  0.16048880  0.79654703  0.81155792  1
  H+  H207  1  0.77561637  0.89253157  0.66549255  1
  H+  H208  1  0.65588821  0.83459284  0.88508397  1
  H+  H209  1  0.87305221  0.61893985  0.16665194  1
  H+  H210  1  0.34962805  0.89279518  0.51397194  1
  H+  H211  1  0.72387467  0.11691914  0.82262685  1
  H+  H212  1  0.34226982  0.82499626  0.19066033  1
  H+  H213  1  0.13330219  0.73189794  0.34471661  1
  H+  H214  1  0.90219596  0.04215046  0.66738394  1
  H+  H215  1  0.11794786  0.89269335  0.50206671  1
  H+  H216  1  0.28241155  0.55215932  0.40485030  1
  H+  H217  1  0.77905647  0.13769448  0.34639867  1
  H+  H218  1  0.17858720  0.33872066  1.00245414  1
  H+  H219  1  0.60745947  0.22200835  0.31846854  1
  H+  H220  1  0.33057392  0.39294646  0.40512784  1
  H+  H221  1  0.84762345  0.73830776  0.83225398  1
  H+  H222  1  0.71349742  0.85948501  0.82539933  1
  H+  H223  1  0.56766987  0.53551247  0.21130711  1
  H+  H224  1  0.85642771  0.95892566  0.82408032  1
  H+  H225  1  0.86461817  0.15612922  0.81543907  1
  H+  H226  1  0.84161940  0.86442528  0.82031923  1
  H+  H227  1  0.33444280  0.73342403  0.19637866  1
  H+  H228  1  0.60350755  0.88247569  0.81581288  1
  H+  H229  1  0.41042255  0.54341941  0.99144374  1
  H+  H230  1  0.75162369  0.61491245  0.81495205  1
  H+  H231  1  0.91933072  0.74869313  0.30188657  1
  H+  H232  1  0.76489291  0.65546958  0.65535645  1
  H+  H233  1  0.39387809  0.89448664  0.82403076  1
  H+  H234  1  0.38978423  0.12100763  0.83484660  1
  H+  H235  1  0.81781106  0.91253274  0.05878471  1
  H+  H236  1  0.86473606  0.13066999  0.34495430  1
  H+  H237  1  0.09301571  0.11981026  -0.00082302  1
  H+  H238  1  0.72209505  0.35250071  -0.00376338  1
  H+  H239  1  0.82468274  0.66531493  0.72934575  1
  H+  H240  1  0.66030562  0.05486721  0.65872641  1
  H+  H241  1  0.28509781  0.89982507  0.81419404  1
  H+  H242  1  0.92377006  0.12062300  0.90473627  1
  H+  H243  1  0.17249525  0.09740732  0.58927992  1
  H+  H244  1  0.25148751  0.60635048  0.17037633  1
  H+  H245  1  0.36193472  0.23319181  0.31452886  1
  H+  H246  1  0.22562041  0.12129090  0.17806914  1
  H+  H247  1  0.83217815  0.67826499  0.36783434  1
  H+  H248  1  0.10457391  0.46471228  0.16272231  1
  H+  H249  1  0.40310231  0.28440048  0.99789667  1
  H+  H250  1  0.99142669  0.35984959  0.34839977  1
  H+  H251  1  0.35997274  0.23517395  0.47678016  1
  H+  H252  1  0.04998122  0.88660429  0.18261556  1
  H+  H253  1  0.65294785  0.62774615  0.65376673  1
  H+  H254  1  0.65325953  0.37037427  0.83980595  1
  H+  H255  1  0.62585601  0.28349856  0.66036064  1
  H+  H256  1  0.41194142  0.57134902  0.27199162  1
  H+  H257  1  0.61172201  0.21972886  1.00148597  1
  H+  H258  1  0.27009311  0.37771601  0.34705480  1
  H+  H259  1  0.77018949  0.35978822  0.32131326  1
  H+  H260  1  0.96795233  0.21397913  0.87832857  1
  H+  H261  1  0.08702832  0.20639339  0.00109354  1
  H+  H262  1  0.41740088  0.93163146  0.13712500  1
  H+  H263  1  0.62128368  0.89183509  0.48672527  1
  H+  H264  1  0.87133161  0.27139627  0.84253504  1
  H+  H265  1  1.05409513  0.90939455  0.33158136  1
  H+  H266  1  0.60352935  0.88098194  0.32964323  1
  H+  H267  1  0.88784290  0.35887830  0.16460735  1
  H+  H268  1  0.63739049  0.12004621  0.98272699  1
  H+  H269  1  0.82825776  0.84609437  0.34157431  1
  H+  H270  1  0.22734496  0.35997907  0.17090941  1
  H+  H271  1  0.36642199  0.89216785  0.99798755  1
  H+  H272  1  0.31560355  0.41334243  -0.00452183  1
  H+  H273  1  0.03959392  0.65225225  0.34362962  1
  H+  H274  1  0.39725469  0.40544977  1.00389551  1
  H+  H275  1  0.60457518  0.63864584  0.15839363  1
  H+  H276  1  0.87120310  0.60258004  0.33028306  1
  H+  H277  1  0.65219354  0.37362123  0.28698590  1
  H+  H278  1  0.46655930  0.82328976  0.68457489  1
  H+  H279  1  0.41671590  0.08850331  0.89478475  1
  H+  H280  1  0.98837197  0.87224101  0.66512584  1
  H+  H281  1  0.15904262  0.78685630  -0.02406884  1
  H+  H282  1  0.88858670  0.76418251  0.31019766  1
  H+  H283  1  0.47391237  0.11313186  0.33010241  1
  H+  H284  1  0.38660327  0.36375846  0.32785031  1
  H+  H285  1  0.13295956  0.11497890  0.16981267  1
  H+  H286  1  0.90188512  0.81233161  0.57284581  1
  H+  H287  1  0.28088691  0.88600092  0.34969153  1
  H+  H288  1  0.88481575  0.77424884  0.15444598  1
  H+  H289  1  0.32485894  0.41006680  0.76620515  1
  H+  H290  1  0.82278524  0.40116006  0.10335172  1
  H+  H291  1  0.67605634  0.09180071  0.23895845  1
  H+  H292  1  0.82854506  0.40483411  0.44531350  1
  H+  H293  1  0.08831127  0.91008543  0.39927393  1
  H+  H294  1  0.82614774  0.16619516  0.09695560  1
  H+  H295  1  0.65386855  0.33315962  0.56582741  1
  H+  H296  1  0.38597750  0.81412452  0.27899299  1
  H+  H297  1  0.34446074  0.42200612  0.09956471  1
  H+  H298  1  0.41023390  0.09528747  0.59425563  1
  H+  H299  1  0.16035791  0.59929211  0.88166498  1
  H+  H300  1  0.76497019  0.13504692  0.00388024  1
  H+  H301  1  0.08585877  0.66700798  0.11896820  1
  H+  H302  1  0.18550235  0.83272262  0.27642670  1
  H+  H303  1  0.37197158  0.32667819  0.57723505  1
  H+  H304  1  0.61109062  0.62645768  0.33781222  1
  H+  H305  1  0.07556223  0.15924123  0.09796149  1
  H+  H306  1  0.15863426  0.33549205  0.89761422  1
  H+  H307  1  0.48678601  0.88395643  0.82428066  1
  H+  H308  1  0.41769200  0.59069760  0.89067703  1
  H+  H309  1  0.34049667  0.93933844  0.72514099  1
  H+  H310  1  0.58149533  0.91483673  0.39036146  1
  H+  H311  1  0.33792249  0.67400348  0.45666479  1
  H+  H312  1  0.19345056  0.31104293  0.67630923  1
  H+  H313  1  0.98844620  0.62269967  0.67310543  1
  H+  H314  1  0.54290854  0.65753066  0.51388294  1
  H+  H315  1  0.39529782  0.36846288  0.16897459  1
  H+  H316  1  0.18454263  0.33696992  0.57680877  1
  H+  H317  1  0.35197147  0.18039942  0.08085528  1
  H+  H318  1  0.16942849  0.83939659  0.60601276  1
  H+  H319  1  0.57708094  0.66736933  0.09902788  1
  H+  H320  1  0.62924486  0.96079809  0.08910392  1
  H+  H321  1  0.33509234  0.17583035  0.76358429  1
  H+  H322  1  0.80956162  0.65134981  0.09631086  1
  H+  H323  1  0.11101870  0.22523768  0.50504868  1
  H+  H324  1  0.59873985  0.18218198  0.38523707  1
  H+  H325  1  0.81500680  0.62508496  0.45714066  1
  H+  H326  1  0.57879608  0.17307014  0.72795474  1
  H+  H327  1  0.90506250  0.59707847  0.23461549  1
  H+  H328  1  0.59380567  0.41056384  0.09704480  1
  H+  H329  1  0.67183962  0.09404226  0.92159150  1
  H+  H330  1  0.38368804  0.87259888  0.34070586  1
  H+  H331  1  0.58887986  0.41863830  0.39752589  1
  H+  H332  1  0.65984583  0.57530767  0.27857036  1
  H+  H333  1  0.07050386  0.41457076  0.05944144  1
  H+  H334  1  0.67209473  0.33070901  0.93219571  1
  H+  H335  1  0.58445662  0.65600136  0.72921967  1
  H+  H336  1  0.83144980  0.90082144  0.39830316  1
  H+  H337  1  0.84000375  0.71137311  0.00712735  1
  H+  H338  1  0.33435419  0.92003491  0.44754612  1
  H+  H339  1  0.85109939  0.37338763  0.01252773  1
  H+  H340  1  0.87801366  0.56417389  0.89321404  1
  H+  H341  1  0.09691242  0.67109380  0.44192191  1
  H+  H342  1  0.15252215  0.56219456  0.24448676  1
  H+  H343  1  0.54984759  0.42867172  0.70449489  1
  H+  H344  1  0.10286554  0.18062156  0.73467866  1
  H+  H345  1  0.86878203  0.22936750  0.50515720  1
  H+  H346  1  0.95936803  0.09970760  0.99488595  1
  H+  H347  1  0.18102913  0.84185701  0.91424716  1
  H+  H348  1  0.96379501  0.90002819  0.24546644  1
  H+  H349  1  0.17184647  0.58603778  0.57553123  1
  H+  H350  1  0.07765309  0.16453838  0.40476138  1
  H+  H351  1  0.56590637  0.90276626  0.75569508  1
  H+  H352  1  0.67255316  0.09789792  0.59349702  1
  H+  H353  1  0.94598479  0.83614805  0.98259986  1
  H+  H354  1  0.15459903  0.09441732  0.26095684  1
  H+  H355  1  0.97442947  0.62679409  0.17525790  1
  H+  H356  1  0.29395875  0.14253267  0.45562106  1
  H+  H357  1  0.83121740  0.91860490  0.72498643  1
  H+  H358  1  0.35444570  0.23679438  0.66125501  1
  H+  H359  1  0.06961853  0.67953940  0.02345144  1
  H+  H360  1  0.53212022  0.89026431  0.48156387  1
  H+  H361  1  0.84405228  0.41638738  0.75744289  1
  H+  H362  1  0.62270241  0.39717697  0.49095752  1
  H+  H363  1  0.41595821  0.07705785  0.24112928  1
  H+  H364  1  0.62112682  0.63299857  0.00026499  1
  H+  H365  1  0.34452937  0.92264233  0.09391995  1
  H+  H366  1  0.08188263  0.41201373  0.41666539  1
  H+  H367  1  0.84436802  0.17502610  0.44208239  1
  H+  H368  1  0.42409064  0.34642131  0.26568420  1
  H+  H369  1  0.22053139  0.61626027  0.82391084  1
  H+  H370  1  0.42996285  0.86619127  0.88839667  1
  H+  H371  1  0.11395011  0.43463811  0.72827422  1
  H+  H372  1  0.83908050  0.18630469  0.75364408  1
  H+  H373  1  0.21793593  0.58977756  0.33960821  1
  H+  H374  1  0.93342594  0.09782236  0.60848224  1
  H+  H375  1  0.93703278  0.58332016  0.57399667  1
  H+  H376  1  0.11756009  0.47630442  0.50791686  1
  H+  H377  1  0.42443043  0.33548669  0.93361733  1
  H+  H378  1  0.32563645  0.64288963  0.74715178  1
  H+  H379  1  0.11078502  0.37911599  0.15674480  1
  H+  H380  1  0.87328990  0.80089616  0.93130369  1
  H+  H381  1  0.10357973  0.93139667  0.73529265  1
  H+  H382  1  0.37103600  0.14274250  0.17233629  1
  H+  H383  1  0.89888439  0.32565074  0.93693891  1
  O2-  O384  1  0.07843508  0.16163325  0.14349588  1
  O2-  O385  1  0.08265336  0.16645584  0.48567386  1
  O2-  O386  1  0.09404738  0.17532898  0.81095359  1
  O2-  O387  1  0.07755433  0.40702475  0.14250333  1
  O2-  O388  1  0.08479900  0.41521077  0.49325930  1
  O2-  O389  1  0.09441850  0.43027109  0.79927297  1
  O2-  O390  1  0.07049295  0.66372382  0.16267890  1
  O2-  O391  1  0.09847494  0.67263701  0.48705045  1
  O2-  O392  1  0.10420299  0.69427754  0.76926862  1
  O2-  O393  1  0.10808142  0.91728132  0.16600691  1
  O2-  O394  1  0.09415153  0.92932989  0.48576241  1
  O2-  O395  1  0.12229930  0.93907923  0.80115730  1
  O2-  O396  1  0.33769888  0.17170734  0.16159523  1
  O2-  O397  1  0.35551731  0.18228967  0.45741787  1
  O2-  O398  1  0.33756030  0.17367328  0.80867556  1
  O2-  O399  1  0.33735092  0.41476556  0.14431457  1
  O2-  O400  1  0.33119482  0.37089100  0.48898527  1
  O2-  O401  1  0.32969454  0.41341888  0.81127506  1
  O2-  O402  1  0.31294140  0.63960141  0.15725837  1
  O2-  O403  1  0.33657731  0.68014563  0.50124938  1
  O2-  O404  1  0.30587105  0.60864269  0.78620728  1
  O2-  O405  1  0.36051374  0.92684033  0.13834620  1
  O2-  O406  1  0.32577975  0.92428388  0.49177670  1
  O2-  O407  1  0.34857525  0.93412429  0.79962879  1
  O2-  O408  1  0.58807090  0.17068260  0.17092645  1
  O2-  O409  1  0.63905710  0.20244606  0.44911163  1
  O2-  O410  1  0.58572492  0.17634217  0.80674544  1
  O2-  O411  1  0.58972219  0.41184463  0.14299456  1
  O2-  O412  1  0.60618005  0.43650141  0.46999549  1
  O2-  O413  1  0.56126362  0.39991319  0.79572677  1
  O2-  O414  1  0.57435182  0.66864249  0.14409410  1
  O2-  O415  1  0.60135752  0.68469672  0.49718249  1
  O2-  O416  1  0.58221555  0.66066953  0.80395595  1
  O2-  O417  1  0.66098180  0.97768162  0.12813922  1
  O2-  O418  1  0.59132543  0.92196506  0.46735296  1
  O2-  O419  1  0.57512564  0.91512478  0.80030424  1
  O2-  O420  1  0.83465973  0.17399606  0.14306661  1
  O2-  O421  1  0.84025807  0.17052251  0.48727609  1
  O2-  O422  1  0.82601489  0.17501012  0.79787750  1
  O2-  O423  1  0.82953621  0.40328191  0.15001455  1
  O2-  O424  1  0.83361564  0.41594397  0.48912479  1
  O2-  O425  1  0.84688192  0.42018127  0.80267238  1
  O2-  O426  1  0.81889592  0.65660208  0.14272355  1
  O2-  O427  1  0.83175660  0.64348666  0.49940473  1
  O2-  O428  1  0.81279148  0.64869239  0.80100322  1
  O2-  O429  1  0.82566964  0.91907558  0.13891852  1
  O2-  O430  1  0.83212646  0.90158006  0.47332408  1
  O2-  O431  1  0.82093593  0.90346257  0.80439709  1
  O2-  O432  1  0.16449705  0.08941160  0.19146099  1
  O2-  O433  1  0.17072056  0.09121205  0.53061435  1
  O2-  O434  1  0.17551158  0.08588692  0.84926724  1
  O2-  O435  1  0.16647489  0.33009674  0.18501855  1
  O2-  O436  1  0.17138521  0.32680429  0.53281203  1
  O2-  O437  1  0.16457084  0.33752974  0.85277420  1
  O2-  O438  1  0.14846751  0.56229099  0.19893458  1
  O2-  O439  1  0.17345631  0.58358281  0.52960111  1
  O2-  O440  1  0.16176642  0.60128843  0.83672607  1
  O2-  O441  1  0.17846488  0.82607865  0.19709787  1
  O2-  O442  1  0.16161243  0.83693049  0.52881723  1
  O2-  O443  1  0.19129054  0.85154487  0.83414853  1
  O2-  O444  1  0.42324797  0.08674786  0.19548856  1
  O2-  O445  1  0.41193188  0.09618705  0.52879259  1
  O2-  O446  1  0.41970482  0.08986905  0.84925766  1
  O2-  O447  1  0.42535343  0.33910819  0.18683311  1
  O2-  O448  1  0.36115986  0.31495622  0.51692894  1
  O2-  O449  1  0.41273773  0.33272448  0.85630198  1
  O2-  O450  1  0.41204610  0.57525005  0.19482869  1
  O2-  O451  1  0.42921797  0.61421636  0.54360511  1
  O2-  O452  1  0.41961379  0.58273902  0.84624895  1
  O2-  O453  1  0.33410575  0.78060464  0.22013940  1
  O2-  O454  1  0.37571131  0.82578458  0.55955431  1
  O2-  O455  1  0.42572800  0.86268114  0.84233389  1
  O2-  O456  1  0.67597066  0.10241548  0.19387970  1
  O2-  O457  1  0.66941273  0.08717667  0.51900514  1
  O2-  O458  1  0.66452094  0.08697664  0.84046290  1
  O2-  O459  1  0.67227604  0.33424424  0.20738752  1
  O2-  O460  1  0.65976565  0.33576302  0.52049304  1
  O2-  O461  1  0.68011972  0.33697569  0.85228880  1
  O2-  O462  1  0.62610788  0.55751919  0.19606048  1
  O2-  O463  1  0.71391530  0.70938815  0.59086348  1
  O2-  O464  1  0.65144816  0.56671667  0.84691983  1
  O2-  O465  1  0.66547357  0.83951113  0.18820336  1
  O2-  O466  1  0.66833458  0.84808106  0.51869593  1
  O2-  O467  1  0.65273709  0.82966889  0.83965616  1
  O2-  O468  1  0.91374713  0.08236174  0.18825248  1
  O2-  O469  1  0.88402757  0.06084192  0.53289987  1
  O2-  O470  1  0.94396264  0.15418092  0.86578859  1
  O2-  O471  1  0.91775255  0.32537624  0.17542296  1
  O2-  O472  1  0.91435347  0.33336231  0.53863988  1
  O2-  O473  1  0.90416284  0.32509239  0.86616287  1
  O2-  O474  1  0.90914164  0.59522220  0.18741982  1
  O2-  O475  1  0.93720201  0.58245272  0.52858884  1
  O2-  O476  1  0.89005109  0.57596484  0.84958244  1
  O2-  O477  1  0.92129348  0.83772814  0.15529689  1
  O2-  O478  1  0.86876695  0.79537379  0.53423989  1
  O2-  O479  1  0.87353308  0.79883437  0.85072249  1
  O2-  O480  1  0.16286326  0.10042044  0.30779410  1
  O2-  O481  1  0.17534351  0.10095060  0.64130651  1
  O2-  O482  1  0.13542874  0.06092374  0.96419292  1
  O2-  O483  1  0.16720662  0.33237504  0.31588643  1
  O2-  O484  1  0.22798993  0.36785963  0.65579066  1
  O2-  O485  1  0.12693896  0.31396989  0.97750501  1
  O2-  O486  1  0.15913599  0.56665638  0.32234528  1
  O2-  O487  1  0.18040352  0.59553346  0.64991582  1
  O2-  O488  1  0.15461719  0.58027227  0.96872526  1
  O2-  O489  1  0.18519581  0.83222384  0.32183424  1
  O2-  O490  1  0.17664388  0.84559681  0.65148325  1
  O2-  O491  1  0.17858939  0.84476603  0.95979544  1
  O2-  O492  1  0.41213934  0.07684197  0.31692623  1
  O2-  O493  1  0.40889310  0.09191645  0.64277950  1
  O2-  O494  1  0.41577674  0.08398825  0.97365994  1
  O2-  O495  1  0.41988493  0.33754741  0.31072209  1
  O2-  O496  1  0.38272753  0.33118961  0.62826015  1
  O2-  O497  1  0.43208598  0.34253421  0.97904607  1
  O2-  O498  1  0.41759477  0.57248052  0.31772914  1
  O2-  O499  1  0.41892325  0.56647183  0.65590099  1
  O2-  O500  1  0.42563591  0.60171571  0.97585855  1
  O2-  O501  1  0.40972631  0.83549335  0.32248405  1
  O2-  O502  1  0.36168171  0.77181077  0.68166020  1
  O2-  O503  1  0.43769470  0.85994957  0.96176308  1
  O2-  O504  1  0.67553254  0.08836740  0.31577033  1
  O2-  O505  1  0.68048044  0.11007461  0.63880975  1
  O2-  O506  1  0.67143681  0.09205169  0.96687768  1
  O2-  O507  1  0.67989784  0.33973961  0.27493100  1
  O2-  O508  1  0.65339882  0.34337640  0.64445586  1
  O2-  O509  1  0.66395445  0.32765712  0.97720292  1
  O2-  O510  1  0.65277605  0.57410824  0.32324073  1
  O2-  O511  1  0.70221779  0.63461381  0.62683729  1
  O2-  O512  1  0.65571256  0.57097301  0.97164431  1
  O2-  O513  1  0.65476199  0.82191948  0.30851484  1
  O2-  O514  1  0.65416653  0.82054448  0.64570857  1
  O2-  O515  1  0.65835576  0.84194207  0.96312790  1
  O2-  O516  1  0.91376759  0.07738134  0.31293913  1
  O2-  O517  1  0.93611207  0.10283221  0.65337814  1
  O2-  O518  1  0.90106616  0.07783915  0.97660594  1
  O2-  O519  1  0.92920425  0.32300148  0.32804003  1
  O2-  O520  1  0.91578692  0.34634422  0.60535515  1
  O2-  O521  1  0.90098074  0.32771704  0.98373703  1
  O2-  O522  1  0.91735751  0.60198446  0.30319139  1
  O2-  O523  1  0.93184204  0.59291524  0.65243109  1
  O2-  O524  1  0.87840506  0.55836515  0.98000423  1
  O2-  O525  1  0.99282642  0.94064644  0.27867324  1
  O2-  O526  1  0.92684256  0.83847550  0.65107293  1
  O2-  O527  1  0.88133437  0.80730750  0.97624427  1
  O2-  O528  1  0.06374820  0.14815773  0.01917099  1
  O2-  O529  1  0.07764937  0.16485984  0.35921668  1
  O2-  O530  1  0.10749853  0.18578719  0.68892768  1
  O2-  O531  1  0.06570916  0.41287162  0.01438992  1
  O2-  O532  1  0.07782838  0.40874804  0.37061559  1
  O2-  O533  1  0.12969363  0.44322760  0.68349609  1
  O2-  O534  1  0.12627564  0.69088293  0.03597883  1
  O2-  O535  1  0.09740901  0.67004290  0.35866596  1
  O2-  O536  1  0.10130024  0.68035550  0.70265625  1
  O2-  O537  1  0.04766087  0.88514982  -0.00461301  1
  O2-  O538  1  0.08329893  0.88728588  0.35780223  1
  O2-  O539  1  0.09262211  0.92480026  0.68762158  1
  O2-  O540  1  0.35391560  0.18405201  0.03539507  1
  O2-  O541  1  0.32606554  0.16933907  0.30499927  1
  O2-  O542  1  0.32915447  0.17784487  0.68015991  1
  O2-  O543  1  0.36967590  0.44005506  0.01778634  1
  O2-  O544  1  0.33121855  0.40680826  0.36134488  1
  O2-  O545  1  0.31656862  0.40374028  0.68175302  1
  O2-  O546  1  0.31167088  0.63992015  0.02909311  1
  O2-  O547  1  0.30801299  0.60653977  0.38268430  1
  O2-  O548  1  0.34247210  0.68196478  0.67666561  1
  O2-  O549  1  0.33465704  0.91840601  0.01658422  1
  O2-  O550  1  0.34233186  0.91708980  0.36547216  1
  O2-  O551  1  0.33411752  0.94122636  0.67938322  1
  O2-  O552  1  0.58582733  0.15854489  0.01370125  1
  O2-  O553  1  0.58113222  0.16692959  0.34030067  1
  O2-  O554  1  0.57497965  0.17400299  0.68249740  1
  O2-  O555  1  0.59421009  0.41557698  0.02154059  1
  O2-  O556  1  0.58499051  0.41884511  0.35121023  1
  O2-  O557  1  0.54783903  0.41936751  0.66046840  1
  O2-  O558  1  0.61361183  0.67985412  0.02020375  1
  O2-  O559  1  0.57968977  0.66124370  0.34638368  1
  O2-  O560  1  0.58012668  0.65101685  0.68332171  1
  O2-  O561  1  0.58895159  0.93616183  0.00894525  1
  O2-  O562  1  0.57580594  0.91364754  0.34484175  1
  O2-  O563  1  0.53110576  0.86482354  0.68363956  1
  O2-  O564  1  0.82292077  0.16180317  0.02435271  1
  O2-  O565  1  0.83988900  0.16553687  0.36158403  1
  O2-  O566  1  0.85273177  0.19665536  0.67178264  1
  O2-  O567  1  0.81924205  0.40090380  0.03192557  1
  O2-  O568  1  0.81962431  0.37745635  0.34949541  1
  O2-  O569  1  0.83140069  0.41849785  0.67573316  1
  O2-  O570  1  0.81066026  0.65106038  0.02464737  1
  O2-  O571  1  0.80571153  0.61595751  0.37130195  1
  O2-  O572  1  0.83432472  0.67681124  0.68358460  1
  O2-  O573  1  0.81495278  0.90830155  0.01334698  1
  O2-  O574  1  0.82762216  0.89858752  0.35214812  1
  O2-  O575  1  0.83589928  0.92446391  0.67994013  1
