# generated using pymatgen
data_H2O
_symmetry_space_group_name_H-M   'P 1'
_cell_length_a   17.97118141
_cell_length_b   17.98781015
_cell_length_c   21.99839111
_cell_angle_alpha   89.98432399
_cell_angle_beta   90.02055185
_cell_angle_gamma   119.96470213
_symmetry_Int_Tables_number   1
_chemical_formula_structural   H2O
_chemical_formula_sum   'H384 O192'
_cell_volume   6160.71056314
_cell_formula_units_Z   192
loop_
 _symmetry_equiv_pos_site_id
 _symmetry_equiv_pos_as_xyz
  1  'x, y, z'
loop_
 _atom_type_symbol
 _atom_type_oxidation_number
  H+  1.0
  O2-  -2.0
loop_
 _atom_site_type_symbol
 _atom_site_label
 _atom_site_symmetry_multiplicity
 _atom_site_fract_x
 _atom_site_fract_y
 _atom_site_fract_z
 _atom_site_occupancy
  H+  H0  1  0.64303520  0.76980773  0.84856825  1
  H+  H1  1  0.38845503  0.63030930  0.99503839  1
  H+  H2  1  0.90673141  0.09937890  0.59581433  1
  H+  H3  1  0.61044961  0.97434492  0.16802477  1
  H+  H4  1  0.72599273  0.11834535  0.84286856  1
  H+  H5  1  0.23379448  0.61828506  0.96366785  1
  H+  H6  1  0.67183249  0.08559589  0.61475445  1
  H+  H7  1  1.01142766  0.12750753  0.67154833  1
  H+  H8  1  0.10679803  -0.03932132  0.15773317  1
  H+  H9  1  0.38770316  0.10929653  0.16473692  1
  H+  H10  1  0.91830218  0.58081814  0.61677376  1
  H+  H11  1  0.13913783  0.65364042  0.18649883  1
  H+  H12  1  0.88165027  0.36335321  0.84475604  1
  H+  H13  1  0.34831290  0.39133034  0.56178057  1
  H+  H14  1  0.13847283  0.11100871  0.49871645  1
  H+  H15  1  0.12987511  0.51738022  0.82680515  1
  H+  H16  1  0.14197193  0.32125011  0.23787536  1
  H+  H17  1  0.27184901  0.13250026  0.67331003  1
  H+  H18  1  0.06676611  0.13686162  0.10244151  1
  H+  H19  1  0.36640398  0.90243446  0.34594872  1
  H+  H20  1  0.39755492  0.63488498  0.66288360  1
  H+  H21  1  0.42710672  0.08949363  0.91752437  1
  H+  H22  1  0.14614610  0.53000321  0.51057118  1
  H+  H23  1  0.94683438  0.25841625  0.22304158  1
  H+  H24  1  0.94827155  0.28458132  0.19550107  1
  H+  H25  1  0.61697396  0.51790502  0.31660212  1
  H+  H26  1  0.14237431  0.86478062  0.17361491  1
  H+  H27  1  0.52861936  0.64777824  0.16620757  1
  H+  H28  1  0.11226823  0.22745514  0.48762715  1
  H+  H29  1  0.47696292  0.10710009  0.66688596  1
  H+  H30  1  0.52255479  0.64637962  1.01329704  1
  H+  H31  1  0.37111661  0.73727912  0.67491717  1
  H+  H32  1  0.77193825  0.14477644  0.67878503  1
  H+  H33  1  0.60489856  0.38304785  0.82332157  1
  H+  H34  1  1.03650226  0.39995557  0.34427522  1
  H+  H35  1  0.07809597  0.66288381  0.43644380  1
  H+  H36  1  0.08350376  0.91747107  0.42888037  1
  H+  H37  1  0.51606082  0.39082200  0.15170136  1
  H+  H38  1  0.63444260  0.77284947  0.67432164  1
  H+  H39  1  0.36777873  0.88998007  0.15959105  1
  H+  H40  1  0.47468515  0.86948076  0.91413873  1
  H+  H41  1  0.98344702  0.37916583  0.51311576  1
  H+  H42  1  0.38947254  0.60461445  0.16856107  1
  H+  H43  1  0.63453618  0.14744700  0.51108631  1
  H+  H44  1  0.23336071  0.32821015  0.14662327  1
  H+  H45  1  0.73293014  0.84757669  0.00058344  1
  H+  H46  1  0.61742198  0.51511738  0.16920798  1
  H+  H47  1  0.96736812  0.85453184  0.33012998  1
  H+  H48  1  0.42553361  0.88684204  -0.02494594  1
  H+  H49  1  0.61325973  0.13842304  0.83274189  1
  H+  H50  1  0.86162551  -0.01653535  1.01742879  1
  H+  H51  1  0.63731426  0.86198037  0.18727033  1
  H+  H52  1  0.36814061  0.73778910  0.35274350  1
  H+  H53  1  0.96166595  0.08394488  0.17538487  1
  H+  H54  1  0.11635335  0.86771419  0.00405394  1
  H+  H55  1  0.89730259  0.27507394  0.99727603  1
  H+  H56  1  0.02177286  0.14439436  0.82392270  1
  H+  H57  1  0.73259904  0.87164102  0.34244794  1
  H+  H58  1  0.35975937  0.62283563  0.50074483  1
  H+  H59  1  0.15724174  0.53826729  0.17887743  1
  H+  H60  1  0.61586758  0.63838486  0.33909568  1
  H+  H61  1  0.63623932  0.36517875  0.99332101  1
  H+  H62  1  0.38575878  0.53954661  1.00243323  1
  H+  H63  1  0.62365726  0.73112542  0.35039373  1
  H+  H64  1  0.14820012  0.62141509  0.50581418  1
  H+  H65  1  0.84214919  0.71180232  0.82846631  1
  H+  H66  1  0.95923824  0.48619580  0.23165061  1
  H+  H67  1  0.75252704  0.12408762  0.52460961  1
  H+  H68  1  0.62814596  0.28509665  0.32482301  1
  H+  H69  1  0.85562436  0.41900007  0.16483687  1
  H+  H70  1  0.61922223  0.90687333  0.34982218  1
  H+  H71  1  0.07524747  0.16367381  0.72944785  1
  H+  H72  1  0.38895113  1.01935087  0.16574380  1
  H+  H73  1  0.15009029  0.12395448  0.32031739  1
  H+  H74  1  0.50487258  0.38331350  0.67426664  1
  H+  H75  1  0.85941130  0.23693122  0.67263550  1
  H+  H76  1  0.96423730  0.92859908  0.59709832  1
  H+  H77  1  0.52096267  0.38620328  0.00720507  1
  H+  H78  1  0.37267719  0.35285444  0.17116964  1
  H+  H79  1  0.61876538  0.73410777  0.17096132  1
  H+  H80  1  0.54102622  0.89705992  0.00476488  1
  H+  H81  1  0.62056444  0.35636812  0.16316993  1
  H+  H82  1  0.74340164  0.60221059  0.67844963  1
  H+  H83  1  0.28227696  0.41739638  0.17487994  1
  H+  H84  1  0.57133556  0.38402645  0.40500967  1
  H+  H85  1  0.89296700  0.37452119  0.50805217  1
  H+  H86  1  0.52979312  0.64403747  0.67820570  1
  H+  H87  1  1.02555360  0.62117929  0.23170021  1
  H+  H88  1  0.27925678  0.43194880  0.68411585  1
  H+  H89  1  0.98220535  0.61044087  0.51597423  1
  H+  H90  1  0.61260055  0.13878938  0.68043828  1
  H+  H91  1  0.47909000  0.87416162  0.33626571  1
  H+  H92  1  0.41042989  0.53333763  0.19203839  1
  H+  H93  1  0.62976487  0.81422371  0.43416969  1
  H+  H94  1  0.63716530  0.02757485  0.67607133  1
  H+  H95  1  0.85819158  0.92236591  0.52226701  1
  H+  H96  1  0.35680460  0.96555017  0.66539926  1
  H+  H97  1  0.60862058  0.69666953  0.49504156  1
  H+  H98  1  0.11443659  0.89449884  0.33615243  1
  H+  H99  1  0.58053391  0.37678348  0.30441967  1
  H+  H100  1  1.02088799  0.62587512  0.70335019  1
  H+  H101  1  0.85403677  0.69510682  0.49481236  1
  H+  H102  1  0.13441220  0.87135669  0.63504566  1
  H+  H103  1  0.24830262  0.61700423  0.33836239  1
  H+  H104  1  0.99106943  0.43668051  0.18781916  1
  H+  H105  1  0.37152144  0.97508556  0.00118107  1
  H+  H106  1  0.27663178  0.11854665  0.48638538  1
  H+  H107  1  0.12005621  0.72566486  0.49253372  1
  H+  H108  1  0.80721324  0.63659929  0.74531952  1
  H+  H109  1  0.90167579  0.29106621  0.33325661  1
  H+  H110  1  0.08690888  0.25057685  0.65199365  1
  H+  H111  1  -0.00332078  0.08199198  0.01317831  1
  H+  H112  1  0.75581231  0.38683091  0.15311462  1
  H+  H113  1  0.11026517  0.98035270  0.33583722  1
  H+  H114  1  0.43451960  0.29857879  0.31066619  1
  H+  H115  1  0.11215514  0.71528512  1.00151620  1
  H+  H116  1  0.72231306  0.85306089  0.18996176  1
  H+  H117  1  0.47602786  0.62202410  0.84405329  1
  H+  H118  1  0.40626977  0.87242305  0.51174636  1
  H+  H119  1  0.28035471  0.88128430  0.49668776  1
  H+  H120  1  0.35829199  0.22120252  0.15820240  1
  H+  H121  1  0.72460359  0.36285202  -0.00950898  1
  H+  H122  1  0.35397816  0.63103102  0.83089284  1
  H+  H123  1  0.77632314  0.13534048  0.00995464  1
  H+  H124  1  0.63272358  0.58655264  0.51613150  1
  H+  H125  1  0.50063603  0.12178534  0.16602429  1
  H+  H126  1  0.76151855  0.38432424  0.67816982  1
  H+  H127  1  0.13169499  0.09499058  0.16902353  1
  H+  H128  1  0.85397965  0.94595283  0.17150251  1
  H+  H129  1  0.87948224  0.51472896  0.67250542  1
  H+  H130  1  0.33730646  0.40329361  0.76503146  1
  H+  H131  1  0.42683398  0.31888154  0.53710622  1
  H+  H132  1  0.85091020  0.85463495  0.17275163  1
  H+  H133  1  0.63088522  0.60959264  -0.00473615  1
  H+  H134  1  0.11913071  0.82666847  0.84190584  1
  H+  H135  1  0.63178048  0.27455385  0.84059416  1
  H+  H136  1  0.85006103  0.38242144  0.67530584  1
  H+  H137  1  1.07940598  0.89718224  0.10065442  1
  H+  H138  1  0.76801936  0.89947008  0.67736039  1
  H+  H139  1  0.62517481  0.92131057  0.49000029  1
  H+  H140  1  0.64611841  0.02923292  1.00032426  1
  H+  H141  1  0.53565742  0.91791853  0.50170462  1
  H+  H142  1  0.14595763  0.27975638  0.32710887  1
  H+  H143  1  0.24971436  0.87059454  0.81444622  1
  H+  H144  1  0.48315806  0.86600231  0.17833998  1
  H+  H145  1  0.71342480  0.60262014  0.32363335  1
  H+  H146  1  0.86391332  0.87533680  0.01778444  1
  H+  H147  1  0.86020136  0.38174467  0.00672968  1
  H+  H148  1  0.32314708  0.28920808  0.62767836  1
  H+  H149  1  0.60564633  0.13163800  0.16901885  1
  H+  H150  1  0.25048039  0.62070075  0.17820386  1
  H+  H151  1  0.84475826  0.60628561  0.68277194  1
  H+  H152  1  0.90676746  0.81867748  0.27256899  1
  H+  H153  1  0.61438263  0.13979784  1.00222063  1
  H+  H154  1  0.85423733  0.19382596  0.16393663  1
  H+  H155  1  0.62272240  0.51216200  0.66502117  1
  H+  H156  1  0.56744799  0.26038527  0.40705075  1
  H+  H157  1  0.63896058  0.35580459  0.50053395  1
  H+  H158  1  0.88095084  0.12739286  0.65822486  1
  H+  H159  1  0.39556113  0.11713644  0.99278250  1
  H+  H160  1  0.92261437  0.81071447  0.71744024  1
  H+  H161  1  0.12304837  0.95875614  0.00722098  1
  H+  H162  1  0.21833810  0.86311274  0.64657956  1
  H+  H163  1  0.07813770  0.17122314  0.00373549  1
  H+  H164  1  0.97443190  0.60962511  0.99460981  1
  H+  H165  1  0.23524609  0.36917896  0.31569346  1
  H+  H166  1  0.14341647  0.39782229  0.99017113  1
  H+  H167  1  0.28985594  0.57440608  0.09714945  1
  H+  H168  1  0.87380741  0.90465896  0.62492203  1
  H+  H169  1  0.47350523  0.60054307  0.50705106  1
  H+  H170  1  0.60931226  0.47662174  1.00526707  1
  H+  H171  1  0.22921448  0.10260842  0.82594579  1
  H+  H172  1  0.17373998  1.09575775  0.59389019  1
  H+  H173  1  0.85357041  0.99210233  0.67241367  1
  H+  H174  1  0.88524288  0.02485026  0.95320124  1
  H+  H175  1  0.28253876  0.64587654  0.67573094  1
  H+  H176  1  0.11602615  0.49418529  -0.00270527  1
  H+  H177  1  0.10926397  0.48167851  0.67491604  1
  H+  H178  1  0.13913432  0.31918742  0.56114930  1
  H+  H179  1  0.58117098  0.64097600  0.43686169  1
  H+  H180  1  0.73032496  0.86597775  0.84836624  1
  H+  H181  1  0.36505788  0.38235744  0.65432738  1
  H+  H182  1  0.38318381  0.36346790  0.99684101  1
  H+  H183  1  0.09268991  0.17216426  0.39353577  1
  H+  H184  1  0.72199995  0.58830778  0.51665744  1
  H+  H185  1  0.76655261  0.62139931  1.01925895  1
  H+  H186  1  0.87028693  0.04750006  0.49752237  1
  H+  H187  1  0.47868024  0.87073619  0.67301021  1
  H+  H188  1  0.10946137  0.62815842  0.99089838  1
  H+  H189  1  0.87368615  0.52289808  0.84595805  1
  H+  H190  1  0.13619385  0.27937173  0.83934711  1
  H+  H191  1  0.85675978  0.62477312  0.01848353  1
  H+  H192  1  0.27823097  0.13063396  1.00378927  1
  H+  H193  1  0.10881272  0.13972364  0.82359938  1
  H+  H194  1  0.51059734  0.16931508  0.37726159  1
  H+  H195  1  0.05541884  0.28175221  0.20179506  1
  H+  H196  1  0.48787104  0.62982404  0.33812675  1
  H+  H197  1  0.27024331  0.12837661  0.15912799  1
  H+  H198  1  0.48568989  0.10872201  0.51757889  1
  H+  H199  1  0.61339820  0.63807845  0.83383917  1
  H+  H200  1  0.65106443  0.13298508  0.33480160  1
  H+  H201  1  0.03143476  0.87519365  0.49051207  1
  H+  H202  1  0.89472320  0.02746057  0.33503152  1
  H+  H203  1  0.13584727  0.78803057  0.33057646  1
  H+  H204  1  0.86434148  0.16002975  0.44778162  1
  H+  H205  1  0.39145116  0.11126907  0.84733993  1
  H+  H206  1  0.35873276  0.37693863  0.49500290  1
  H+  H207  1  0.37725670  0.15120540  0.32332692  1
  H+  H208  1  0.12521269  0.74402638  0.82530537  1
  H+  H209  1  0.31278143  0.90420350  0.72150455  1
  H+  H210  1  0.85939008  0.23373307  0.82821942  1
  H+  H211  1  0.37803656  1.03837561  0.36705790  1
  H+  H212  1  0.12198312  0.39602166  0.49659209  1
  H+  H213  1  0.37518429  0.48636172  0.32755637  1
  H+  H214  1  0.89437184  0.52105937  0.51510845  1
  H+  H215  1  0.12524956  0.73450256  0.18474962  1
  H+  H216  1  0.08997342  0.44574788  0.09918115  1
  H+  H217  1  0.83921178  0.53633025  0.15554117  1
  H+  H218  1  0.33466449  0.66560729  0.44204958  1
  H+  H219  1  0.85826839  0.48027100  0.33569908  1
  H+  H220  1  0.22979661  0.87372809  0.33482687  1
  H+  H221  1  0.49180170  0.12199269  0.99159432  1
  H+  H222  1  0.64304275  0.04093248  0.33498144  1
  H+  H223  1  0.36823652  0.17171426  0.25465340  1
  H+  H224  1  0.87064976  0.08018833  0.17478172  1
  H+  H225  1  0.10734035  0.61913648  0.79687381  1
  H+  H226  1  0.02785348  0.89858310  0.67235863  1
  H+  H227  1  0.60748059  0.22572918  0.67743994  1
  H+  H228  1  0.10799653  0.38507515  0.82269039  1
  H+  H229  1  0.62258108  0.35895695  0.66337866  1
  H+  H230  1  0.35080875  0.92728687  0.81765937  1
  H+  H231  1  0.38542682  0.40394739  0.32025491  1
  H+  H232  1  0.15785302  0.07066300  0.77669759  1
  H+  H233  1  0.61236900  0.22845546  -0.00280411  1
  H+  H234  1  0.62348743  0.61485775  0.17288642  1
  H+  H235  1  0.86107287  0.39491120  0.34229967  1
  H+  H236  1  0.76790991  0.90232922  0.49727945  1
  H+  H237  1  0.26822973  0.36310766  0.81774959  1
  H+  H238  1  0.22296036  0.35694639  0.51790516  1
  H+  H239  1  0.36658424  0.12102675  0.49936229  1
  H+  H240  1  0.96455118  0.37245015  0.66278255  1
  H+  H241  1  0.48704378  0.11713315  0.84665566  1
  H+  H242  1  0.12970429  0.08550040  -0.00796737  1
  H+  H243  1  0.84583698  0.62294795  0.83477249  1
  H+  H244  1  0.09624066  0.43110281  0.43881771  1
  H+  H245  1  0.23546126  0.85452957  -0.01488569  1
  H+  H246  1  0.38383945  0.51526792  0.51966818  1
  H+  H247  1  0.27805041  0.40760718  0.00303340  1
  H+  H248  1  0.36967792  0.97131791  0.50133156  1
  H+  H249  1  0.60863066  0.89030736  0.69634421  1
  H+  H250  1  0.92735772  0.12378080  0.89112568  1
  H+  H251  1  0.88723583  0.79812127  0.69452391  1
  H+  H252  1  0.37696164  0.33869491  0.83742294  1
  H+  H253  1  0.88456897  0.52136262  -0.00466330  1
  H+  H254  1  0.37489526  0.50999100  0.67490994  1
  H+  H255  1  0.38206409  0.24995099  0.48501381  1
  H+  H256  1  0.64674829  0.27595310  0.51886110  1
  H+  H257  1  0.22247265  0.60786571  0.82601244  1
  H+  H258  1  0.98744553  0.87806711  0.99366190  1
  H+  H259  1  0.87837051  0.86042100  0.84021886  1
  H+  H260  1  0.77541349  0.39164614  0.49708750  1
  H+  H261  1  0.86357418  0.88384905  0.34629345  1
  H+  H262  1  0.51253716  0.33905105  0.46138920  1
  H+  H263  1  0.08709322  0.38308020  0.66733149  1
  H+  H264  1  0.38535077  0.10183448  0.66527116  1
  H+  H265  1  0.14591578  0.86148196  0.49408487  1
  H+  H266  1  0.71699677  0.37046570  0.31493679  1
  H+  H267  1  0.09245370  0.19977474  0.16063591  1
  H+  H268  1  0.37115157  0.10850011  0.40931497  1
  H+  H269  1  0.26041809  0.62538707  0.50343461  1
  H+  H270  1  0.71555141  0.10577173  0.17621057  1
  H+  H271  1  0.83962713  0.70850141  0.34364704  1
  H+  H272  1  0.87737018  0.14737622  0.34371644  1
  H+  H273  1  0.61599417  0.63787272  0.67781998  1
  H+  H274  1  0.39559709  0.76794473  -0.00980632  1
  H+  H275  1  0.36521291  0.21399325  0.67889938  1
  H+  H276  1  0.76776790  0.38361967  0.83153920  1
  H+  H277  1  0.14148616  0.61650273  0.67583170  1
  H+  H278  1  0.79180702  0.15208395  0.34988966  1
  H+  H279  1  0.42875844  0.34368243  0.22380563  1
  H+  H280  1  0.14432447  0.31130679  0.99083856  1
  H+  H281  1  0.15275098  0.51688164  0.33338007  1
  H+  H282  1  0.10915773  0.95409087  0.82550423  1
  H+  H283  1  0.60073768  0.22172497  0.16064832  1
  H+  H284  1  0.01784058  0.64568384  0.32378005  1
  H+  H285  1  0.96024790  0.84847959  0.84153657  1
  H+  H286  1  1.02836104  0.40229807  1.00563764  1
  H+  H287  1  0.10463131  0.40186304  0.15779567  1
  H+  H288  1  0.82569117  0.64041689  0.11070341  1
  H+  H289  1  0.65985341  0.33630359  0.60467981  1
  H+  H290  1  0.33337426  0.66740685  0.77126950  1
  H+  H291  1  0.82999310  0.92745142  0.76969803  1
  H+  H292  1  0.63608783  0.02961446  0.85196615  1
  H+  H293  1  0.32402763  0.41871054  0.06631374  1
  H+  H294  1  0.66464434  0.57131207  0.60508786  1
  H+  H295  1  0.97079484  0.36231093  0.84102138  1
  H+  H296  1  0.59150001  0.67598986  0.77483956  1
  H+  H297  1  0.42072367  0.07623957  0.57358884  1
  H+  H298  1  0.42654402  0.60017273  0.60395851  1
  H+  H299  1  0.33413893  0.16048980  0.06456810  1
  H+  H300  1  0.39311643  0.78000315  0.18155956  1
  H+  H301  1  0.88285218  0.74743956  0.18052811  1
  H+  H302  1  0.38672422  0.86375211  0.66145007  1
  H+  H303  1  0.36455210  0.21646722  0.83610403  1
  H+  H304  1  0.92273406  0.85413783  0.93711503  1
  H+  H305  1  0.67644416  0.82638507  0.92661891  1
  H+  H306  1  0.44233170  0.85189461  0.57185914  1
  H+  H307  1  0.10211341  0.98533078  0.64281611  1
  H+  H308  1  0.33527821  0.91918707  0.40918166  1
  H+  H309  1  0.41924715  0.59302400  0.90269587  1
  H+  H310  1  0.16648388  0.07222296  0.22816731  1
  H+  H311  1  0.19469093  0.58550307  0.27096742  1
  H+  H312  1  0.57982742  0.16484699  0.77241356  1
  H+  H313  1  0.83118690  0.17718121  0.76620614  1
  H+  H314  1  0.81684644  0.87952173  0.08249148  1
  H+  H315  1  0.16874811  0.83105525  0.55645099  1
  H+  H316  1  0.34352190  0.91350828  0.05814537  1
  H+  H317  1  0.64824181  0.83452657  0.61872198  1
  H+  H318  1  0.65065667  0.57687810  0.23600324  1
  H+  H319  1  0.56392292  0.78874920  0.48677144  1
  H+  H320  1  0.66598572  0.83788066  0.28704162  1
  H+  H321  1  0.18158725  0.85076729  0.23527261  1
  H+  H322  1  0.56351353  0.40839234  0.73469406  1
  H+  H323  1  0.42774008  0.60842727  0.27964164  1
  H+  H324  1  0.58718246  0.67615326  0.07074749  1
  H+  H325  1  0.59826977  0.88255571  0.85269810  1
  H+  H326  1  0.58182250  0.42437937  0.09517697  1
  H+  H327  1  0.62794182  0.89509833  0.01352618  1
  H+  H328  1  0.34866660  0.67101738  0.08455636  1
  H+  H329  1  0.17024423  0.81428981  0.92874097  1
  H+  H330  1  0.38290224  0.27352230  0.99852966  1
  H+  H331  1  0.16601180  0.06573498  0.93243017  1
  H+  H332  1  0.91909618  0.33210757  0.93680543  1
  H+  H333  1  0.41909761  0.83886259  0.27791245  1
  H+  H334  1  0.91112566  0.34238423  0.60013799  1
  H+  H335  1  0.30503449  0.72964193  0.02095229  1
  H+  H336  1  0.82517962  0.41354974  0.06270683  1
  H+  H337  1  0.02092860  0.14417423  0.48326268  1
  H+  H338  1  0.85343026  0.60916585  0.49588030  1
  H+  H339  1  0.37674822  0.65207569  0.35235370  1
  H+  H340  1  0.62079580  0.51499700  0.84069115  1
  H+  H341  1  0.85954359  0.98625761  0.82864234  1
  H+  H342  1  0.57595653  0.92096708  0.75337906  1
  H+  H343  1  0.27950572  0.89125119  0.15770841  1
  H+  H344  1  0.65674877  0.57679224  0.93557991  1
  H+  H345  1  0.34023093  0.15832684  0.77547767  1
  H+  H346  1  0.12318324  0.39205370  0.34124350  1
  H+  H347  1  0.67450250  0.08935991  0.94047070  1
  H+  H348  1  0.59595446  0.17691003  0.45489417  1
  H+  H349  1  0.16477194  0.58157082  0.90963017  1
  H+  H350  1  0.84179726  0.92129020  0.40639834  1
  H+  H351  1  0.07123382  0.41201146  0.76497364  1
  H+  H352  1  0.66085077  0.33702102  0.89812864  1
  H+  H353  1  0.63522659  0.76334761  -0.00386954  1
  H+  H354  1  0.13624905  0.02103764  0.50237449  1
  H+  H355  1  0.96879780  0.83967500  0.17593407  1
  H+  H356  1  0.03389373  0.14273729  0.33472396  1
  H+  H357  1  0.80775402  0.64099334  0.39810988  1
  H+  H358  1  0.41186042  0.32400903  0.90217678  1
  H+  H359  1  0.65209119  0.32779887  0.22219510  1
  H+  H360  1  0.71216223  0.60143843  0.84275963  1
  H+  H361  1  0.88327437  0.13008402  0.83144591  1
  H+  H362  1  0.82774782  0.41318608  0.77312327  1
  H+  H363  1  0.13826585  0.12085366  0.65386459  1
  H+  H364  1  0.23904731  0.12523041  0.30886666  1
  H+  H365  1  0.66373078  0.08857719  0.23861576  1
  H+  H366  1  0.85811342  0.12254518  0.01334393  1
  H+  H367  1  0.16904329  0.59522892  0.61122495  1
  H+  H368  1  0.17201540  0.34988091  0.89317636  1
  H+  H369  1  0.92821384  0.58979092  0.24126725  1
  H+  H370  1  0.82273709  0.14501155  0.10119293  1
  H+  H371  1  0.07464617  0.88139272  0.77624834  1
  H+  H372  1  0.00402815  0.70305845  0.37092863  1
  H+  H373  1  0.91170012  0.81991022  0.55426266  1
  H+  H374  1  0.58889077  0.94418805  0.40502412  1
  H+  H375  1  0.65757515  0.04532748  0.51658209  1
  H+  H376  1  0.91589349  0.07611634  0.27210536  1
  H+  H377  1  0.51290861  0.37639477  0.82728946  1
  H+  H378  1  0.90162123  0.58301319  0.90492551  1
  H+  H379  1  0.02282391  0.26644358  0.61349450  1
  H+  H380  1  0.96006807  0.76805838  0.56199479  1
  H+  H381  1  0.83044961  0.42421192  0.43573551  1
  H+  H382  1  0.93093137  0.36581153  0.28088197  1
  H+  H383  1  0.58806140  0.91667388  0.10795538  1
  O2-  O384  1  0.06790283  0.13933775  0.14774582  1
  O2-  O385  1  0.08184185  0.16703889  0.47201337  1
  O2-  O386  1  0.08247748  0.17323358  0.80896206  1
  O2-  O387  1  0.09226016  0.44708952  0.14482842  1
  O2-  O388  1  0.09716825  0.43273275  0.48391205  1
  O2-  O389  1  0.07247875  0.41122293  0.81053150  1
  O2-  O390  1  0.09497427  0.67050759  0.18457576  1
  O2-  O391  1  0.08943503  0.66284681  0.48044546  1
  O2-  O392  1  0.07430513  0.64836205  0.78297116  1
  O2-  O393  1  0.07612782  0.89892380  0.14603325  1
  O2-  O394  1  0.08902774  0.91645684  0.47432533  1
  O2-  O395  1  0.07231665  0.89108999  0.81965206  1
  O2-  O396  1  0.33205732  0.16004830  0.14540665  1
  O2-  O397  1  0.33759084  0.14490733  0.47303681  1
  O2-  O398  1  0.33581336  0.15462605  0.82055214  1
  O2-  O399  1  0.29043234  0.37960958  0.14720385  1
  O2-  O400  1  0.33485879  0.40509244  0.52109190  1
  O2-  O401  1  0.31674496  0.36089223  0.79807554  1
  O2-  O402  1  0.32829516  0.62784584  0.11842631  1
  O2-  O403  1  0.32798395  0.65392772  0.48746607  1
  O2-  O404  1  0.31943719  0.65640956  0.81496734  1
  O2-  O405  1  0.33969238  0.91977861  0.14064571  1
  O2-  O406  1  0.34227967  0.91223139  0.48372061  1
  O2-  O407  1  0.30111122  0.91837250  0.79409247  1
  O2-  O408  1  0.57099055  0.15753922  0.15244678  1
  O2-  O409  1  0.59588908  0.17045128  0.49975040  1
  O2-  O410  1  0.57941016  0.16564114  0.81813306  1
  O2-  O411  1  0.57852630  0.42411302  0.14156071  1
  O2-  O412  1  0.56655192  0.34922912  0.44106721  1
  O2-  O413  1  0.57155740  0.41087366  0.80875454  1
  O2-  O414  1  0.58881594  0.67549058  0.15090393  1
  O2-  O415  1  0.57599386  0.63630241  0.48227710  1
  O2-  O416  1  0.59280051  0.67822283  0.82013858  1
  O2-  O417  1  0.58404722  0.91379283  0.15351171  1
  O2-  O418  1  0.59623435  0.95422404  0.48138644  1
  O2-  O419  1  0.57933076  0.92215833  0.83750570  1
  O2-  O420  1  0.81730256  0.13644335  0.14700323  1
  O2-  O421  1  0.85824679  0.15135202  0.49283286  1
  O2-  O422  1  0.82981010  0.17302760  0.81188845  1
  O2-  O423  1  0.81533335  0.42822352  0.13933496  1
  O2-  O424  1  0.83538909  0.42326089  0.48055826  1
  O2-  O425  1  0.82926858  0.41273138  0.81849077  1
  O2-  O426  1  0.82552905  0.63952101  0.15784504  1
  O2-  O427  1  0.81959046  0.63525934  0.47985108  1
  O2-  O428  1  0.81270826  0.65101592  0.81463405  1
  O2-  O429  1  0.81936639  0.88471241  0.15836009  1
  O2-  O430  1  0.82940616  0.93661172  0.48896489  1
  O2-  O431  1  0.82902215  0.92560835  0.81510956  1
  O2-  O432  1  0.16654979  0.06908531  0.18252866  1
  O2-  O433  1  0.16876048  0.08236089  0.51622639  1
  O2-  O434  1  0.16434843  0.07092588  0.82086758  1
  O2-  O435  1  0.11748257  0.30815610  0.19478546  1
  O2-  O436  1  0.15910296  0.32909353  0.51792785  1
  O2-  O437  1  0.16851474  0.34189801  0.84848345  1
  O2-  O438  1  0.19595675  0.59378852  0.20094298  1
  O2-  O439  1  0.17945644  0.59263456  0.52391278  1
  O2-  O440  1  0.15817769  0.57975169  0.83741664  1
  O2-  O441  1  0.18173985  0.84502311  0.19018402  1
  O2-  O442  1  0.17298521  0.82869500  0.51004204  1
  O2-  O443  1  0.15427470  0.79921524  0.84864450  1
  O2-  O444  1  0.41972803  0.08103417  0.18053301  1
  O2-  O445  1  0.42322826  0.07689931  0.52789748  1
  O2-  O446  1  0.42659023  0.08698293  0.86559255  1
  O2-  O447  1  0.41229296  0.33111677  0.18015766  1
  O2-  O448  1  0.41526953  0.31390239  0.49343994  1
  O2-  O449  1  0.41255266  0.31572932  0.85738100  1
  O2-  O450  1  0.42597939  0.59330688  0.19704587  1
  O2-  O451  1  0.41451009  0.57919708  0.52444337  1
  O2-  O452  1  0.41590348  0.58954472  0.85805332  1
  O2-  O453  1  0.42277435  0.83934670  0.19539856  1
  O2-  O454  1  0.44893334  0.85657892  0.52668958  1
  O2-  O455  1  0.48712403  0.87982720  0.85358507  1
  O2-  O456  1  0.65649373  0.08206596  0.19350864  1
  O2-  O457  1  0.69236153  0.10206467  0.53781385  1
  O2-  O458  1  0.66832562  0.09213380  0.86265821  1
  O2-  O459  1  0.64882962  0.32343461  0.17669724  1
  O2-  O460  1  0.67292354  0.33913946  0.52702621  1
  O2-  O461  1  0.66009067  0.33624010  0.85239897  1
  O2-  O462  1  0.64535724  0.57565439  0.18874305  1
  O2-  O463  1  0.66422934  0.56154570  0.53642197  1
  O2-  O464  1  0.65130506  0.57437225  0.85788701  1
  O2-  O465  1  0.66215988  0.82873336  0.20627261  1
  O2-  O466  1  0.62531238  0.81287472  0.47866325  1
  O2-  O467  1  0.67293720  0.82981666  0.86864640  1
  O2-  O468  1  0.90267872  0.05374254  0.19299269  1
  O2-  O469  1  0.90781939  0.10916054  0.50977631  1
  O2-  O470  1  0.91707691  0.10269002  0.84941196  1
  O2-  O471  1  0.94336810  0.42841013  0.21447567  1
  O2-  O472  1  0.92379810  0.34824699  0.52815957  1
  O2-  O473  1  0.91152490  0.33150875  0.85889922  1
  O2-  O474  1  0.87320470  0.59538333  0.17272673  1
  O2-  O475  1  0.92298766  0.58036238  0.53292195  1
  O2-  O476  1  0.89432100  0.58251046  0.85976165  1
  O2-  O477  1  0.90958085  0.80909608  0.19334598  1
  O2-  O478  1  0.93620709  0.78934948  0.53118810  1
  O2-  O479  1  0.90049175  0.82376738  0.85648880  1
  O2-  O480  1  0.17589102  0.08975787  0.30436141  1
  O2-  O481  1  0.17267540  0.09431800  0.63973271  1
  O2-  O482  1  0.17101217  0.06816309  0.97665877  1
  O2-  O483  1  0.17125274  0.33933391  0.30951165  1
  O2-  O484  1  0.08247532  0.29552324  0.62741042  1
  O2-  O485  1  0.17596571  0.36889063  0.97387874  1
  O2-  O486  1  0.18953058  0.58078150  0.31765725  1
  O2-  O487  1  0.17155100  0.58896316  0.65566771  1
  O2-  O488  1  0.17211729  0.58324928  0.95591618  1
  O2-  O489  1  0.17199396  0.84730341  0.31485554  1
  O2-  O490  1  0.16053499  0.83575137  0.62683417  1
  O2-  O491  1  0.17368400  0.82367608  0.97349224  1
  O2-  O492  1  0.40062785  0.10138081  0.37322201  1
  O2-  O493  1  0.41751538  0.07471958  0.64915478  1
  O2-  O494  1  0.42631855  0.08792882  0.97606371  1
  O2-  O495  1  0.46164832  0.36152264  0.30030087  1
  O2-  O496  1  0.37770412  0.34319145  0.62854915  1
  O2-  O497  1  0.41326219  0.33332943  0.98221099  1
  O2-  O498  1  0.42639135  0.60450838  0.32454035  1
  O2-  O499  1  0.42946184  0.60388991  0.64913083  1
  O2-  O500  1  0.42083181  0.60038912  0.98845691  1
  O2-  O501  1  0.41784861  0.83901450  0.32313693  1
  O2-  O502  1  0.42376229  0.83839029  0.65010139  1
  O2-  O503  1  0.45849050  0.85815986  0.96413103  1
  O2-  O504  1  0.67735395  0.10107738  0.31837108  1
  O2-  O505  1  0.66745509  0.08753405  0.66000745  1
  O2-  O506  1  0.67639387  0.09021603  0.98605637  1
  O2-  O507  1  0.65736011  0.33764162  0.29887182  1
  O2-  O508  1  0.65573278  0.33114858  0.65007617  1
  O2-  O509  1  0.66378058  0.33403157  0.97519121  1
  O2-  O510  1  0.65325439  0.57896194  0.30428194  1
  O2-  O511  1  0.66096789  0.57342761  0.65220639  1
  O2-  O512  1  0.65802830  0.57653107  0.98117131  1
  O2-  O513  1  0.66919858  0.84098732  0.33256242  1
  O2-  O514  1  0.65845837  0.83523818  0.66229158  1
  O2-  O515  1  0.67422658  0.82473124  0.97922645  1
  O2-  O516  1  0.92376098  0.08615871  0.31682914  1
  O2-  O517  1  0.90955057  0.09579191  0.64068895  1
  O2-  O518  1  0.89372175  0.04173622  0.99596400  1
  O2-  O519  1  0.93119232  0.35413293  0.32524629  1
  O2-  O520  1  0.90509882  0.33747049  0.64641149  1
  O2-  O521  1  0.92443662  0.33498753  0.98237004  1
  O2-  O522  1  0.97475771  0.58380005  0.26078571  1
  O2-  O523  1  0.90988055  0.57790499  0.66167168  1
  O2-  O524  1  0.91207320  0.58246054  0.98263022  1
  O2-  O525  1  0.90581195  0.82345587  0.31787975  1
  O2-  O526  1  0.90281750  0.90279238  0.58641169  1
  O2-  O527  1  0.93844934  0.88292143  0.97724414  1
  O2-  O528  1  0.05978048  0.11660136  0.02403978  1
  O2-  O529  1  0.09539057  0.17500066  0.34803366  1
  O2-  O530  1  0.07325385  0.15918687  0.68409498  1
  O2-  O531  1  0.08944995  0.43804474  0.02008136  1
  O2-  O532  1  0.09917588  0.42871535  0.35630659  1
  O2-  O533  1  0.07042579  0.42121075  0.68862555  1
  O2-  O534  1  0.07968211  0.65369361  0.01262895  1
  O2-  O535  1  0.04603546  0.68659860  0.35880391  1
  O2-  O536  1  0.08212709  0.65360818  0.71631216  1
  O2-  O537  1  0.08825642  0.89897793  0.02181067  1
  O2-  O538  1  0.07979535  0.92053057  0.35132758  1
  O2-  O539  1  0.05977463  0.92339568  0.63486702  1
  O2-  O540  1  0.33816116  0.16424920  0.01929040  1
  O2-  O541  1  0.36170606  0.18707913  0.29613356  1
  O2-  O542  1  0.32948561  0.15528910  0.69345743  1
  O2-  O543  1  0.33570452  0.43115193  0.02258508  1
  O2-  O544  1  0.34394138  0.42441040  0.31795100  1
  O2-  O545  1  0.33924852  0.44725151  0.68834890  1
  O2-  O546  1  0.34859609  0.71355561  0.01243815  1
  O2-  O547  1  0.33993559  0.67640389  0.36777535  1
  O2-  O548  1  0.34390420  0.67555186  0.68840530  1
  O2-  O549  1  0.34560671  0.91385969  0.01288605  1
  O2-  O550  1  0.33390132  0.92834814  0.36389675  1
  O2-  O551  1  0.32158694  0.90366679  0.67620415  1
  O2-  O552  1  0.57906843  0.16712551  0.01054227  1
  O2-  O553  1  0.57184842  0.21397182  0.38501436  1
  O2-  O554  1  0.57885198  0.16619005  0.69461943  1
  O2-  O555  1  0.58141278  0.41638598  0.02230612  1
  O2-  O556  1  0.54991694  0.40406667  0.32490693  1
  O2-  O557  1  0.56433366  0.40967648  0.68845494  1
  O2-  O558  1  0.58478992  0.67435049  0.02537490  1
  O2-  O559  1  0.59002253  0.66887935  0.36133461  1
  O2-  O560  1  0.59010196  0.67149583  0.69431144  1
  O2-  O561  1  0.59757779  0.92400609  0.02897003  1
  O2-  O562  1  0.58786999  0.93795822  0.35944798  1
  O2-  O563  1  0.58081445  0.92385365  0.70831381  1
  O2-  O564  1  0.83658854  0.16060941  0.02722150  1
  O2-  O565  1  0.85267205  0.18060553  0.36293756  1
  O2-  O566  1  0.83467483  0.17708127  0.68983935  1
  O2-  O567  1  0.82692557  0.41043237  0.01743358  1
  O2-  O568  1  0.82509450  0.42171131  0.35128681  1
  O2-  O569  1  0.82195989  0.41358666  0.69350420  1
  O2-  O570  1  0.82268771  0.64706867  0.03993686  1
  O2-  O571  1  0.80460887  0.64658429  0.35337382  1
  O2-  O572  1  0.80561140  0.62894980  0.69851093  1
  O2-  O573  1  0.81732659  0.88525304  0.03680900  1
  O2-  O574  1  0.83771962  0.91886661  0.36149786  1
  O2-  O575  1  0.83062190  0.93189423  0.68700604  1
