# generated using pymatgen
data_H2O
_symmetry_space_group_name_H-M   'P 1'
_cell_length_a   17.98291763
_cell_length_b   17.97737913
_cell_length_c   21.99807750
_cell_angle_alpha   89.98618237
_cell_angle_beta   90.01646982
_cell_angle_gamma   119.98271475
_symmetry_Int_Tables_number   1
_chemical_formula_structural   H2O
_chemical_formula_sum   'H384 O192'
_cell_volume   6159.95428817
_cell_formula_units_Z   192
loop_
 _symmetry_equiv_pos_site_id
 _symmetry_equiv_pos_as_xyz
  1  'x, y, z'
loop_
 _atom_type_symbol
 _atom_type_oxidation_number
  H+  1.0
  O2-  -2.0
loop_
 _atom_site_type_symbol
 _atom_site_label
 _atom_site_symmetry_multiplicity
 _atom_site_fract_x
 _atom_site_fract_y
 _atom_site_fract_z
 _atom_site_occupancy
  H+  H0  1  0.10560843  0.12751613  0.33404009  1
  H+  H1  1  0.73476163  0.86390565  0.66329181  1
  H+  H2  1  0.89204889  1.00129841  0.31932769  1
  H+  H3  1  0.03361860  0.87332251  0.50003805  1
  H+  H4  1  0.89382832  1.01820333  0.17568458  1
  H+  H5  1  0.91655396  0.98000595  0.49310503  1
  H+  H6  1  1.09984097  0.25211080  0.68387827  1
  H+  H7  1  0.39307073  0.60473601  0.30916748  1
  H+  H8  1  0.72365049  0.61036383  -0.00535583  1
  H+  H9  1  0.12427104  0.84663846  0.17572799  1
  H+  H10  1  0.56973510  0.39690789  0.14563283  1
  H+  H11  1  0.76496454  0.64522779  0.49257393  1
  H+  H12  1  0.63047080  0.49198451  0.48511978  1
  H+  H13  1  0.52798851  0.62653453  0.33201781  1
  H+  H14  1  0.90107948  0.86844951  0.66588953  1
  H+  H15  1  0.35367083  0.35086785  0.49029081  1
  H+  H16  1  0.04749384  0.95540152  0.79415111  1
  H+  H17  1  0.92773740  0.08160416  0.61255760  1
  H+  H18  1  0.95213147  0.31955094  0.66284676  1
  H+  H19  1  0.41104372  0.07757595  0.93835902  1
  H+  H20  1  0.48197906  0.27292769  0.54363179  1
  H+  H21  1  0.50507007  0.12024839  0.69538526  1
  H+  H22  1  0.93268603  0.25652096  0.49125156  1
  H+  H23  1  0.62512554  0.73677158  0.48583593  1
  H+  H24  1  0.14588145  0.59339866  0.57114235  1
  H+  H25  1  0.72991527  0.85079621  0.32249044  1
  H+  H26  1  0.63309552  0.52209908  -0.01383287  1
  H+  H27  1  0.31356015  0.89210534  -0.01875194  1
  H+  H28  1  0.30266960  0.41592300  0.08142346  1
  H+  H29  1  0.01632543  0.88184615  0.00853693  1
  H+  H30  1  0.32973910  0.15607309  0.09879535  1
  H+  H31  1  0.35649450  0.71685082  0.64360568  1
  H+  H32  1  0.90720989  0.11828511  0.83327808  1
  H+  H33  1  0.74484834  0.62296281  0.17951444  1
  H+  H34  1  0.98768979  0.39140888  0.51026780  1
  H+  H35  1  0.74190118  0.12433988  -0.01021381  1
  H+  H36  1  0.12419106  0.62658421  0.66052250  1
  H+  H37  1  0.91113360  0.86256876  0.51038227  1
  H+  H38  1  0.09691211  0.72777481  1.00459621  1
  H+  H39  1  0.03739081  0.88198860  0.67590337  1
  H+  H40  1  0.26066232  0.62609741  -0.01105008  1
  H+  H41  1  0.38283633  0.26406386  0.99038798  1
  H+  H42  1  0.83948494  0.47386626  0.18312001  1
  H+  H43  1  0.89383892  0.37637813  0.50260740  1
  H+  H44  1  0.48446106  0.11225981  0.99223618  1
  H+  H45  1  0.72872602  0.37621252  0.65327310  1
  H+  H46  1  0.51938603  0.13155316  0.15795408  1
  H+  H47  1  0.38668640  0.98270267  0.00203324  1
  H+  H48  1  0.85181782  0.39373744  1.03008757  1
  H+  H49  1  0.10328321  0.21699271  0.33534126  1
  H+  H50  1  0.51871838  0.88299462  0.50283691  1
  H+  H51  1  0.11890048  0.46778462  0.83567920  1
  H+  H52  1  0.97645690  0.38320456  0.35274718  1
  H+  H53  1  0.12401902  0.73748141  0.49267990  1
  H+  H54  1  0.87270794  0.98241371  0.67718495  1
  H+  H55  1  0.64346727  0.03493182  0.83827074  1
  H+  H56  1  -0.03365858  0.39123227  0.01205541  1
  H+  H57  1  0.39042954  0.27480328  0.66770556  1
  H+  H58  1  0.88152708  0.61210005  0.19228790  1
  H+  H59  1  0.31299230  0.64284489  0.59535172  1
  H+  H60  1  0.41388316  0.86381078  1.00224398  1
  H+  H61  1  0.36152396  0.46898341  0.66810567  1
  H+  H62  1  0.19853141  0.61034008  0.34788211  1
  H+  H63  1  0.20380108  0.61204291  0.65233569  1
  H+  H64  1  0.12906035  0.53210534  0.50777007  1
  H+  H65  1  0.71444651  0.35428747  0.18631408  1
  H+  H66  1  0.48650668  0.76540347  0.84611773  1
  H+  H67  1  0.13303570  0.99383369  0.83182701  1
  H+  H68  1  0.21834808  0.35442386  0.33058290  1
  H+  H69  1  0.72563539  0.87694010  0.51009992  1
  H+  H70  1  0.81126774  0.90225039  0.83269413  1
  H+  H71  1  0.36001105  0.46974294  0.33662551  1
  H+  H72  1  0.65702499  0.03104971  0.99059835  1
  H+  H73  1  0.14828077  0.11293445  0.99482789  1
  H+  H74  1  0.90320743  0.86123438  0.84636886  1
  H+  H75  1  0.12356221  0.48901837  0.18430172  1
  H+  H76  1  0.12019185  0.13182680  0.48739171  1
  H+  H77  1  0.11641852  0.41011457  0.50926092  1
  H+  H78  1  0.36806717  0.96341286  0.67610423  1
  H+  H79  1  1.01549501  0.25210943  0.48379463  1
  H+  H80  1  0.64054088  0.12864891  0.32579792  1
  H+  H81  1  0.77178220  0.12862991  0.52764861  1
  H+  H82  1  0.60324695  0.89135580  0.83173101  1
  H+  H83  1  0.99977563  0.13367136  0.99221835  1
  H+  H84  1  0.47998512  0.60974019  0.65759573  1
  H+  H85  1  0.85005689  0.39181072  0.18107050  1
  H+  H86  1  0.63271387  0.60480209  0.31822395  1
  H+  H87  1  0.86296989  0.46944714  0.82698719  1
  H+  H88  1  0.22364193  0.10874080  0.17329767  1
  H+  H89  1  0.61483494  0.72509262  0.67445468  1
  H+  H90  1  0.37475738  0.57914074  0.82838328  1
  H+  H91  1  0.54824523  0.89287399  0.00578911  1
  H+  H92  1  0.13036565  0.85657341  0.84911755  1
  H+  H93  1  0.10349744  0.17690604  0.06460622  1
  H+  H94  1  0.58187242  0.91146513  0.44566966  1
  H+  H95  1  0.38377548  0.34491897  0.83667545  1
  H+  H96  1  0.62798427  0.24065030  0.82733628  1
  H+  H97  1  0.37531851  -0.01018169  0.48823579  1
  H+  H98  1  0.24540387  0.87271707  0.50328345  1
  H+  H99  1  0.48988966  0.61996135  0.50081280  1
  H+  H100  1  0.28248908  0.87516582  0.67677658  1
  H+  H101  1  0.47640733  0.84808628  0.66087961  1
  H+  H102  1  0.77305506  0.63063788  0.82581987  1
  H+  H103  1  0.58021822  0.16372682  0.76950681  1
  H+  H104  1  1.00629735  0.10042361  0.51963599  1
  H+  H105  1  0.51116164  0.38398489  0.34095122  1
  H+  H106  1  0.62685834  0.25877761  0.17971833  1
  H+  H107  1  0.86061356  0.86114514  0.33517342  1
  H+  H108  1  0.95808662  0.81534451  0.34451857  1
  H+  H109  1  0.89265499  0.39497389  0.36146664  1
  H+  H110  1  0.96664304  0.60006935  0.65801122  1
  H+  H111  1  0.89666323  0.77623532  0.66668584  1
  H+  H112  1  0.89528114  0.30538326  0.21979436  1
  H+  H113  1  0.67323081  1.06092742  0.32805308  1
  H+  H114  1  0.32203619  0.04162595  0.63450444  1
  H+  H115  1  0.27183470  0.61222930  0.81173622  1
  H+  H116  1  0.15729473  0.86669964  0.65904665  1
  H+  H117  1  0.11370744  -0.02742160  0.15916125  1
  H+  H118  1  0.28317150  0.49941848  0.44827742  1
  H+  H119  1  0.83593927  0.20492637  0.64871573  1
  H+  H120  1  0.36569494  0.21586787  0.15741424  1
  H+  H121  1  0.52458790  0.13847329  0.34516842  1
  H+  H122  1  0.38380259  0.50719549  0.98628377  1
  H+  H123  1  0.40987613  0.32196224  0.92862777  1
  H+  H124  1  0.97256156  0.12875079  0.67525801  1
  H+  H125  1  0.29097247  0.89714571  0.33460705  1
  H+  H126  1  0.86915058  0.73486586  0.50204513  1
  H+  H127  1  0.97778124  0.36378381  0.83815670  1
  H+  H128  1  0.88229682  0.15724795  0.00074292  1
  H+  H129  1  0.51571974  0.37758971  0.67333222  1
  H+  H130  1  0.62403744  0.26532593  0.33153465  1
  H+  H131  1  0.12658995  0.62859605  0.50357481  1
  H+  H132  1  0.09087886  0.63428010  0.34755878  1
  H+  H133  1  0.61789187  0.38546946  0.66418607  1
  H+  H134  1  0.33641680  0.35772469  -0.00490842  1
  H+  H135  1  0.73698506  0.36503261  0.83027602  1
  H+  H136  1  0.63767620  0.89397537  1.00750700  1
  H+  H137  1  0.85212329  0.63340232  0.01383161  1
  H+  H138  1  0.48502786  0.85516168  0.16637222  1
  H+  H139  1  0.86603808  0.38081781  0.82098813  1
  H+  H140  1  0.73894844  0.34988432  -0.00560424  1
  H+  H141  1  0.10319203  0.71675976  0.83313191  1
  H+  H142  1  0.09780083  0.86957687  0.00798186  1
  H+  H143  1  0.50786973  0.38063481  -0.00475207  1
  H+  H144  1  -0.04782566  0.59596024  0.00598339  1
  H+  H145  1  0.38293009  1.02307924  0.16926795  1
  H+  H146  1  0.87367673  0.53782441  0.36350151  1
  H+  H147  1  0.86905528  0.39128311  0.67192088  1
  H+  H148  1  0.39680147  0.76702616  0.16813240  1
  H+  H149  1  0.78242058  0.88797058  0.15910591  1
  H+  H150  1  0.74606595  0.28407175  0.95259417  1
  H+  H151  1  1.09722654  0.40083571  0.66320507  1
  H+  H152  1  0.62282697  0.21602308  1.00219931  1
  H+  H153  1  0.89182947  0.27629883  0.82579600  1
  H+  H154  1  0.48848336  0.60582206  0.16587722  1
  H+  H155  1  0.11102254  0.47599922  0.34789117  1
  H+  H156  1  0.59694049  0.14140929  0.50074992  1
  H+  H157  1  0.32483667  0.33120633  0.51733457  1
  H+  H158  1  0.39208975  0.52296703  0.15917754  1
  H+  H159  1  0.39697223  0.86221535  0.31795117  1
  H+  H160  1  0.88313620  0.10001174  0.17496739  1
  H+  H161  1  0.51079886  0.85030755  0.34169617  1
  H+  H162  1  0.93032304  0.38553040  0.25813606  1
  H+  H163  1  0.35826038  0.62636814  0.45905664  1
  H+  H164  1  0.28591588  0.63491601  0.16806044  1
  H+  H165  1  0.05451706  0.57094232  0.03442414  1
  H+  H166  1  0.78478823  0.13713715  0.81850663  1
  H+  H167  1  0.27033099  0.47409064  0.10876627  1
  H+  H168  1  0.63407685  0.60741225  0.83524403  1
  H+  H169  1  0.52733327  0.79630387  0.38955185  1
  H+  H170  1  0.18442869  0.81060799  1.01427820  1
  H+  H171  1  0.61559836  0.97200635  0.15935760  1
  H+  H172  1  0.95887939  0.95513562  0.44105678  1
  H+  H173  1  0.12685496  0.88310224  0.49441264  1
  H+  H174  1  0.02685205  0.40955225  0.18325240  1
  H+  H175  1  0.38810242  0.85852932  0.84488632  1
  H+  H176  1  0.38096693  0.97983041  0.33652468  1
  H+  H177  1  0.62283303  0.24217087  0.49158800  1
  H+  H178  1  0.61594686  0.63337981  0.00255385  1
  H+  H179  1  0.85985515  0.51516626  1.00471526  1
  H+  H180  1  0.61984943  0.38753663  0.82262356  1
  H+  H181  1  0.73685879  0.62867791  0.65008982  1
  H+  H182  1  0.13873927  0.14731168  0.83028919  1
  H+  H183  1  0.89818349  0.99112106  0.82995773  1
  H+  H184  1  0.36873757  0.15131658  0.69317359  1
  H+  H185  1  0.62582360  0.50851084  0.31732511  1
  H+  H186  1  0.21033454  0.84731715  0.16999102  1
  H+  H187  1  0.85384953  0.72344794  0.01600538  1
  H+  H188  1  0.59890018  0.01747269  0.51917032  1
  H+  H189  1  0.10901058  0.60716447  0.18335179  1
  H+  H190  1  0.41284360  0.77370332  0.00076440  1
  H+  H191  1  0.98576867  0.85349749  0.85254211  1
  H+  H192  1  0.29144963  0.63906122  0.27539969  1
  H+  H193  1  0.26461534  0.86655124  0.82768391  1
  H+  H194  1  0.61648639  0.88144619  0.67648519  1
  H+  H195  1  0.50757405  0.60398675  0.81940790  1
  H+  H196  1  0.37336703  0.62993245  0.16130478  1
  H+  H197  1  0.86454557  0.71649951  0.82983711  1
  H+  H198  1  0.38917010  0.60616474  0.64776604  1
  H+  H199  1  0.34644947  0.21558830  0.33875873  1
  H+  H200  1  0.65594929  0.53301533  0.16660527  1
  H+  H201  1  0.64630007  0.86199288  0.16786854  1
  H+  H202  1  0.18428727  0.64507283  0.98490125  1
  H+  H203  1  0.86908680  0.66732107  0.34736509  1
  H+  H204  1  0.75416720  0.10087280  0.15053026  1
  H+  H205  1  0.22523558  0.10640008  0.50040644  1
  H+  H206  1  0.14172850  0.61006387  0.83473881  1
  H+  H207  1  0.62738059  0.14573098  0.83207476  1
  H+  H208  1  0.15061322  0.77659067  0.66088715  1
  H+  H209  1  0.35740250  -0.00253949  0.84478206  1
  H+  H210  1  0.21049241  0.38656626  0.51182382  1
  H+  H211  1  0.15300887  0.24219422  0.00977243  1
  H+  H212  1  0.10926601  0.88391665  0.33750390  1
  H+  H213  1  0.48009145  0.13013690  0.50364950  1
  H+  H214  1  0.83602582  0.16152263  0.75642232  1
  H+  H215  1  0.38668862  0.11131344  0.17219144  1
  H+  H216  1  1.13387603  0.23244189  0.84359630  1
  H+  H217  1  0.47601266  0.35387166  0.84098123  1
  H+  H218  1  0.28128736  0.14567105  0.67504382  1
  H+  H219  1  0.08307412  0.91294655  0.09948567  1
  H+  H220  1  0.70098796  0.83119614  0.86083079  1
  H+  H221  1  0.21299395  0.36641813  0.17040828  1
  H+  H222  1  0.89342679  0.86145814  0.17291470  1
  H+  H223  1  0.61537994  0.12676867  0.00745828  1
  H+  H224  1  0.87078248  0.26065633  0.30340583  1
  H+  H225  1  0.02701435  0.13674986  0.16051840  1
  H+  H226  1  0.27525207  0.12632315  0.00796206  1
  H+  H227  1  0.25564273  0.09172636  0.84700164  1
  H+  H228  1  0.36635620  0.12943348  0.01037192  1
  H+  H229  1  0.88309437  0.60266703  0.84472843  1
  H+  H230  1  0.70555598  0.10036621  0.66351959  1
  H+  H231  1  0.88231837  0.99671265  0.00662577  1
  H+  H232  1  0.12466054  0.36150725  0.18046647  1
  H+  H233  1  0.70411844  0.87504870  0.86366533  1
  H+  H234  1  0.11299023  0.22711561  0.16341503  1
  H+  H235  1  0.64869746  0.76849094  1.00201664  1
  H+  H236  1  0.22454816  0.68270283  0.21459155  1
  H+  H237  1  0.87803922  0.49676187  0.47988206  1
  H+  H238  1  0.38951955  0.85178552  0.66390624  1
  H+  H239  1  0.59300125  0.11839288  0.68868158  1
  H+  H240  1  0.79233606  0.90586970  0.00970454  1
  H+  H241  1  0.98258298  0.61935563  0.50638768  1
  H+  H242  1  0.76805210  0.16633513  0.51706612  1
  H+  H243  1  0.65794939  0.38069597  0.49223054  1
  H+  H244  1  0.36588291  0.72187976  0.30810093  1
  H+  H245  1  0.13909392  1.01407339  0.50184181  1
  H+  H246  1  0.39597800  0.87213974  0.50512989  1
  H+  H247  1  0.99971597  0.12384437  0.84096050  1
  H+  H248  1  0.62269774  0.72552371  0.15572994  1
  H+  H249  1  0.36178818  0.22417339  0.48625609  1
  H+  H250  1  0.37999703  0.62978073  1.00528824  1
  H+  H251  1  0.19028297  0.08243045  0.90141015  1
  H+  H252  1  0.12099096  0.50924870  1.01549860  1
  H+  H253  1  0.00750692  0.64324593  0.35524675  1
  H+  H254  1  0.95861601  0.59221531  0.20010221  1
  H+  H255  1  0.61954994  0.71528429  0.32845642  1
  H+  H256  1  0.38556677  0.11917128  0.50003660  1
  H+  H257  1  0.88990400  0.29347642  0.01003646  1
  H+  H258  1  0.11055417  0.38553138  0.35015549  1
  H+  H259  1  0.26502263  0.96510111  0.11191781  1
  H+  H260  1  0.26902091  0.38348499  0.66857137  1
  H+  H261  1  1.01621904  0.62571213  0.83269894  1
  H+  H262  1  -0.01976987  0.85881992  0.17299806  1
  H+  H263  1  0.59711284  0.38219755  -0.00856794  1
  H+  H264  1  0.87739040  0.51248997  0.65874574  1
  H+  H265  1  0.13594587  0.11163368  0.17345468  1
  H+  H266  1  0.64522355  0.62300971  0.64972868  1
  H+  H267  1  0.57562965  0.69864302  0.82702185  1
  H+  H268  1  0.78876393  0.18094100  0.27852779  1
  H+  H269  1  0.44119658  0.36683901  0.18118247  1
  H+  H270  1  0.52461043  0.90392414  0.82830973  1
  H+  H271  1  0.38574833  0.11074384  0.32543061  1
  H+  H272  1  0.47696642  0.59406537  -0.01085266  1
  H+  H273  1  0.91748486  0.07149160  0.25990453  1
  H+  H274  1  0.89076379  0.86986929  0.99909904  1
  H+  H275  1  0.37070219  0.35898978  0.34166799  1
  H+  H276  1  0.12028516  0.00882377  0.32598084  1
  H+  H277  1  0.54885365  0.39662798  0.49323945  1
  H+  H278  1  0.26006025  0.12298401  0.33647924  1
  H+  H279  1  0.13885556  0.01851606  0.99446381  1
  H+  H280  1  0.63150696  0.10887606  0.16588191  1
  H+  H281  1  0.15440330  1.01808711  0.65647372  1
  H+  H282  1  0.85307334  0.12714134  0.66257396  1
  H+  H283  1  0.62692433  0.63886925  0.15869171  1
  H+  H284  1  0.98190720  0.10240957  0.32391895  1
  H+  H285  1  0.11691101  0.37960846  0.84555636  1
  H+  H286  1  0.61643403  0.47509681  0.82135687  1
  H+  H287  1  0.36041972  0.45091052  0.82009575  1
  H+  H288  1  0.67311257  0.83475625  0.60482005  1
  H+  H289  1  0.43043480  0.58827993  0.56028044  1
  H+  H290  1  0.61901040  0.00970795  0.66873645  1
  H+  H291  1  0.89348017  0.57823638  0.29528102  1
  H+  H292  1  0.22701830  0.95553926  0.28662765  1
  H+  H293  1  0.83818447  0.69624915  0.43172314  1
  H+  H294  1  0.09166279  0.43596370  0.44370313  1
  H+  H295  1  0.64968941  0.62696870  0.49850868  1
  H+  H296  1  0.35120257  0.49490918  0.48633519  1
  H+  H297  1  0.42872232  0.83486495  0.25642423  1
  H+  H298  1  0.68149022  0.60040648  0.56092901  1
  H+  H299  1  0.77914539  0.06841077  0.40551138  1
  H+  H300  1  0.48291451  0.32336512  0.21988567  1
  H+  H301  1  0.59901708  0.91885724  0.09775042  1
  H+  H302  1  0.91656985  0.57695983  0.56175808  1
  H+  H303  1  0.17874948  0.07662548  0.59695804  1
  H+  H304  1  0.42740326  0.56721886  0.25968302  1
  H+  H305  1  0.83661116  0.66630448  0.11238446  1
  H+  H306  1  0.31910303  0.92647424  0.08477171  1
  H+  H307  1  0.90747177  0.57142563  0.90585052  1
  H+  H308  1  0.58594860  0.17366089  0.40499550  1
  H+  H309  1  0.18849725  0.83880734  0.56457500  1
  H+  H310  1  0.39149269  0.36477866  0.65958759  1
  H+  H311  1  0.06983262  0.67523082  0.74386877  1
  H+  H312  1  0.10269994  0.91576275  0.73240088  1
  H+  H313  1  0.68190104  0.33105400  0.89148558  1
  H+  H314  1  0.32655729  0.39332801  0.76048291  1
  H+  H315  1  0.87166606  0.73215532  0.16959211  1
  H+  H316  1  0.67437047  0.82878544  0.22645360  1
  H+  H317  1  0.66805971  0.57577375  0.25190461  1
  H+  H318  1  0.58548109  0.40971576  0.73344206  1
  H+  H319  1  0.64837194  0.31669989  0.25465513  1
  H+  H320  1  0.40844146  0.55772224  0.89094250  1
  H+  H321  1  0.83215190  0.41430791  0.73081979  1
  H+  H322  1  0.92698768  0.82965938  0.57608721  1
  H+  H323  1  0.77665365  0.04425201  0.10934760  1
  H+  H324  1  0.59733096  0.67376951  0.42679669  1
  H+  H325  1  0.19952719  0.34041768  0.91475484  1
  H+  H326  1  0.05311888  0.62766437  0.08602844  1
  H+  H327  1  0.08080767  0.46480964  0.08006746  1
  H+  H328  1  0.51881946  0.75154147  0.90721838  1
  H+  H329  1  0.67925605  0.09461910  0.89744332  1
  H+  H330  1  0.58601337  0.66009920  0.06356248  1
  H+  H331  1  0.15067686  0.81665953  0.90686047  1
  H+  H332  1  0.16534149  0.59312284  0.27976140  1
  H+  H333  1  0.16008440  0.35464608  0.57655843  1
  H+  H334  1  0.83686017  0.16280097  0.06052393  1
  H+  H335  1  0.80844053  0.41754750  0.08538808  1
  H+  H336  1  0.15564649  0.06901038  0.26581864  1
  H+  H337  1  0.93913935  0.10121779  0.93364943  1
  H+  H338  1  0.08225170  0.67498053  0.43264134  1
  H+  H339  1  0.77150615  0.10591589  0.40679985  1
  H+  H340  1  0.74406662  0.37701700  0.49124126  1
  H+  H341  1  0.43024291  0.84084918  0.90382197  1
  H+  H342  1  0.66199687  0.08417507  0.22679603  1
  H+  H343  1  0.58244830  0.91058428  0.73480780  1
  H+  H344  1  0.84692187  0.90984767  0.38937282  1
  H+  H345  1  0.58207205  0.16518560  0.09936697  1
  H+  H346  1  0.84777409  0.92676785  0.10219611  1
  H+  H347  1  0.91385718  0.82817263  0.94230749  1
  H+  H348  1  0.02960476  0.71372094  0.69803085  1
  H+  H349  1  0.83581475  0.66344800  0.73186194  1
  H+  H350  1  0.86331203  0.63400700  0.67094115  1
  H+  H351  1  0.34938953  0.65858608  0.06615321  1
  H+  H352  1  0.41800621  0.83534096  0.56445717  1
  H+  H353  1  0.07548477  0.15629752  0.43402410  1
  H+  H354  1  0.33016601  0.90157710  0.77068747  1
  H+  H355  1  0.68757165  0.82885500  0.94434972  1
  H+  H356  1  0.02505883  0.53027317  0.15739820  1
  H+  H357  1  0.18225097  0.86200468  0.25878859  1
  H+  H358  1  0.18620670  0.59370749  0.89211047  1
  H+  H359  1  0.66754322  0.58167401  0.89469913  1
  H+  H360  1  0.32558750  0.16321962  0.42669794  1
  H+  H361  1  0.31550020  0.60717756  0.75124532  1
  H+  H362  1  0.61523250  0.07094088  0.58030455  1
  H+  H363  1  0.32370719  0.62719233  0.39308212  1
  H+  H364  1  0.60354694  0.44200835  0.08327622  1
  H+  H365  1  0.23571325  0.35552282  0.84595981  1
  H+  H366  1  0.08091388  0.19026718  0.74197915  1
  H+  H367  1  0.40389725  0.07455386  0.59474637  1
  H+  H368  1  0.42188973  0.08600733  0.26685653  1
  H+  H369  1  0.85034893  0.92127698  0.73446561  1
  H+  H370  1  0.61992240  0.35509598  0.32491861  1
  H+  H371  1  0.58049574  0.65794169  0.72989664  1
  H+  H372  1  0.63556260  0.84101556  0.32666120  1
  H+  H373  1  0.93850517  0.35823951  0.60033518  1
  H+  H374  1  0.15888513  0.32900240  0.27174099  1
  H+  H375  1  0.99832158  0.03327935  0.56884892  1
  H+  H376  1  0.58310111  0.42178360  0.39406599  1
  H+  H377  1  0.07738384  0.89954869  0.40149310  1
  H+  H378  1  0.34799292  0.92670136  0.42998073  1
  H+  H379  1  0.38703760  0.32580483  0.28021976  1
  H+  H380  1  0.44581186  0.32626021  0.57456238  1
  H+  H381  1  0.67796627  0.35732011  0.59021306  1
  H+  H382  1  0.31827582  0.42490926  0.40028457  1
  H+  H383  1  0.63340971  0.86837618  0.51245958  1
  O2-  O384  1  0.08789012  0.16752645  0.14698686  1
  O2-  O385  1  0.08355370  0.15759044  0.47830599  1
  O2-  O386  1  0.10358095  0.17437570  0.82271246  1
  O2-  O387  1  0.08452066  0.43593334  0.16234104  1
  O2-  O388  1  0.09059781  0.44487037  0.48874467  1
  O2-  O389  1  0.08374008  0.40537248  0.82895770  1
  O2-  O390  1  0.05244699  0.59229871  0.16333670  1
  O2-  O391  1  0.08851347  0.67614760  0.47979845  1
  O2-  O392  1  0.07511057  0.65875718  0.81403239  1
  O2-  O393  1  0.08619197  0.91196254  0.14479232  1
  O2-  O394  1  0.09020479  0.90729497  0.47951406  1
  O2-  O395  1  0.08527737  0.93649707  0.81165490  1
  O2-  O396  1  0.32902410  0.15540643  0.14511910  1
  O2-  O397  1  0.32732997  0.16416606  0.47238007  1
  O2-  O398  1  0.34649879  0.09828518  0.83119309  1
  O2-  O399  1  0.29745047  0.44114679  0.12134189  1
  O2-  O400  1  0.29787882  0.45561825  0.46306141  1
  O2-  O401  1  0.32853359  0.39000242  0.80580293  1
  O2-  O402  1  0.34039091  0.65559856  0.14339631  1
  O2-  O403  1  0.30576825  0.60486000  0.43454755  1
  O2-  O404  1  0.32826255  0.62601345  0.79339154  1
  O2-  O405  1  0.29892297  0.93875829  0.12381094  1
  O2-  O406  1  0.34576253  0.92835499  0.47532973  1
  O2-  O407  1  0.32602643  0.89863301  0.81629327  1
  O2-  O408  1  0.58111602  0.16428348  0.14489925  1
  O2-  O409  1  0.58275901  0.18193458  0.47778052  1
  O2-  O410  1  0.59463645  0.17554064  0.81746555  1
  O2-  O411  1  0.61866603  0.44683007  0.12702084  1
  O2-  O412  1  0.60136644  0.43234459  0.46836349  1
  O2-  O413  1  0.58812795  0.41492498  0.80523410  1
  O2-  O414  1  0.59292352  0.66418019  0.14178452  1
  O2-  O415  1  0.59866895  0.67599881  0.47200184  1
  O2-  O416  1  0.56932984  0.64581969  0.80829745  1
  O2-  O417  1  0.59459944  0.91290340  0.14299808  1
  O2-  O418  1  0.58294241  0.91521823  0.49041166  1
  O2-  O419  1  0.58603040  0.93008719  0.81298632  1
  O2-  O420  1  0.80339926  0.10088485  0.12834540  1
  O2-  O421  1  0.95460101  0.22118008  0.47318898  1
  O2-  O422  1  0.84321136  0.16138313  0.80109937  1
  O2-  O423  1  0.81215777  0.41392188  0.16580896  1
  O2-  O424  1  0.84668978  0.43496222  0.46245453  1
  O2-  O425  1  0.83243871  0.41136046  0.80805249  1
  O2-  O426  1  0.83894564  0.66807570  0.15763156  1
  O2-  O427  1  0.83134518  0.68095578  0.47689751  1
  O2-  O428  1  0.83450678  0.65778485  0.81222264  1
  O2-  O429  1  0.84469125  0.92255690  0.14753616  1
  O2-  O430  1  0.90332985  0.93430172  0.46098640  1
  O2-  O431  1  0.86971719  0.92849032  0.81631323  1
  O2-  O432  1  0.16338543  0.07836320  0.18878024  1
  O2-  O433  1  0.16536483  0.07464757  0.51657374  1
  O2-  O434  1  0.19508096  0.08091729  0.85633187  1
  O2-  O435  1  0.15702853  0.33200513  0.19166861  1
  O2-  O436  1  0.15294785  0.35761620  0.53095173  1
  O2-  O437  1  0.18161235  0.33099476  0.87051727  1
  O2-  O438  1  0.20470252  0.62121938  0.21488126  1
  O2-  O439  1  0.15486366  0.59562883  0.52475812  1
  O2-  O440  1  0.17773373  0.58544763  0.84748870  1
  O2-  O441  1  0.15666069  0.82031477  0.19363013  1
  O2-  O442  1  0.18493251  0.84018557  0.51945188  1
  O2-  O443  1  0.15537202  0.82154716  0.86194922  1
  O2-  O444  1  0.41778558  0.08133300  0.18717328  1
  O2-  O445  1  0.41925777  0.09426724  0.51826140  1
  O2-  O446  1  0.36683599  0.04868206  0.86935433  1
  O2-  O447  1  0.45583621  0.32132309  0.18099285  1
  O2-  O448  1  0.46225402  0.31315200  0.53380350  1
  O2-  O449  1  0.41777947  0.32279477  0.85824099  1
  O2-  O450  1  0.42869329  0.57597743  0.18287191  1
  O2-  O451  1  0.42977567  0.59358127  0.51507820  1
  O2-  O452  1  0.40844057  0.55293590  0.84600635  1
  O2-  O453  1  0.42604116  0.82701141  0.18337654  1
  O2-  O454  1  0.42307141  0.83877010  0.51946225  1
  O2-  O455  1  0.43049062  0.84175820  0.85878342  1
  O2-  O456  1  0.66044918  0.07743425  0.18168848  1
  O2-  O457  1  0.59390038  0.06464705  0.53799432  1
  O2-  O458  1  0.67612151  0.09627598  0.85190488  1
  O2-  O459  1  0.65209990  0.31688160  0.20002934  1
  O2-  O460  1  0.68514831  0.34909902  0.50986900  1
  O2-  O461  1  0.67509438  0.33482295  0.84682279  1
  O2-  O462  1  0.68032770  0.58873230  0.19070277  1
  O2-  O463  1  0.68217703  0.59824572  0.51338267  1
  O2-  O464  1  0.66761083  0.57978581  0.84925241  1
  O2-  O465  1  0.67713916  0.83096901  0.18115392  1
  O2-  O466  1  0.66713447  0.83812024  0.52378644  1
  O2-  O467  1  0.53629797  0.76571073  0.86490581  1
  O2-  O468  1  0.92072400  0.07910921  0.19235258  1
  O2-  O469  1  0.96241324  0.05127818  0.54732946  1
  O2-  O470  1  0.93704970  0.09037758  0.85301736  1
  O2-  O471  1  0.92588669  0.36933153  0.21371567  1
  O2-  O472  1  0.92720495  0.35520215  0.52521485  1
  O2-  O473  1  0.91352137  0.33467928  0.84203622  1
  O2-  O474  1  0.89894664  0.57329708  0.21286767  1
  O2-  O475  1  0.92113249  0.58172716  0.51687834  1
  O2-  O476  1  0.91375283  0.57318798  0.86065281  1
  O2-  O477  1  0.92013609  0.82846548  0.18810837  1
  O2-  O478  1  0.92893560  0.82416660  0.53049254  1
  O2-  O479  1  0.92431735  0.82370258  0.86388926  1
  O2-  O480  1  0.15440123  0.06939099  0.31161170  1
  O2-  O481  1  0.18966198  0.07722306  0.64121760  1
  O2-  O482  1  0.17507686  0.07878621  0.98035718  1
  O2-  O483  1  0.15718999  0.32358794  0.31693987  1
  O2-  O484  1  0.16759956  0.34815652  0.64972691  1
  O2-  O485  1  0.21910437  0.34608614  0.98983902  1
  O2-  O486  1  0.14538763  0.57857449  0.32460480  1
  O2-  O487  1  0.14290751  0.58996222  0.64097295  1
  O2-  O488  1  0.20056806  0.60314958  0.97235883  1
  O2-  O489  1  0.20042367  0.89557469  0.29909143  1
  O2-  O490  1  0.18695661  0.83528384  0.64416240  1
  O2-  O491  1  0.13219596  0.78821565  0.99002258  1
  O2-  O492  1  0.42235172  0.08645223  0.31231364  1
  O2-  O493  1  0.38269868  0.05844190  0.63775800  1
  O2-  O494  1  0.42134944  0.07876818  0.98328049  1
  O2-  O495  1  0.39935113  0.32660089  0.32347427  1
  O2-  O496  1  0.42548588  0.33552206  0.64946026  1
  O2-  O497  1  0.40779242  0.32412279  0.97545941  1
  O2-  O498  1  0.42406667  0.57173688  0.30497583  1
  O2-  O499  1  0.42145811  0.57604606  0.63896488  1
  O2-  O500  1  0.41737619  0.56800979  0.97277985  1
  O2-  O501  1  0.42509852  0.82998940  0.30270971  1
  O2-  O502  1  0.41700791  0.82155723  0.64393813  1
  O2-  O503  1  0.44391170  0.83443861  0.98561218  1
  O2-  O504  1  0.67240867  0.10485831  0.30267950  1
  O2-  O505  1  0.64222793  0.07151076  0.65749987  1
  O2-  O506  1  0.68056841  0.09128318  0.97562464  1
  O2-  O507  1  0.64829576  0.32293111  0.30973938  1
  O2-  O508  1  0.67115503  0.35708996  0.63520057  1
  O2-  O509  1  0.70539570  0.30317433  0.96326385  1
  O2-  O510  1  0.65941588  0.56993994  0.30151297  1
  O2-  O511  1  0.68068501  0.60232338  0.62898931  1
  O2-  O512  1  0.66618921  0.58373050  0.97386844  1
  O2-  O513  1  0.67027087  0.81898523  0.30604357  1
  O2-  O514  1  0.67352650  0.83369315  0.65009139  1
  O2-  O515  1  0.68364846  0.83075872  0.98870110  1
  O2-  O516  1  0.91929588  0.06430684  0.30702690  1
  O2-  O517  1  0.91400339  0.08652848  0.65567590  1
  O2-  O518  1  0.93831676  0.10326297  0.97904155  1
  O2-  O519  1  0.91988757  0.36841495  0.33516064  1
  O2-  O520  1  0.94463818  0.36539541  0.64589162  1
  O2-  O521  1  0.90484757  0.35379744  1.00261617  1
  O2-  O522  1  0.89663093  0.59316826  0.33905763  1
  O2-  O523  1  0.90739318  0.57365241  0.64268791  1
  O2-  O524  1  0.89514867  0.57389918  0.98621329  1
  O2-  O525  1  0.89707742  0.78909904  0.32958132  1
  O2-  O526  1  0.93110145  0.83722051  0.65168723  1
  O2-  O527  1  0.91327526  0.83092631  0.98765752  1
  O2-  O528  1  0.10972962  0.17985550  0.01967212  1
  O2-  O529  1  0.07115750  0.15444792  0.34730241  1
  O2-  O530  1  0.06105813  0.19297754  0.70066431  1
  O2-  O531  1  0.06739754  0.47976606  0.03972265  1
  O2-  O532  1  0.08598043  0.41889396  0.36858824  1
  O2-  O533  1  0.15649738  0.41878739  0.67407080  1
  O2-  O534  1  0.05177864  0.62472956  0.04073503  1
  O2-  O535  1  0.06990149  0.67140269  0.36489522  1
  O2-  O536  1  0.06582515  0.68746420  0.69877740  1
  O2-  O537  1  0.07865075  0.90992041  0.02073883  1
  O2-  O538  1  0.06634220  0.89642459  0.35669714  1
  O2-  O539  1  0.09935111  0.90845818  0.68759883  1
  O2-  O540  1  0.33515518  0.15875985  0.02520378  1
  O2-  O541  1  0.32127201  0.15422566  0.35070930  1
  O2-  O542  1  0.33836696  0.18353606  0.69494852  1
  O2-  O543  1  0.31017541  0.39294841  0.00942114  1
  O2-  O544  1  0.32600147  0.41204382  0.35627025  1
  O2-  O545  1  0.33129000  0.40804754  0.68177303  1
  O2-  O546  1  0.35601174  0.66596397  0.02081699  1
  O2-  O547  1  0.33323194  0.65712982  0.30958690  1
  O2-  O548  1  0.31930606  0.65231092  0.63920208  1
  O2-  O549  1  0.35588570  0.91867816  0.01364928  1
  O2-  O550  1  0.35020110  0.91878447  0.35049542  1
  O2-  O551  1  0.34221937  0.90508937  0.69428027  1
  O2-  O552  1  0.58546459  0.15844862  0.02083909  1
  O2-  O553  1  0.58577498  0.17123434  0.35864870  1
  O2-  O554  1  0.56534932  0.14996301  0.70751968  1
  O2-  O555  1  0.57143725  0.41509538  0.00674529  1
  O2-  O556  1  0.57429547  0.41445816  0.34840701  1
  O2-  O557  1  0.57994990  0.40737849  0.68692224  1
  O2-  O558  1  0.58492415  0.66328767  0.01807659  1
  O2-  O559  1  0.58959527  0.65528872  0.34569804  1
  O2-  O560  1  0.58317353  0.66271996  0.68454726  1
  O2-  O561  1  0.60959172  0.92745029  0.01971943  1
  O2-  O562  1  0.55751460  0.85128315  0.36833684  1
  O2-  O563  1  0.57987067  0.90601909  0.68955576  1
  O2-  O564  1  0.84547369  0.17988323  0.01697260  1
  O2-  O565  1  0.85065153  0.21682607  0.27057838  1
  O2-  O566  1  0.81659611  0.15403891  0.67409645  1
  O2-  O567  1  0.81308913  0.41867380  0.04018312  1
  O2-  O568  1  0.84700644  0.44322604  0.39586915  1
  O2-  O569  1  0.83178968  0.41484840  0.68516707  1
  O2-  O570  1  0.82185826  0.66299074  0.03078702  1
  O2-  O571  1  0.84597813  0.70624587  0.36118647  1
  O2-  O572  1  0.84079064  0.67118153  0.68678566  1
  O2-  O573  1  0.85298565  0.93690064  0.02368205  1
  O2-  O574  1  0.83944262  0.90236956  0.34465262  1
  O2-  O575  1  0.84586796  0.92016977  0.68944974  1
