# generated using pymatgen
data_H2O
_symmetry_space_group_name_H-M   'P 1'
_cell_length_a   17.98424016
_cell_length_b   17.98265023
_cell_length_c   21.99160254
_cell_angle_alpha   89.96130355
_cell_angle_beta   90.00306516
_cell_angle_gamma   119.99943355
_symmetry_Int_Tables_number   1
_chemical_formula_structural   H2O
_chemical_formula_sum   'H384 O192'
_cell_volume   6159.36096859
_cell_formula_units_Z   192
loop_
 _symmetry_equiv_pos_site_id
 _symmetry_equiv_pos_as_xyz
  1  'x, y, z'
loop_
 _atom_type_symbol
 _atom_type_oxidation_number
  H+  1.0
  O2-  -2.0
loop_
 _atom_site_type_symbol
 _atom_site_label
 _atom_site_symmetry_multiplicity
 _atom_site_fract_x
 _atom_site_fract_y
 _atom_site_fract_z
 _atom_site_occupancy
  H+  H0  1  0.88707639  0.28957350  0.58593830  1
  H+  H1  1  0.89766662  0.78732802  0.16953397  1
  H+  H2  1  0.13989081  0.01764949  0.17423111  1
  H+  H3  1  0.86197421  0.95226549  0.48220262  1
  H+  H4  1  0.11962129  0.97570169  0.01323654  1
  H+  H5  1  0.56511628  0.20601072  0.17183519  1
  H+  H6  1  0.61701033  0.48143204  0.50336907  1
  H+  H7  1  0.40341299  1.07435293  -0.05091336  1
  H+  H8  1  0.40409063  -0.02130216  0.67784062  1
  H+  H9  1  0.73551735  0.63152560  0.49837971  1
  H+  H10  1  0.96266532  0.10579295  0.84325994  1
  H+  H11  1  0.57484018  0.42463937  0.44504772  1
  H+  H12  1  0.14442712  0.90504921  0.67634537  1
  H+  H13  1  0.63727064  0.02730697  0.49998416  1
  H+  H14  1  0.90012845  0.77641047  0.86736941  1
  H+  H15  1  0.72891002  0.11189314  0.49232886  1
  H+  H16  1  0.36397034  0.48497509  0.34000358  1
  H+  H17  1  0.47284001  0.35952417  1.00372493  1
  H+  H18  1  0.58279122  0.67296509  0.07067237  1
  H+  H19  1  0.39296183  0.85282126  0.66928139  1
  H+  H20  1  0.60955952  0.62995573  0.82480742  1
  H+  H21  1  0.87264383  0.09901789  0.99018013  1
  H+  H22  1  0.93453778  0.32646939  0.26666343  1
  H+  H23  1  0.51737660  0.64114779  0.16020811  1
  H+  H24  1  0.27451846  0.85807657  0.65442664  1
  H+  H25  1  0.29215520  0.89530720  0.83177053  1
  H+  H26  1  0.93783154  0.32906275  1.00178287  1
  H+  H27  1  0.63840282  0.36625125  0.50413765  1
  H+  H28  1  0.36765431  0.97008299  0.01903666  1
  H+  H29  1  0.47136515  0.12039875  0.85619292  1
  H+  H30  1  0.38607050  0.62561549  0.17215164  1
  H+  H31  1  0.12701390  0.72629568  0.15854379  1
  H+  H32  1  -0.01427738  0.85603862  0.51327798  1
  H+  H33  1  0.44966214  0.12116945  0.33339339  1
  H+  H34  1  0.88961030  0.51591835  0.31643919  1
  H+  H35  1  0.23795644  0.62111647  0.47582291  1
  H+  H36  1  0.34915832  0.13326296  0.17273270  1
  H+  H37  1  0.13488061  0.10804621  1.00347574  1
  H+  H38  1  0.76469720  0.62746392  -0.00592041  1
  H+  H39  1  0.85262751  -0.03065516  0.80773896  1
  H+  H40  1  0.88578042  0.59840228  0.99124402  1
  H+  H41  1  0.22241955  0.60320932  0.16072259  1
  H+  H42  1  0.36967879  0.73297213  0.48696872  1
  H+  H43  1  0.11953002  0.46546309  0.16026062  1
  H+  H44  1  0.33738140  0.72944506  0.14383768  1
  H+  H45  1  0.62705143  0.03057534  0.30682917  1
  H+  H46  1  0.85712430  0.95075053  0.11631219  1
  H+  H47  1  0.45674393  0.61276280  0.66034626  1
  H+  H48  1  0.89800038  1.00172320  0.31918063  1
  H+  H49  1  0.65104187  0.97895642  0.78431409  1
  H+  H50  1  0.37740293  0.26756566  0.17443100  1
  H+  H51  1  0.22902951  0.85808289  0.32162944  1
  H+  H52  1  0.87362528  0.37883248  0.33045968  1
  H+  H53  1  0.64349347  0.76561436  -0.00384910  1
  H+  H54  1  0.77830402  0.88652076  0.01670956  1
  H+  H55  1  0.07467006  0.41229293  0.55006807  1
  H+  H56  1  0.28259778  0.40048826  0.83309325  1
  H+  H57  1  0.34631321  0.89581745  0.09730068  1
  H+  H58  1  0.46832975  0.69460452  0.03478432  1
  H+  H59  1  0.64345699  0.85710269  0.83510516  1
  H+  H60  1  0.14124528  0.76639291  0.31401483  1
  H+  H61  1  0.12761003  0.34659996  0.49631014  1
  H+  H62  1  0.35506310  0.75688681  0.85391899  1
  H+  H63  1  0.95744765  0.12452000  0.64775906  1
  H+  H64  1  0.26732924  0.37646817  0.48643562  1
  H+  H65  1  1.02591051  0.62997696  1.00516268  1
  H+  H66  1  0.60255612  0.48087784  0.16316522  1
  H+  H67  1  0.63816044  0.76650575  0.83707617  1
  H+  H68  1  0.07714178  0.41799827  0.92442990  1
  H+  H69  1  0.61989809  0.64545512  0.33245939  1
  H+  H70  1  0.87662022  1.01291197  -0.00291813  1
  H+  H71  1  0.36010553  -0.02555916  0.49200998  1
  H+  H72  1  0.11800575  0.00306045  0.32958082  1
  H+  H73  1  0.76173060  0.37794155  0.02024267  1
  H+  H74  1  0.37851370  0.51753449  0.66497916  1
  H+  H75  1  0.06979718  0.16575272  0.90077340  1
  H+  H76  1  0.38184014  0.12017058  0.85219399  1
  H+  H77  1  0.40634588  0.86634567  0.24382073  1
  H+  H78  1  0.63459100  0.27143776  0.31787115  1
  H+  H79  1  0.88724668  0.12317379  0.32686956  1
  H+  H80  1  0.07771717  0.87497094  0.52913609  1
  H+  H81  1  0.32239406  0.13344917  0.34087723  1
  H+  H82  1  0.72314691  0.10106411  0.01275977  1
  H+  H83  1  0.10495190  0.00759557  0.51854876  1
  H+  H84  1  0.60865129  0.85944583  0.65144832  1
  H+  H85  1  0.60546207  0.77492054  0.17438368  1
  H+  H86  1  0.59276319  0.38608031  0.16579571  1
  H+  H87  1  0.07949781  0.45436178  0.65050561  1
  H+  H88  1  0.44238840  0.86247809  0.15497005  1
  H+  H89  1  0.90003636  0.53729245  0.16728653  1
  H+  H90  1  0.55790717  0.91781587  0.81131425  1
  H+  H91  1  0.12082445  0.61308908  0.68423036  1
  H+  H92  1  0.84411482  0.68171419  -0.04727259  1
  H+  H93  1  0.57441930  0.12682799  0.33094162  1
  H+  H94  1  0.08865054  0.66641780  0.10007778  1
  H+  H95  1  0.48530881  0.94002387  0.27939267  1
  H+  H96  1  1.02224454  0.63023805  0.32633855  1
  H+  H97  1  0.01693549  0.11450943  0.15663497  1
  H+  H98  1  0.68679870  1.11018319  0.22966309  1
  H+  H99  1  0.18861167  0.10174978  0.32606664  1
  H+  H100  1  0.38218343  0.63320573  0.00168671  1
  H+  H101  1  0.34973217  0.42704538  0.75037739  1
  H+  H102  1  0.61582955  0.14201994  0.48145836  1
  H+  H103  1  0.80546976  0.13165893  0.31978940  1
  H+  H104  1  0.82550471  0.68978303  0.68828834  1
  H+  H105  1  0.14906960  0.86851891  0.84363576  1
  H+  H106  1  0.37009564  0.90869747  0.33336936  1
  H+  H107  1  0.65558254  0.87538793  0.32965016  1
  H+  H108  1  0.24952563  0.59351944  0.82625735  1
  H+  H109  1  0.36084377  0.23296574  0.68048362  1
  H+  H110  1  0.16108062  0.86701933  0.16732196  1
  H+  H111  1  0.50074797  0.39847319  0.34788579  1
  H+  H112  1  0.35856401  0.92715515  0.74035192  1
  H+  H113  1  0.63006597  0.53086012  0.32623908  1
  H+  H114  1  0.40530357  0.57988715  0.55842685  1
  H+  H115  1  0.05729827  0.44887888  0.02336513  1
  H+  H116  1  0.51383051  0.13629644  0.01911209  1
  H+  H117  1  0.98594138  0.62703994  0.16926086  1
  H+  H118  1  0.60737403  0.38379956  1.01735698  1
  H+  H119  1  0.12158155  0.64299979  0.00597646  1
  H+  H120  1  0.12470177  0.73307703  0.84242823  1
  H+  H121  1  0.37650782  0.85924142  0.50811281  1
  H+  H122  1  0.54176461  0.88968372  0.34221158  1
  H+  H123  1  0.80737151  0.40118744  0.17828561  1
  H+  H124  1  0.61241495  0.63730852  0.49001288  1
  H+  H125  1  0.96726827  0.53783608  0.62131525  1
  H+  H126  1  0.12944587  0.52280443  0.86263777  1
  H+  H127  1  0.05512277  0.69628903  0.69230323  1
  H+  H128  1  0.69622053  0.58319113  0.65907850  1
  H+  H129  1  -0.04275218  0.34412828  0.86332812  1
  H+  H130  1  0.12795595  0.25031665  0.17653934  1
  H+  H131  1  0.76892874  0.87901826  0.81108142  1
  H+  H132  1  0.26800735  0.12644927  0.50318710  1
  H+  H133  1  0.37440545  0.75519484  0.66473464  1
  H+  H134  1  0.14495689  0.61867885  0.84593431  1
  H+  H135  1  0.85139558  0.11775709  0.83914179  1
  H+  H136  1  0.15501201  0.74626375  0.67731964  1
  H+  H137  1  0.13482954  0.34352691  0.17500729  1
  H+  H138  1  0.40546522  0.36852826  0.67442850  1
  H+  H139  1  0.67091098  0.32610322  0.15896643  1
  H+  H140  1  0.37385501  0.09992049  1.01015393  1
  H+  H141  1  0.62224329  0.26161105  0.01547966  1
  H+  H142  1  0.38616158  0.61288469  0.49590607  1
  H+  H143  1  0.35441814  0.61092516  0.82521384  1
  H+  H144  1  0.25587483  0.35685137  0.16059539  1
  H+  H145  1  0.48606571  0.62227049  0.32519535  1
  H+  H146  1  0.55708876  0.86290619  0.16703980  1
  H+  H147  1  0.60553626  0.38685536  0.82980145  1
  H+  H148  1  1.07336692  0.15511260  1.06847519  1
  H+  H149  1  0.52525908  0.13887261  0.48690982  1
  H+  H150  1  0.69637745  0.66926946  0.66711312  1
  H+  H151  1  0.52111479  0.88709507  0.49677921  1
  H+  H152  1  0.22704880  0.11362523  0.66110184  1
  H+  H153  1  0.36458950  1.02945168  0.33647713  1
  H+  H154  1  0.09493071  0.23819071  0.67488916  1
  H+  H155  1  0.09864513  0.21029700  0.48378110  1
  H+  H156  1  0.60226524  0.63524384  0.01096824  1
  H+  H157  1  0.63266108  0.77021397  0.49451896  1
  H+  H158  1  0.57128797  0.62325017  0.64513665  1
  H+  H159  1  0.10534900  0.88102230  0.65652709  1
  H+  H160  1  0.63798364  0.87481605  0.01306587  1
  H+  H161  1  0.72179226  0.86170701  0.64579567  1
  H+  H162  1  -0.00491688  0.11290975  0.49134764  1
  H+  H163  1  0.85287704  0.37219659  0.82030852  1
  H+  H164  1  0.97939184  0.62284867  0.48330100  1
  H+  H165  1  0.73065636  0.35186717  0.31101412  1
  H+  H166  1  0.63181275  0.52302599  0.84213663  1
  H+  H167  1  0.64663782  0.78308897  0.32283254  1
  H+  H168  1  0.10803311  0.46749586  0.48971256  1
  H+  H169  1  1.00348614  0.95042743  0.70870755  1
  H+  H170  1  0.84313055  0.21128249  1.04052283  1
  H+  H171  1  0.65655235  0.11800489  0.57961738  1
  H+  H172  1  0.15191913  0.50628407  1.00392727  1
  H+  H173  1  0.09451348  1.02995586  0.71099238  1
  H+  H174  1  0.26565451  0.36837346  1.01119243  1
  H+  H175  1  0.87232836  0.87594328  0.33125701  1
  H+  H176  1  0.86414599  0.63117721  0.84202391  1
  H+  H177  1  0.61122811  0.47370673  0.63717194  1
  H+  H178  1  0.78384459  0.88217655  0.32743241  1
  H+  H179  1  0.22395492  0.38835069  0.62970126  1
  H+  H180  1  0.17416688  0.33614311  0.90596778  1
  H+  H181  1  0.63547229  0.33007080  0.76913640  1
  H+  H182  1  0.11102474  0.62815673  0.32571509  1
  H+  H183  1  0.84666925  0.43550470  0.65919847  1
  H+  H184  1  0.86864455  0.64687058  0.15602241  1
  H+  H185  1  0.36002000  0.37811541  0.01172738  1
  H+  H186  1  0.35492016  0.21551554  0.51261702  1
  H+  H187  1  0.38409133  0.36038429  0.51391699  1
  H+  H188  1  0.10912909  0.12247457  0.16045301  1
  H+  H189  1  0.85497844  0.90423024  0.65556331  1
  H+  H190  1  0.86416183  0.24197191  0.65091610  1
  H+  H191  1  0.61305712  0.13937819  0.84964291  1
  H+  H192  1  0.13396872  0.87165484  0.44149304  1
  H+  H193  1  0.12572714  0.26138875  1.00040887  1
  H+  H194  1  0.13645530  0.35608357  0.00005564  1
  H+  H195  1  0.90945970  0.57351321  0.64420921  1
  H+  H196  1  0.43667079  0.09366549  0.18261885  1
  H+  H197  1  -0.01821815  0.34374741  0.17101288  1
  H+  H198  1  0.14861114  0.06836319  0.23577942  1
  H+  H199  1  0.46848298  0.36038713  0.85135057  1
  H+  H200  1  1.04323304  0.88340018  0.16419493  1
  H+  H201  1  0.34999851  0.69270926  0.42088181  1
  H+  H202  1  0.03780566  0.38518755  0.33292849  1
  H+  H203  1  0.16963746  0.01741344  0.64189284  1
  H+  H204  1  0.26449171  0.14092620  0.16924755  1
  H+  H205  1  0.91927065  0.70777676  0.70427437  1
  H+  H206  1  0.38786884  0.10747477  0.51291178  1
  H+  H207  1  0.26471695  0.89340120  0.48276162  1
  H+  H208  1  0.63724913  0.27625534  0.49462813  1
  H+  H209  1  0.86437943  0.15011715  0.08070649  1
  H+  H210  1  0.12118744  0.87571649  0.33977590  1
  H+  H211  1  0.36000015  0.22046150  0.01852109  1
  H+  H212  1  0.03404365  0.88737159  0.85081549  1
  H+  H213  1  0.60938068  0.64529611  0.16258978  1
  H+  H214  1  0.72274381  0.61681490  0.16929540  1
  H+  H215  1  0.72275175  0.61096590  0.84746434  1
  H+  H216  1  0.35502561  0.14231650  0.68537398  1
  H+  H217  1  0.47406295  0.36342846  0.51760524  1
  H+  H218  1  0.33878708  0.61747791  0.67035878  1
  H+  H219  1  0.91179160  0.26785316  0.32549326  1
  H+  H220  1  0.46566324  0.36393389  0.17116682  1
  H+  H221  1  0.72658282  0.61147540  0.32007331  1
  H+  H222  1  0.37793365  0.27278360  0.85102951  1
  H+  H223  1  0.23025628  0.62433491  0.31580015  1
  H+  H224  1  0.13345079  0.60112923  0.16719355  1
  H+  H225  1  0.36719330  0.39451513  0.83857437  1
  H+  H226  1  0.75468915  0.11937497  0.84671192  1
  H+  H227  1  0.29242180  0.75530374  0.36401219  1
  H+  H228  1  0.84891235  0.21295914  0.84233525  1
  H+  H229  1  0.43249669  0.79302296  0.99079807  1
  H+  H230  1  0.66223853  0.23439941  0.62229250  1
  H+  H231  1  0.12658175  0.36213772  0.63239284  1
  H+  H232  1  0.12800097  0.47767298  0.32955607  1
  H+  H233  1  0.36830892  0.76545456  0.82108091  1
  H+  H234  1  0.44373739  0.92945434  0.84519674  1
  H+  H235  1  0.59208272  0.92307857  0.40381876  1
  H+  H236  1  0.36954069  0.99152955  0.83364888  1
  H+  H237  1  0.13975047  0.77314701  0.99590015  1
  H+  H238  1  0.60890960  0.02938685  0.86639376  1
  H+  H239  1  0.85712260  0.34222486  1.00746538  1
  H+  H240  1  0.32435282  0.22084837  0.33513782  1
  H+  H241  1  0.87224546  1.03198850  0.64305666  1
  H+  H242  1  0.10729458  0.12989726  0.85365328  1
  H+  H243  1  0.51940967  0.63056969  0.48800036  1
  H+  H244  1  0.22683895  0.11204953  1.00761359  1
  H+  H245  1  0.15358454  0.08111113  0.56533258  1
  H+  H246  1  0.74377924  0.34035723  0.65651137  1
  H+  H247  1  0.39983791  0.62603697  0.32661026  1
  H+  H248  1  0.86298155  0.47650996  0.47409026  1
  H+  H249  1  0.45795739  0.68773244  0.88377578  1
  H+  H250  1  0.37664334  0.36532846  0.32359018  1
  H+  H251  1  0.64825420  0.00725144  1.00133557  1
  H+  H252  1  0.25571120  0.64775149  0.99501509  1
  H+  H253  1  0.98461591  0.86843882  1.01652633  1
  H+  H254  1  0.27874527  0.86948796  0.16163092  1
  H+  H255  1  0.89329514  0.76727756  0.31989050  1
  H+  H256  1  0.38126808  0.88799966  1.01124842  1
  H+  H257  1  0.26617492  0.13664466  0.83979264  1
  H+  H258  1  0.85542019  0.46394360  0.01260033  1
  H+  H259  1  0.98157388  0.60777621  0.84344382  1
  H+  H260  1  0.86127026  0.21086853  0.47830273  1
  H+  H261  1  0.34019992  0.49820163  0.98641440  1
  H+  H262  1  0.12018396  0.88625157  1.00959222  1
  H+  H263  1  0.87058335  0.89655631  1.02510828  1
  H+  H264  1  0.23185306  0.85744086  1.00010635  1
  H+  H265  1  0.25064354  0.62145925  0.67761178  1
  H+  H266  1  0.50861636  0.88526554  1.00058964  1
  H+  H267  1  0.35413156  0.46894354  0.49129068  1
  H+  H268  1  0.13968930  0.28338699  0.84632413  1
  H+  H269  1  0.61008305  0.88553657  0.49451441  1
  H+  H270  1  0.47856786  0.12168009  0.66062409  1
  H+  H271  1  0.64563776  0.46580160  0.62437107  1
  H+  H272  1  0.87254532  0.65893628  0.47849646  1
  H+  H273  1  0.91971957  0.82408749  0.66813417  1
  H+  H274  1  0.88560573  0.10041440  0.49194227  1
  H+  H275  1  0.63194624  0.27003818  0.82170981  1
  H+  H276  1  0.11846129  0.65103046  0.47588134  1
  H+  H277  1  0.48621414  0.63605734  0.84065385  1
  H+  H278  1  0.77364877  0.38880373  0.48051353  1
  H+  H279  1  0.37023271  0.77391555  0.32444463  1
  H+  H280  1  0.76925258  0.38070445  0.81041205  1
  H+  H281  1  0.87476419  0.34851096  0.49006312  1
  H+  H282  1  0.89197571  0.78247974  0.01505747  1
  H+  H283  1  0.91532072  0.07788716  0.55685535  1
  H+  H284  1  0.51944496  0.32912508  0.68629761  1
  H+  H285  1  0.29009333  0.37532568  0.69542586  1
  H+  H286  1  1.03331935  0.86985908  0.35573957  1
  H+  H287  1  0.53501995  0.08868069  0.63009298  1
  H+  H288  1  0.63015866  0.51979806  0.99886616  1
  H+  H289  1  0.09750994  0.11831139  0.49132491  1
  H+  H290  1  0.08327763  0.67024545  0.41550742  1
  H+  H291  1  0.30623309  0.61842711  0.75917911  1
  H+  H292  1  0.56469178  0.16026905  0.08120042  1
  H+  H293  1  0.33226952  0.91602821  0.39961438  1
  H+  H294  1  0.91634115  0.88416722  0.17713874  1
  H+  H295  1  0.43334457  0.07515252  0.56087087  1
  H+  H296  1  0.53857825  0.88921792  0.10143805  1
  H+  H297  1  0.07663521  0.93842459  0.79030408  1
  H+  H298  1  0.56649500  0.40769986  0.77537638  1
  H+  H299  1  0.91695932  0.56518508  0.93577841  1
  H+  H300  1  0.32429347  0.16995079  0.77950420  1
  H+  H301  1  0.65387289  0.57720533  0.93811929  1
  H+  H302  1  0.42064337  0.33356118  0.61101236  1
  H+  H303  1  0.89303498  0.51807421  0.83481542  1
  H+  H304  1  0.83550726  0.67460830  0.09854359  1
  H+  H305  1  0.81476022  0.38843388  0.72701207  1
  H+  H306  1  0.58761157  0.67111639  0.39305918  1
  H+  H307  1  0.13848064  1.02182573  0.85458044  1
  H+  H308  1  0.83109265  0.20632057  0.19559718  1
  H+  H309  1  0.04390318  0.07955280  0.31236841  1
  H+  H310  1  -0.03705262  0.34878312  0.49807385  1
  H+  H311  1  0.66525242  0.58747801  0.22936131  1
  H+  H312  1  0.67649847  0.82631430  0.93536655  1
  H+  H313  1  0.65620499  0.32053165  0.95505137  1
  H+  H314  1  0.18720789  0.83372693  0.22696229  1
  H+  H315  1  0.32761798  0.16375467  0.07952458  1
  H+  H316  1  0.72454194  0.85647745  0.49225901  1
  H+  H317  1  0.41136539  0.32764763  0.94512440  1
  H+  H318  1  0.57120001  0.17021370  0.39321913  1
  H+  H319  1  0.10062819  0.91463058  0.10419197  1
  H+  H320  1  0.77186220  0.13691968  0.14942935  1
  H+  H321  1  0.10096654  0.68051290  0.78185999  1
  H+  H322  1  0.40953597  0.33447473  0.26702335  1
  H+  H323  1  0.10550918  0.38715953  0.86648260  1
  H+  H324  1  0.13620670  0.58970743  0.62011288  1
  H+  H325  1  0.31956359  0.39541853  0.09718571  1
  H+  H326  1  0.83190031  0.90228002  0.41969029  1
  H+  H327  1  0.41671562  0.59329612  0.22867905  1
  H+  H328  1  0.13737258  0.37825386  0.32600933  1
  H+  H329  1  0.91852005  0.58279850  0.26023089  1
  H+  H330  1  0.58000630  0.65791618  0.76365456  1
  H+  H331  1  -0.00173154  0.35896414  0.63494843  1
  H+  H332  1  0.50731942  0.85310705  0.66073386  1
  H+  H333  1  0.57477752  0.14116812  0.78614442  1
  H+  H334  1  0.35605957  0.36371132  0.16140579  1
  H+  H335  1  0.69432545  0.61773151  0.56304924  1
  H+  H336  1  0.93000960  0.84017265  0.92413594  1
  H+  H337  1  0.33178637  0.42019033  0.39795321  1
  H+  H338  1  0.66761129  0.12794379  0.65383130  1
  H+  H339  1  0.23388212  0.37092129  0.32554072  1
  H+  H340  1  0.52125811  0.47855768  0.38685164  1
  H+  H341  1  0.57229994  0.12389070  0.18409723  1
  H+  H342  1  0.06412671  0.16137904  0.72047966  1
  H+  H343  1  0.18791382  0.59669348  0.53591752  1
  H+  H344  1  0.65759180  0.93165499  0.07193408  1
  H+  H345  1  0.60857529  0.72439926  0.65659167  1
  H+  H346  1  0.12584953  0.78957299  0.47440601  1
  H+  H347  1  0.20592225  0.83466061  0.60130430  1
  H+  H348  1  0.37077382  0.55706886  0.92723353  1
  H+  H349  1  0.19665808  0.60927162  0.93609886  1
  H+  H350  1  0.15930801  0.31299072  0.55012731  1
  H+  H351  1  1.01291841  0.12570696  1.00873456  1
  H+  H352  1  0.67595612  0.31747589  0.58277626  1
  H+  H353  1  0.91470733  0.58171463  0.53880404  1
  H+  H354  1  0.59926933  0.31656222  0.67199391  1
  H+  H355  1  0.81444946  0.92018778  0.71533505  1
  H+  H356  1  0.66743384  0.08303799  0.92171293  1
  H+  H357  1  0.17031391  0.08276633  0.91320425  1
  H+  H358  1  0.64800371  0.32283902  0.23155270  1
  H+  H359  1  0.83273064  0.66447400  0.38503818  1
  H+  H360  1  0.87950240  0.30706979  0.90888595  1
  H+  H361  1  0.83888562  0.14893997  0.42095679  1
  H+  H362  1  0.16823173  0.32625000  0.26706502  1
  H+  H363  1  0.17274808  0.57899035  0.25698302  1
  H+  H364  1  0.85357044  0.80213034  0.46766034  1
  H+  H365  1  0.18024854  0.84070779  0.90288218  1
  H+  H366  1  0.97191420  0.88300812  0.61138556  1
  H+  H367  1  0.66309713  0.82641957  0.58362193  1
  H+  H368  1  0.63955472  0.83931213  0.23072594  1
  H+  H369  1  0.83931658  0.41501978  0.10871771  1
  H+  H370  1  0.84680284  0.68633696  0.79363740  1
  H+  H371  1  0.47952075  0.89849039  0.89997642  1
  H+  H372  1  0.35060632  0.67461917  0.09273577  1
  H+  H373  1  0.83620606  0.40858415  0.38475423  1
  H+  H374  1  0.38193111  0.07796307  0.24294647  1
  H+  H375  1  0.10176942  0.40902712  0.10149003  1
  H+  H376  1  0.91459154  0.04528853  0.21994941  1
  H+  H377  1  0.40478456  0.82432784  0.56625359  1
  H+  H378  1  0.89737146  0.06392037  0.89739022  1
  H+  H379  1  0.93570373  0.83672314  0.26721958  1
  H+  H380  1  0.57558463  0.41920868  0.07252190  1
  H+  H381  1  0.90255905  0.35929747  0.17502246  1
  H+  H382  1  0.58320823  0.89695697  0.71578366  1
  H+  H383  1  0.86135763  0.62716383  0.32891903  1
  O2-  O384  1  0.07832510  0.15282936  0.14438533  1
  O2-  O385  1  0.06546046  0.14708021  0.47378364  1
  O2-  O386  1  0.07422736  0.16180900  0.85676434  1
  O2-  O387  1  0.09321453  0.40421255  0.14568331  1
  O2-  O388  1  0.07647230  0.40780591  0.50473504  1
  O2-  O389  1  0.07109070  0.41473585  0.87974972  1
  O2-  O390  1  0.09014888  0.66528382  0.14553052  1
  O2-  O391  1  0.08412596  0.67655786  0.46115726  1
  O2-  O392  1  0.09521545  0.67187571  0.82657346  1
  O2-  O393  1  0.10415272  0.91305430  0.14973805  1
  O2-  O394  1  0.03555527  0.89337045  0.53930542  1
  O2-  O395  1  0.09148678  0.92056724  0.82965979  1
  O2-  O396  1  0.32563726  0.17096186  0.15501931  1
  O2-  O397  1  0.33081384  0.15348339  0.50562804  1
  O2-  O398  1  0.32739191  0.16948936  0.82451821  1
  O2-  O399  1  0.31719091  0.38956319  0.14400254  1
  O2-  O400  1  0.32960170  0.40930712  0.47540289  1
  O2-  O401  1  0.34337017  0.42887515  0.81984040  1
  O2-  O402  1  0.32328989  0.67032124  0.13292271  1
  O2-  O403  1  0.34578081  0.67678346  0.46436652  1
  O2-  O404  1  0.29770556  0.59115197  0.80157832  1
  O2-  O405  1  0.34473483  0.89430752  0.14627959  1
  O2-  O406  1  0.32704824  0.91311438  0.47769061  1
  O2-  O407  1  0.35220631  0.93295536  0.81708178  1
  O2-  O408  1  0.54236131  0.14575248  0.15786582  1
  O2-  O409  1  0.58494160  0.17343672  0.47023590  1
  O2-  O410  1  0.57950296  0.16243826  0.82763820  1
  O2-  O411  1  0.56706632  0.41991890  0.14871902  1
  O2-  O412  1  0.58391165  0.42097265  0.48951716  1
  O2-  O413  1  0.57278214  0.41657969  0.81954810  1
  O2-  O414  1  0.57923319  0.67462955  0.14608408  1
  O2-  O415  1  0.57939161  0.66317229  0.47225617  1
  O2-  O416  1  0.57973172  0.66072628  0.80838279  1
  O2-  O417  1  0.52399830  0.88868480  0.14452690  1
  O2-  O418  1  0.58117933  0.91814832  0.48148814  1
  O2-  O419  1  0.60531015  0.91877928  0.78571777  1
  O2-  O420  1  0.78307799  0.14655603  0.19313189  1
  O2-  O421  1  0.83375363  0.14896042  0.46606287  1
  O2-  O422  1  0.81634065  0.14933697  0.83062884  1
  O2-  O423  1  0.85836839  0.42538497  0.15257622  1
  O2-  O424  1  0.83331138  0.41443175  0.46419672  1
  O2-  O425  1  0.83183346  0.40747110  0.79993656  1
  O2-  O426  1  0.83681490  0.67682229  0.14292813  1
  O2-  O427  1  0.83605104  0.68386843  0.46401828  1
  O2-  O428  1  0.83452608  0.66510628  0.83613685  1
  O2-  O429  1  0.87371780  0.95401943  0.15989364  1
  O2-  O430  1  0.82592704  0.89403650  0.46517013  1
  O2-  O431  1  0.82129462  0.91379577  0.78662851  1
  O2-  O432  1  0.15897883  0.07641205  0.19044420  1
  O2-  O433  1  0.14361664  0.07086305  0.52074528  1
  O2-  O434  1  0.16704642  0.08406857  0.86765293  1
  O2-  O435  1  0.16306304  0.31178527  0.19127042  1
  O2-  O436  1  0.15740097  0.31322947  0.50475734  1
  O2-  O437  1  0.17027063  0.34344510  0.86123113  1
  O2-  O438  1  0.16421455  0.57004398  0.17989261  1
  O2-  O439  1  0.17751882  0.59186140  0.49226496  1
  O2-  O440  1  0.17355426  0.58571430  0.86127599  1
  O2-  O441  1  0.19165247  0.83518807  0.18081351  1
  O2-  O442  1  0.15039376  0.85270305  0.47924990  1
  O2-  O443  1  0.18026382  0.83818485  0.85748908  1
  O2-  O444  1  0.37711949  0.07158594  0.19775029  1
  O2-  O445  1  0.42270288  0.07745878  0.51697866  1
  O2-  O446  1  0.41004500  0.08817004  0.86842865  1
  O2-  O447  1  0.40457938  0.33117207  0.18652519  1
  O2-  O448  1  0.41436920  0.33326271  0.53382215  1
  O2-  O449  1  0.40893897  0.33280593  0.86759704  1
  O2-  O450  1  0.41753897  0.59597087  0.18389518  1
  O2-  O451  1  0.41067326  0.57866369  0.51370061  1
  O2-  O452  1  0.43518776  0.63306045  0.86239700  1
  O2-  O453  1  0.37246213  0.83542066  0.16974535  1
  O2-  O454  1  0.40821479  0.82929130  0.52127358  1
  O2-  O455  1  0.49647067  0.93086531  0.86118900  1
  O2-  O456  1  0.63226626  0.11002279  0.24111395  1
  O2-  O457  1  0.66940009  0.09036734  0.50814874  1
  O2-  O458  1  0.66014276  0.08584056  0.87489343  1
  O2-  O459  1  0.62504928  0.31631763  0.18695593  1
  O2-  O460  1  0.67069346  0.33538477  0.51310642  1
  O2-  O461  1  0.65966506  0.33224442  0.81005529  1
  O2-  O462  1  0.66242431  0.58664867  0.18380672  1
  O2-  O463  1  0.67927699  0.60144596  0.52017575  1
  O2-  O464  1  0.66029353  0.58331475  0.85752374  1
  O2-  O465  1  0.61645258  0.83210048  0.18887494  1
  O2-  O466  1  0.66499896  0.83050586  0.51011175  1
  O2-  O467  1  0.66896855  0.82555180  0.85454072  1
  O2-  O468  1  0.91146879  0.04602315  0.17413483  1
  O2-  O469  1  0.91767962  0.07208787  0.50903518  1
  O2-  O470  1  0.89965499  0.07335287  0.85228229  1
  O2-  O471  1  0.92392864  0.32099535  0.18933752  1
  O2-  O472  1  0.89985243  0.31312457  0.50431036  1
  O2-  O473  1  0.89316922  0.31029035  0.86473470  1
  O2-  O474  1  0.92396278  0.59726666  0.18175805  1
  O2-  O475  1  0.91688332  0.59341205  0.49501753  1
  O2-  O476  1  0.92007008  0.57432676  0.85610584  1
  O2-  O477  1  0.93785670  0.84445699  0.18740429  1
  O2-  O478  1  0.89191484  0.77725907  0.47238636  1
  O2-  O479  1  0.93684604  0.83658286  0.87977775  1
  O2-  O480  1  0.12952652  0.05763744  0.31024423  1
  O2-  O481  1  0.17027612  0.07210871  0.64287817  1
  O2-  O482  1  0.16708018  0.07929035  0.99001685  1
  O2-  O483  1  0.17164223  0.33927648  0.31186750  1
  O2-  O484  1  0.16667677  0.33791640  0.62847331  1
  O2-  O485  1  0.16153249  0.32205435  0.98482905  1
  O2-  O486  1  0.17195164  0.58082050  0.30272598  1
  O2-  O487  1  0.13962611  0.57599890  0.66262096  1
  O2-  O488  1  0.19652709  0.61023487  0.98188393  1
  O2-  O489  1  0.17237127  0.82751556  0.30000499  1
  O2-  O490  1  0.22494332  0.80952083  0.63267528  1
  O2-  O491  1  0.17381054  0.83430121  0.98232465  1
  O2-  O492  1  0.38808921  0.08882762  0.32097529  1
  O2-  O493  1  0.47312699  0.07242799  0.63824445  1
  O2-  O494  1  0.40313341  0.06886042  0.99419789  1
  O2-  O495  1  0.40838436  0.33508836  0.31224616  1
  O2-  O496  1  0.42421561  0.32982709  0.65655882  1
  O2-  O497  1  0.41105916  0.32700469  0.99076693  1
  O2-  O498  1  0.42313495  0.59010819  0.31338168  1
  O2-  O499  1  0.39766474  0.57491794  0.64542925  1
  O2-  O500  1  0.33584854  0.54414080  0.96431333  1
  O2-  O501  1  0.43225404  0.88382339  0.28539951  1
  O2-  O502  1  0.41141193  0.81445762  0.64862031  1
  O2-  O503  1  0.45186975  0.85416768  0.98106265  1
  O2-  O504  1  0.58536106  0.04419986  0.28758648  1
  O2-  O505  1  0.71092605  0.13164061  0.72122652  1
  O2-  O506  1  0.67160748  0.06750885  0.98788062  1
  O2-  O507  1  0.67042072  0.32778574  0.29731460  1
  O2-  O508  1  0.67482561  0.29634853  0.62644446  1
  O2-  O509  1  0.65860207  0.32514724  0.99925662  1
  O2-  O510  1  0.66531823  0.58781792  0.30664446  1
  O2-  O511  1  0.72875193  0.64441403  0.64840562  1
  O2-  O512  1  0.66026486  0.58042255  0.98326614  1
  O2-  O513  1  0.67988836  0.84350314  0.30812212  1
  O2-  O514  1  0.65928730  0.82359765  0.62991499  1
  O2-  O515  1  0.67914052  0.82725564  0.98066804  1
  O2-  O516  1  0.92559122  0.06027246  0.29659047  1
  O2-  O517  1  0.90682441  0.08763992  0.62186456  1
  O2-  O518  1  0.90471489  0.07150172  0.97586837  1
  O2-  O519  1  0.93736608  0.32888291  0.31219148  1
  O2-  O520  1  0.89926729  0.29736408  0.63010278  1
  O2-  O521  1  0.87686280  0.30147833  0.99202218  1
  O2-  O522  1  0.91807595  0.57842846  0.30559080  1
  O2-  O523  1  0.90941647  0.52949753  0.61821299  1
  O2-  O524  1  0.91636084  0.56660397  0.98129096  1
  O2-  O525  1  0.92876939  0.83025493  0.31225863  1
  O2-  O526  1  0.93769564  0.87939682  0.64769053  1
  O2-  O527  1  0.92236162  0.84419165  1.00544810  1
  O2-  O528  1  0.07371688  0.15818349  0.02249751  1
  O2-  O529  1  0.01325851  0.11240241  0.32016311  1
  O2-  O530  1  0.04395248  0.19232088  0.69531535  1
  O2-  O531  1  0.10736874  0.44438659  0.01175134  1
  O2-  O532  1  0.10087700  0.41706573  0.34474565  1
  O2-  O533  1  0.06247892  0.40095249  0.62808212  1
  O2-  O534  1  0.08551474  0.66666821  0.02093928  1
  O2-  O535  1  0.08394931  0.66166481  0.34016120  1
  O2-  O536  1  0.10813100  0.69716357  0.70299583  1
  O2-  O537  1  0.09034462  0.91478584  0.02836172  1
  O2-  O538  1  0.09447987  0.89858124  0.36834233  1
  O2-  O539  1  0.04741685  0.99034276  0.73775011  1
  O2-  O540  1  0.32784231  0.16002745  0.03366990  1
  O2-  O541  1  0.28736695  0.16110442  0.34856319  1
  O2-  O542  1  0.32461854  0.17227155  0.69705240  1
  O2-  O543  1  0.32529038  0.40458803  0.02708999  1
  O2-  O544  1  0.33111186  0.42328818  0.35232785  1
  O2-  O545  1  0.34847073  0.42208182  0.70304132  1
  O2-  O546  1  0.41282379  0.68985955  0.02483535  1
  O2-  O547  1  0.32420395  0.72794044  0.34911553  1
  O2-  O548  1  0.31164720  0.64801859  0.69123198  1
  O2-  O549  1  0.34457691  0.90780205  0.03171032  1
  O2-  O550  1  0.32614891  0.91765577  0.35439832  1
  O2-  O551  1  0.36384649  0.92112823  0.69525003  1
  O2-  O552  1  0.57228847  0.17079374  0.03650075  1
  O2-  O553  1  0.56101719  0.16929506  0.34837873  1
  O2-  O554  1  0.63827576  0.13603867  0.61745738  1
  O2-  O555  1  0.57778026  0.41681037  0.02688665  1
  O2-  O556  1  0.54820537  0.44613966  0.37277987  1
  O2-  O557  1  0.56806256  0.32626052  0.70513827  1
  O2-  O558  1  0.58031573  0.67323305  0.02483963  1
  O2-  O559  1  0.58784964  0.67422089  0.34770015  1
  O2-  O560  1  0.57920498  0.66533304  0.67632950  1
  O2-  O561  1  0.61738016  0.90976541  0.03777869  1
  O2-  O562  1  0.59968975  0.92454145  0.35851634  1
  O2-  O563  1  0.57255164  0.88625211  0.67011571  1
  O2-  O564  1  0.81869091  0.15288545  0.05868436  1
  O2-  O565  1  0.85954205  0.15632652  0.34202433  1
  O2-  O566  1  0.78419732  0.14665751  0.70034306  1
  O2-  O567  1  0.82418378  0.40599199  0.03252398  1
  O2-  O568  1  0.84095626  0.40875214  0.33946042  1
  O2-  O569  1  0.80785956  0.38143407  0.68116853  1
  O2-  O570  1  0.83019397  0.65966083  -0.00562656  1
  O2-  O571  1  0.83082262  0.65907647  0.33999956  1
  O2-  O572  1  0.87686325  0.72440806  0.71443656  1
  O2-  O573  1  0.83635041  0.92537743  0.03433241  1
  O2-  O574  1  0.84373935  0.90959761  0.34457651  1
  O2-  O575  1  0.81273492  0.92139622  0.66879966  1
