# generated using pymatgen
data_H2O
_symmetry_space_group_name_H-M   'P 1'
_cell_length_a   17.98729293
_cell_length_b   17.98825390
_cell_length_c   21.99998645
_cell_angle_alpha   89.98251655
_cell_angle_beta   89.99313434
_cell_angle_gamma   119.97304964
_symmetry_Int_Tables_number   1
_chemical_formula_structural   H2O
_chemical_formula_sum   'H384 O192'
_cell_volume   6166.31486216
_cell_formula_units_Z   192
loop_
 _symmetry_equiv_pos_site_id
 _symmetry_equiv_pos_as_xyz
  1  'x, y, z'
loop_
 _atom_type_symbol
 _atom_type_oxidation_number
  H+  1.0
  O2-  -2.0
loop_
 _atom_site_type_symbol
 _atom_site_label
 _atom_site_symmetry_multiplicity
 _atom_site_fract_x
 _atom_site_fract_y
 _atom_site_fract_z
 _atom_site_occupancy
  H+  H0  1  0.38003711  0.65113197  0.35828664  1
  H+  H1  1  0.28371857  0.65578363  0.81966045  1
  H+  H2  1  0.53826112  0.39517273  0.83265215  1
  H+  H3  1  0.82434758  0.90520630  0.09185691  1
  H+  H4  1  0.12060273  0.38881462  0.49844405  1
  H+  H5  1  0.13543540  0.51218024  0.32322641  1
  H+  H6  1  0.89259060  0.26719497  0.33630852  1
  H+  H7  1  0.22226826  0.60377585  0.99057739  1
  H+  H8  1  0.39733731  0.37186167  0.84162630  1
  H+  H9  1  0.47718187  0.60225640  0.53019614  1
  H+  H10  1  0.16045505  0.57462092  0.22657011  1
  H+  H11  1  0.11607151  0.23098439  0.82694443  1
  H+  H12  1  0.62118106  0.89122480  0.35430740  1
  H+  H13  1  0.72617806  0.60524567  0.15511259  1
  H+  H14  1  0.60338003  0.88344634  0.67243598  1
  H+  H15  1  0.93067949  0.85189893  0.71393225  1
  H+  H16  1  0.37166803  -0.01484776  0.51257245  1
  H+  H17  1  0.27538780  0.14199571  0.49545772  1
  H+  H18  1  0.45946566  0.61212412  0.17939597  1
  H+  H19  1  0.77077920  0.12699132  0.83069318  1
  H+  H20  1  0.97608794  0.10819625  0.99589817  1
  H+  H21  1  -0.13074345  0.85384950  0.51052851  1
  H+  H22  1  -0.01224964  0.61433993  0.49174025  1
  H+  H23  1  0.35825260  0.14676675  0.82575224  1
  H+  H24  1  0.59953572  0.42415109  0.77489863  1
  H+  H25  1  0.22981068  0.58295751  0.30867464  1
  H+  H26  1  0.76278406  0.87488658  0.16193460  1
  H+  H27  1  0.88140983  0.38847787  0.83782372  1
  H+  H28  1  0.46295499  0.09857820  0.31701922  1
  H+  H29  1  0.88976993  0.86201214  0.83889543  1
  H+  H30  1  0.51004022  0.37645403  0.14457540  1
  H+  H31  1  0.78096680  0.38542211  0.33378469  1
  H+  H32  1  0.74990855  0.62221663  0.34866034  1
  H+  H33  1  0.52725231  0.89305775  0.82662177  1
  H+  H34  1  0.15817742  0.86693012  0.51481186  1
  H+  H35  1  0.02172247  0.38946133  0.83030834  1
  H+  H36  1  0.02657352  0.22075468  0.37739180  1
  H+  H37  1  0.12414491  0.90451145  -0.00727735  1
  H+  H38  1  0.11643811  0.97629257  0.82429524  1
  H+  H39  1  0.57594579  0.15661874  0.09728339  1
  H+  H40  1  0.08763818  0.41482062  0.40197145  1
  H+  H41  1  0.83849634  0.41229074  0.39445745  1
  H+  H42  1  0.03215664  0.89962039  -0.00470464  1
  H+  H43  1  0.12594320  0.75605032  0.17421615  1
  H+  H44  1  0.12536581  0.14673379  0.00240295  1
  H+  H45  1  0.15574584  0.12898492  0.16840902  1
  H+  H46  1  0.53986795  0.63033257  0.35108392  1
  H+  H47  1  0.86648333  0.72489735  0.83065708  1
  H+  H48  1  0.63979468  1.02350339  -0.00329752  1
  H+  H49  1  0.48032656  0.36867490  0.50062244  1
  H+  H50  1  0.07560359  0.19712433  0.50810828  1
  H+  H51  1  0.25889461  0.69826180  0.39302355  1
  H+  H52  1  0.10987981  0.46816814  1.00327735  1
  H+  H53  1  -0.01923573  0.86399177  0.83876732  1
  H+  H54  1  0.49604967  0.55458898  0.27650210  1
  H+  H55  1  0.35597377  0.71866000  0.14064803  1
  H+  H56  1  0.60994724  0.75986385  0.67136094  1
  H+  H57  1  0.75058980  0.86779421  0.67835589  1
  H+  H58  1  0.60961406  0.22487854  0.00521696  1
  H+  H59  1  0.60592146  0.87498689  0.82366402  1
  H+  H60  1  0.39561718  0.88946234  0.83765269  1
  H+  H61  1  0.62558968  0.39084136  0.34629467  1
  H+  H62  1  0.89786561  0.52725894  0.67099029  1
  H+  H63  1  0.37895265  0.36429633  0.31198815  1
  H+  H64  1  0.49345240  0.90329686  0.63658528  1
  H+  H65  1  0.60267052  0.11913381  0.85505014  1
  H+  H66  1  0.13089120  0.59739178  0.99541000  1
  H+  H67  1  0.61523084  0.63359860  0.51066294  1
  H+  H68  1  0.74537925  0.20517586  0.27674730  1
  H+  H69  1  0.37262378  0.52154210  0.17486963  1
  H+  H70  1  0.61870702  0.26020243  0.16769511  1
  H+  H71  1  -0.02805901  0.35527414  -0.01166521  1
  H+  H72  1  0.89482680  0.85502050  0.32120332  1
  H+  H73  1  0.62755793  0.47883810  0.35624834  1
  H+  H74  1  0.34930412  0.92637855  0.42434275  1
  H+  H75  1  0.98472748  0.85816654  0.32166689  1
  H+  H76  1  0.14014490  0.52107271  0.65533933  1
  H+  H77  1  0.89709055  0.02278281  0.16672946  1
  H+  H78  1  0.37852658  0.27546713  0.31614290  1
  H+  H79  1  0.27416365  0.39262833  0.82028063  1
  H+  H80  1  0.62492833  0.98161506  0.50769273  1
  H+  H81  1  0.16784724  0.08725702  0.89247603  1
  H+  H82  1  0.40398297  0.32614130  0.21451295  1
  H+  H83  1  0.91607618  0.07664664  0.90192970  1
  H+  H84  1  0.14880945  0.03853358  0.16580972  1
  H+  H85  1  0.89493992  0.36372293  0.66564774  1
  H+  H86  1  0.66667150  0.00232376  0.84780334  1
  H+  H87  1  0.40424227  0.88388729  0.53335758  1
  H+  H88  1  0.15869259  0.87342482  0.67023233  1
  H+  H89  1  0.87514199  -0.02479025  0.33181538  1
  H+  H90  1  0.23866463  0.12476606  0.65910871  1
  H+  H91  1  0.73320929  0.11663925  0.51172714  1
  H+  H92  1  0.27746193  0.39630164  0.33632660  1
  H+  H93  1  0.09380474  0.71337197  0.80731054  1
  H+  H94  1  0.15517295  0.77687117  0.51482642  1
  H+  H95  1  0.90691579  0.55123556  0.15457255  1
  H+  H96  1  0.85287411  0.62918348  0.83374767  1
  H+  H97  1  0.89195482  0.76618645  0.67667079  1
  H+  H98  1  0.13327639  0.11295762  0.83381526  1
  H+  H99  1  0.87117310  0.61441525  1.00167674  1
  H+  H100  1  0.26716653  0.89584295  0.81827376  1
  H+  H101  1  0.97749893  0.34831308  0.17454087  1
  H+  H102  1  0.78219596  0.38250240  0.83285507  1
  H+  H103  1  0.38311284  0.51175660  0.83668825  1
  H+  H104  1  0.87665238  0.63116047  0.33901362  1
  H+  H105  1  0.86354089  0.72507237  0.49859668  1
  H+  H106  1  0.14334347  0.28104201  0.32661494  1
  H+  H107  1  0.49827391  0.88453998  0.35843962  1
  H+  H108  1  0.14155944  0.11013736  0.31811880  1
  H+  H109  1  0.85950020  0.96873998  0.82794923  1
  H+  H110  1  0.12650971  0.85415734  0.32437577  1
  H+  H111  1  0.37724640  0.39416973  0.48373664  1
  H+  H112  1  0.14782329  0.60930492  0.83826655  1
  H+  H113  1  0.89534832  0.36384804  0.50511151  1
  H+  H114  1  0.84145856  0.87086399  0.67450301  1
  H+  H115  1  0.38271755  0.03503507  0.83290334  1
  H+  H116  1  0.36040912  0.39509358  0.15076107  1
  H+  H117  1  0.15915944  0.29421662  0.66600027  1
  H+  H118  1  0.12450031  0.75529931  0.32364764  1
  H+  H119  1  0.61343639  0.14599623  0.29963178  1
  H+  H120  1  0.04351703  0.89214555  0.66995689  1
  H+  H121  1  0.26940371  0.14616234  0.82468772  1
  H+  H122  1  0.95188162  0.59390715  0.86434803  1
  H+  H123  1  0.89040798  0.35607704  0.33043122  1
  H+  H124  1  0.10717115  0.47130798  0.15552606  1
  H+  H125  1  0.27132687  0.39203296  0.15638291  1
  H+  H126  1  0.86670893  1.00639922  0.65779309  1
  H+  H127  1  0.88440098  0.40573476  1.00700159  1
  H+  H128  1  0.63920045  0.10589299  0.16173289  1
  H+  H129  1  0.51572125  0.11732551  0.15642047  1
  H+  H130  1  0.36143555  0.75322323  0.82277136  1
  H+  H131  1  0.27333437  0.89553946  0.99883947  1
  H+  H132  1  0.27807124  0.13627918  0.33993773  1
  H+  H133  1  0.14686176  0.51989142  0.50555374  1
  H+  H134  1  0.47353270  0.11526470  0.53048862  1
  H+  H135  1  0.10322776  0.92339953  0.39282566  1
  H+  H136  1  1.02414428  0.38079064  0.34388185  1
  H+  H137  1  0.13665232  0.36628401  0.83605539  1
  H+  H138  1  0.15142146  0.03677902  0.98771001  1
  H+  H139  1  0.67872081  0.08399729  0.57392073  1
  H+  H140  1  0.41103865  0.79322847  0.36881648  1
  H+  H141  1  0.28591445  0.40785396  0.66826583  1
  H+  H142  1  0.86303031  0.13164672  0.49953653  1
  H+  H143  1  0.53264995  0.88319249  0.14801023  1
  H+  H144  1  0.49767377  0.60668638  0.68852020  1
  H+  H145  1  0.60348160  0.63093831  0.15186600  1
  H+  H146  1  0.09693061  0.92386675  0.73116272  1
  H+  H147  1  0.12061445  0.88914597  0.82195947  1
  H+  H148  1  0.88344016  0.51624574  1.00619086  1
  H+  H149  1  0.58336264  0.16767859  0.58442009  1
  H+  H150  1  0.15095066  0.38097965  0.66719670  1
  H+  H151  1  0.87932059  0.72174356  0.33889487  1
  H+  H152  1  0.78367494  0.38537118  0.49163407  1
  H+  H153  1  0.65289524  0.61516601  0.66999534  1
  H+  H154  1  0.13220051  0.35983940  0.16813960  1
  H+  H155  1  0.34618045  1.02640282  0.01713414  1
  H+  H156  1  0.35442765  0.63207356  -0.00295090  1
  H+  H157  1  0.67536772  0.58466534  0.57205557  1
  H+  H158  1  0.26977800  0.87461640  0.16143115  1
  H+  H159  1  0.04169503  0.65652214  0.01276402  1
  H+  H160  1  0.61237937  0.10840871  0.82414513  1
  H+  H161  1  0.33771605  0.52673144  0.32327736  1
  H+  H162  1  0.12918175  0.10494866  0.50996272  1
  H+  H163  1  0.65224946  0.36919819  0.66907409  1
  H+  H164  1  0.18954925  0.30007349  0.52552097  1
  H+  H165  1  0.88353043  0.92904975  0.39003709  1
  H+  H166  1  0.86525598  0.13132432  0.15313290  1
  H+  H167  1  0.40839898  0.56782689  0.90344611  1
  H+  H168  1  0.87152995  0.22575746  0.67160557  1
  H+  H169  1  0.52113994  0.53144103  0.27879720  1
  H+  H170  1  0.60766837  0.72048734  0.16073719  1
  H+  H171  1  0.13693513  0.16228403  0.67111800  1
  H+  H172  1  0.61410230  0.13684557  0.52792405  1
  H+  H173  1  0.64501489  0.86392148  0.17575774  1
  H+  H174  1  0.16489482  0.33310507  0.22779481  1
  H+  H175  1  0.28738096  0.89029494  0.51133323  1
  H+  H176  1  0.36431524  0.61134221  0.52128782  1
  H+  H177  1  0.62972562  0.76394017  0.84439218  1
  H+  H178  1  0.39219374  0.28174785  0.83933771  1
  H+  H179  1  0.19529188  0.79591945  0.84913101  1
  H+  H180  1  0.62167289  0.76332438  0.52025459  1
  H+  H181  1  0.14618339  0.61333659  0.64744117  1
  H+  H182  1  0.60317412  0.13189407  1.00549958  1
  H+  H183  1  0.89644900  0.27568269  0.50909779  1
  H+  H184  1  0.15001977  0.03565702  0.65989119  1
  H+  H185  1  0.03013191  0.38732239  0.49782584  1
  H+  H186  1  0.47769477  0.11476712  0.66586260  1
  H+  H187  1  0.60550413  0.62996062  0.83210285  1
  H+  H188  1  1.02684150  0.14190864  0.82523222  1
  H+  H189  1  0.86503677  0.00629487  0.50926184  1
  H+  H190  1  0.86760874  0.22079872  0.15926263  1
  H+  H191  1  0.41211572  0.09667750  0.89312514  1
  H+  H192  1  0.35694515  0.96587900  0.16026880  1
  H+  H193  1  0.86893810  0.49897736  0.84772757  1
  H+  H194  1  0.28576356  0.89614622  0.71914126  1
  H+  H195  1  0.63502487  0.28381205  0.82905149  1
  H+  H196  1  0.38481505  0.27167199  0.15330188  1
  H+  H197  1  0.62627592  0.60497430  0.00751177  1
  H+  H198  1  0.37690614  0.10104958  0.33125099  1
  H+  H199  1  0.86458091  0.22516984  -0.00190075  1
  H+  H200  1  0.89556476  0.51979033  0.31771509  1
  H+  H201  1  0.26079602  0.61042221  0.51151568  1
  H+  H202  1  0.11360259  0.38257715  0.00548759  1
  H+  H203  1  0.38418750  0.70403518  0.73796263  1
  H+  H204  1  0.87264459  0.73433187  0.01021036  1
  H+  H205  1  0.62658018  0.34753255  0.98550536  1
  H+  H206  1  0.33256501  0.17676588  0.73549296  1
  H+  H207  1  0.39239856  0.88750462  0.36628414  1
  H+  H208  1  0.11654434  0.22851153  0.15877162  1
  H+  H209  1  0.72001880  0.62205913  0.83703129  1
  H+  H210  1  0.47771132  0.13716834  0.99561867  1
  H+  H211  1  0.64380375  0.02536885  0.66426247  1
  H+  H212  1  0.98417745  0.61671446  0.65913503  1
  H+  H213  1  0.86060601  0.12330033  0.33916245  1
  H+  H214  1  0.60664937  0.46488376  -0.00200706  1
  H+  H215  1  0.78823951  0.39130400  0.68222890  1
  H+  H216  1  0.74554894  0.37613443  0.15303832  1
  H+  H217  1  0.88242987  0.10362911  0.84499606  1
  H+  H218  1  0.37926966  0.67856338  0.66871575  1
  H+  H219  1  0.82496533  0.90813489  0.76899997  1
  H+  H220  1  0.60184326  0.46054873  0.13392950  1
  H+  H221  1  0.61957862  0.47504553  0.50148731  1
  H+  H222  1  0.88011453  0.10113267  0.65774986  1
  H+  H223  1  0.01205672  0.64121751  0.16851203  1
  H+  H224  1  0.62498002  0.85678284  0.52065168  1
  H+  H225  1  0.36902586  0.97545940  0.35638343  1
  H+  H226  1  0.56293298  0.16694798  0.25187557  1
  H+  H227  1  0.13412740  0.73626375  0.66369376  1
  H+  H228  1  0.61382588  0.34733986  0.16364803  1
  H+  H229  1  0.96921601  0.86601590  0.16428139  1
  H+  H230  1  0.40264122  0.28426368  0.67045480  1
  H+  H231  1  0.36676751  0.14447889  0.68012767  1
  H+  H232  1  0.13658605  0.85372014  0.17334216  1
  H+  H233  1  0.26668235  0.71858609  0.36224747  1
  H+  H234  1  0.35020408  0.62819055  0.15482641  1
  H+  H235  1  0.38543482  0.10198218  0.17072536  1
  H+  H236  1  0.36045181  0.50724078  0.98737143  1
  H+  H237  1  0.29250861  0.40439092  0.48944187  1
  H+  H238  1  0.64482837  0.77434580  0.33383105  1
  H+  H239  1  0.87148418  0.63517382  0.16164176  1
  H+  H240  1  0.11962474  0.97310004  0.32977366  1
  H+  H241  1  0.73211431  0.11020215  0.15973526  1
  H+  H242  1  0.21559670  0.60885348  0.16533132  1
  H+  H243  1  0.45544333  0.59285675  0.99289878  1
  H+  H244  1  0.07748198  0.93565158  0.08465951  1
  H+  H245  1  0.37996475  0.77369463  0.99538244  1
  H+  H246  1  0.39009757  0.86035010  0.13834943  1
  H+  H247  1  0.36304153  0.14017728  0.49967325  1
  H+  H248  1  0.63572907  0.53044817  0.84027807  1
  H+  H249  1  1.02910836  0.38747937  0.67522266  1
  H+  H250  1  0.50290834  0.16584794  0.80885926  1
  H+  H251  1  0.64729603  0.27981111  0.52563346  1
  H+  H252  1  0.46211859  0.35650949  -0.03826993  1
  H+  H253  1  0.14803962  0.80138134  0.96850822  1
  H+  H254  1  0.64150541  0.86059244  0.99331468  1
  H+  H255  1  0.18779753  0.35722802  0.57939568  1
  H+  H256  1  0.17198474  0.57879376  0.89924645  1
  H+  H257  1  0.73693942  0.11371768  0.66425319  1
  H+  H258  1  0.89915339  0.29353946  0.83998768  1
  H+  H259  1  0.14104998  0.36746955  0.32586672  1
  H+  H260  1  0.48206424  0.60735961  0.84413561  1
  H+  H261  1  0.42513801  0.83462059  0.08199209  1
  H+  H262  1  0.46267739  0.71042968  0.39892871  1
  H+  H263  1  0.84842316  0.42916758  0.06965566  1
  H+  H264  1  0.73469963  0.86029975  0.33131004  1
  H+  H265  1  0.38223613  0.86598778  -0.00048279  1
  H+  H266  1  0.62815368  0.47675835  0.68061563  1
  H+  H267  1  0.12081072  0.63633461  0.33140134  1
  H+  H268  1  0.39350673  0.51352360  0.51350254  1
  H+  H269  1  0.11737516  0.47370738  0.82812355  1
  H+  H270  1  0.62904753  0.23608725  0.66379136  1
  H+  H271  1  0.03538655  0.98294467  0.11545681  1
  H+  H272  1  0.10632341  0.63807043  0.16801791  1
  H+  H273  1  0.56070182  0.66069842  0.06410090  1
  H+  H274  1  0.65429555  0.37568445  0.84458891  1
  H+  H275  1  0.72050291  0.85234230  0.84074288  1
  H+  H276  1  0.13372561  0.64285520  0.49264873  1
  H+  H277  1  0.89146704  0.86702449  0.99305639  1
  H+  H278  1  0.96967880  0.10912746  0.32472467  1
  H+  H279  1  0.14837174  -0.00575121  0.48808613  1
  H+  H280  1  0.53834495  0.38842791  0.68266118  1
  H+  H281  1  0.85916886  0.97429036  0.01360438  1
  H+  H282  1  0.85844205  0.71868002  0.16110072  1
  H+  H283  1  0.63777579  0.27808295  0.31469380  1
  H+  H284  1  0.76850629  0.88176198  1.00922678  1
  H+  H285  1  0.53004576  0.88645403  0.00845762  1
  H+  H286  1  0.73094847  0.61469592  0.51084601  1
  H+  H287  1  0.74242156  0.61717896  0.66736447  1
  H+  H288  1  0.68267943  0.59940663  0.29611233  1
  H+  H289  1  0.72686133  0.11377400  0.99548455  1
  H+  H290  1  0.69451799  0.11348779  0.24783875  1
  H+  H291  1  0.32378315  0.65670609  0.05815509  1
  H+  H292  1  0.46851622  0.92773746  0.24485916  1
  H+  H293  1  0.36358908  0.58766114  0.26571229  1
  H+  H294  1  0.39143609  0.03143775  0.68592340  1
  H+  H295  1  0.48977087  0.68526153  0.70757733  1
  H+  H296  1  0.17433885  0.57627442  0.57102807  1
  H+  H297  1  0.10633068  0.67545772  0.43422852  1
  H+  H298  1  0.07914989  0.40951852  0.09735467  1
  H+  H299  1  0.34842887  0.14021796  0.08799835  1
  H+  H300  1  0.92320558  0.58208528  0.25799214  1
  H+  H301  1  0.84682377  0.41843301  0.74230233  1
  H+  H302  1  0.78812584  0.89428559  0.44315567  1
  H+  H303  1  0.63165986  0.64475082  0.36314197  1
  H+  H304  1  0.28616260  0.13290474  0.14311648  1
  H+  H305  1  0.83951445  0.66584003  0.43968276  1
  H+  H306  1  -0.00555318  0.10630062  0.50079956  1
  H+  H307  1  0.02787865  0.62979749  0.33089926  1
  H+  H308  1  0.59468375  0.91404347  0.06501498  1
  H+  H309  1  0.65377697  0.55216010  0.20342998  1
  H+  H310  1  0.41986907  0.85808196  0.89940748  1
  H+  H311  1  0.33985358  0.42819413  0.76315253  1
  H+  H312  1  0.35440425  0.66025172  0.46115805  1
  H+  H313  1  0.12179729  0.23229715  0.00492116  1
  H+  H314  1  0.40142728  0.06540193  0.23362407  1
  H+  H315  1  0.83904306  0.66268462  0.73739884  1
  H+  H316  1  0.91962579  0.07700537  0.26038183  1
  H+  H317  1  0.59457428  0.71596333  0.00362498  1
  H+  H318  1  0.89684224  0.61048828  0.49377250  1
  H+  H319  1  0.67057750  0.82852307  0.93496880  1
  H+  H320  1  0.08660239  0.41988947  0.73572492  1
  H+  H321  1  0.89987018  0.06433430  0.57099722  1
  H+  H322  1  0.57548308  0.91754377  0.72899716  1
  H+  H323  1  0.69454479  0.06116141  0.90760040  1
  H+  H324  1  0.91493232  0.83725405  0.56524348  1
  H+  H325  1  0.66309304  0.31537037  0.93274217  1
  H+  H326  1  0.20123890  0.84927016  0.61690265  1
  H+  H327  1  0.59516464  0.41501496  0.44239230  1
  H+  H328  1  0.32032363  0.91221178  0.06481448  1
  H+  H329  1  0.85719304  0.87233191  0.15818498  1
  H+  H330  1  0.17781999  0.34293158  0.89245207  1
  H+  H331  1  0.92311836  0.31633062  0.23595584  1
  H+  H332  1  0.24170226  0.12248744  0.98178032  1
  H+  H333  1  0.87332652  0.47263592  0.48166605  1
  H+  H334  1  0.87398097  0.63491140  0.67796116  1
  H+  H335  1  0.57927905  0.66036413  0.45348893  1
  H+  H336  1  0.61424163  0.20523097  0.41166206  1
  H+  H337  1  0.59811539  0.92133587  0.41677328  1
  H+  H338  1  0.21065619  0.97440374  0.45187912  1
  H+  H339  1  0.56418176  0.39175647  0.04561036  1
  H+  H340  1  0.56724178  0.19128275  0.41261276  1
  H+  H341  1  0.62137445  0.97265848  0.15925937  1
  H+  H342  1  0.34306329  0.43418015  0.39241182  1
  H+  H343  1  0.40279519  0.08032315  0.58127919  1
  H+  H344  1  0.91865895  0.83206392  0.22830775  1
  H+  H345  1  0.56316861  0.18488348  0.75101982  1
  H+  H346  1  0.92050966  0.83759786  0.93293687  1
  H+  H347  1  0.77637163  0.20828911  0.79847854  1
  H+  H348  1  0.64815403  0.81776156  0.61104669  1
  H+  H349  1  0.56089475  0.65949138  0.77753628  1
  H+  H350  1  0.83484895  0.16771397  0.73106532  1
  H+  H351  1  0.88762615  0.10972099  0.99459084  1
  H+  H352  1  0.15529049  0.82120693  0.25977813  1
  H+  H353  1  0.84039654  0.67354966  0.07067472  1
  H+  H354  1  0.91778249  0.33817743  0.92672511  1
  H+  H355  1  0.38966135  0.28239210  0.49578975  1
  H+  H356  1  0.42057606  0.90742774  0.24440381  1
  H+  H357  1  0.41114085  0.37632161  0.66538551  1
  H+  H358  1  0.66830252  0.34154227  0.26088048  1
  H+  H359  1  0.17691988  0.08764179  0.25888897  1
  H+  H360  1  0.71895073  0.61418083  0.00903515  1
  H+  H361  1  0.09241127  0.17112056  0.09835442  1
  H+  H362  1  0.74592052  0.86998801  0.50807544  1
  H+  H363  1  0.78213453  0.14042794  0.33841239  1
  H+  H364  1  0.53292763  0.89879033  0.51519571  1
  H+  H365  1  0.88554089  0.57061535  0.93776838  1
  H+  H366  1  0.10711971  0.66782678  0.71504046  1
  H+  H367  1  0.18810873  0.86389413  0.91150328  1
  H+  H368  1  0.02823565  0.61693246  0.78953560  1
  H+  H369  1  0.62578775  0.14253409  0.66507334  1
  H+  H370  1  0.10272928  0.18768220  0.72958221  1
  H+  H371  1  0.39420041  0.52457287  0.61613363  1
  H+  H372  1  0.83408343  0.44528385  0.17903147  1
  H+  H373  1  0.83702424  0.16256605  0.43929985  1
  H+  H374  1  0.17113568  0.08660708  0.56874153  1
  H+  H375  1  0.92318007  0.33604241  0.60389038  1
  H+  H376  1  0.98676510  0.11237959  0.16739589  1
  H+  H377  1  0.05864804  0.16657849  0.41167707  1
  H+  H378  1  0.64869856  0.36856109  0.51338021  1
  H+  H379  1  0.33688163  0.16768397  0.39957535  1
  H+  H380  1  0.83921768  0.16855599  0.05936150  1
  H+  H381  1  0.67696249  0.83416220  0.23560744  1
  H+  H382  1  0.07970611  0.65415842  0.07763683  1
  H+  H383  1  0.68743486  0.34917448  0.60726976  1
  O2-  O384  1  0.09052858  0.16702280  0.14382295  1
  O2-  O385  1  0.05747926  0.14355529  0.48616841  1
  O2-  O386  1  0.08706019  0.17091734  0.81081948  1
  O2-  O387  1  0.08030433  0.40993704  0.14295895  1
  O2-  O388  1  0.09071721  0.41790604  0.48129631  1
  O2-  O389  1  0.08334099  0.41368507  0.81275065  1
  O2-  O390  1  0.08042126  0.67316927  0.15406807  1
  O2-  O391  1  0.10793297  0.67765746  0.47908378  1
  O2-  O392  1  0.08853298  0.65762937  0.79769094  1
  O2-  O393  1  0.06021574  0.94712207  0.12602990  1
  O2-  O394  1  0.15019510  0.94756379  0.46334713  1
  O2-  O395  1  0.08616574  0.91546729  0.80876311  1
  O2-  O396  1  0.34698241  0.15655161  0.13081743  1
  O2-  O397  1  0.33433585  0.16788994  0.47816025  1
  O2-  O398  1  0.33031356  0.17979712  0.81100289  1
  O2-  O399  1  0.33227917  0.42995682  0.14509627  1
  O2-  O400  1  0.35019435  0.43154528  0.47098675  1
  O2-  O401  1  0.33645964  0.42499094  0.80825552  1
  O2-  O402  1  0.31905125  0.65565502  0.13511097  1
  O2-  O403  1  0.33477426  0.64319056  0.50426986  1
  O2-  O404  1  0.33087786  0.70224841  0.79639531  1
  O2-  O405  1  0.32697094  0.90694957  0.14171497  1
  O2-  O406  1  0.34825366  0.92478849  0.49636250  1
  O2-  O407  1  0.33831313  0.93593554  0.80202712  1
  O2-  O408  1  0.57685632  0.15212832  0.14347032  1
  O2-  O409  1  0.58265041  0.16769668  0.53911960  1
  O2-  O410  1  0.55349150  0.21107244  0.78686536  1
  O2-  O411  1  0.56992602  0.39771024  0.12845776  1
  O2-  O412  1  0.59160998  0.41409221  0.48836761  1
  O2-  O413  1  0.59981904  0.42853335  0.82025563  1
  O2-  O414  1  0.57145112  0.66202394  0.14451311  1
  O2-  O415  1  0.57908796  0.66010578  0.49854363  1
  O2-  O416  1  0.56812614  0.65825573  0.82285125  1
  O2-  O417  1  0.59654974  0.91177559  0.14497489  1
  O2-  O418  1  0.59002787  0.91924435  0.49527677  1
  O2-  O419  1  0.58512959  0.91360097  0.80848909  1
  O2-  O420  1  0.83505617  0.16150349  0.13910571  1
  O2-  O421  1  0.83868903  0.16763575  0.48437728  1
  O2-  O422  1  0.80998226  0.17995822  0.80439526  1
  O2-  O423  1  0.80740367  0.41370886  0.14187755  1
  O2-  O424  1  0.84141481  0.40908614  0.47218423  1
  O2-  O425  1  0.84431001  0.41948101  0.82137326  1
  O2-  O426  1  0.83278524  0.65965782  0.14517702  1
  O2-  O427  1  0.83406115  0.66391495  0.48454000  1
  O2-  O428  1  0.83249690  0.66560199  0.81399920  1
  O2-  O429  1  0.82510940  0.90269201  0.14186006  1
  O2-  O430  1  0.80382040  0.89975044  0.48600104  1
  O2-  O431  1  0.83016987  0.90774110  0.81435252  1
  O2-  O432  1  0.18527175  0.09690630  0.18261071  1
  O2-  O433  1  0.16845310  0.08407114  0.52259147  1
  O2-  O434  1  0.16282860  0.08093133  0.84749628  1
  O2-  O435  1  0.16178638  0.32811959  0.18279003  1
  O2-  O436  1  0.18766109  0.35251238  0.53271116  1
  O2-  O437  1  0.17195498  0.33865264  0.84772355  1
  O2-  O438  1  0.15562199  0.57863279  0.18161741  1
  O2-  O439  1  0.18182437  0.58014410  0.52182380  1
  O2-  O440  1  0.17803765  0.58039422  0.85378561  1
  O2-  O441  1  0.16230456  0.82249911  0.19172573  1
  O2-  O442  1  0.18452568  0.83556569  0.53337683  1
  O2-  O443  1  0.19299822  0.84859269  0.84362549  1
  O2-  O444  1  0.41039566  0.06783732  0.18876223  1
  O2-  O445  1  0.40945479  0.08429634  0.53599511  1
  O2-  O446  1  0.40916189  0.09559509  0.84825549  1
  O2-  O447  1  0.41001825  0.33084934  0.16895154  1
  O2-  O448  1  0.41732897  0.34398307  0.50628839  1
  O2-  O449  1  0.43064845  0.34324071  0.85101148  1
  O2-  O450  1  0.39826809  0.58301093  0.19130454  1
  O2-  O451  1  0.41540493  0.56537719  0.54165149  1
  O2-  O452  1  0.41600024  0.57212421  0.85705196  1
  O2-  O453  1  0.42388585  0.83188773  0.12679011  1
  O2-  O454  1  0.44026947  0.86452734  0.55586620  1
  O2-  O455  1  0.42362975  0.85805115  0.85483667  1
  O2-  O456  1  0.67252229  0.07917836  0.17809734  1
  O2-  O457  1  0.67356753  0.08353928  0.52822183  1
  O2-  O458  1  0.71712026  0.04754028  0.87039461  1
  O2-  O459  1  0.64535789  0.32018613  0.18313442  1
  O2-  O460  1  0.68399013  0.34335126  0.52907083  1
  O2-  O461  1  0.67696881  0.33586776  0.85269348  1
  O2-  O462  1  0.66209615  0.57544468  0.16254199  1
  O2-  O463  1  0.67051517  0.58527567  0.52695322  1
  O2-  O464  1  0.65960555  0.59273793  0.85058808  1
  O2-  O465  1  0.67822483  0.83519433  0.19000928  1
  O2-  O466  1  0.65336056  0.82384801  0.53583488  1
  O2-  O467  1  0.66132297  0.82540272  0.85779809  1
  O2-  O468  1  0.92597884  0.08123070  0.18349387  1
  O2-  O469  1  0.90188932  0.06640641  0.52344748  1
  O2-  O470  1  0.91625156  0.07702305  0.85646858  1
  O2-  O471  1  0.91877700  0.31096705  0.19124656  1
  O2-  O472  1  0.92777717  0.33669181  0.52292839  1
  O2-  O473  1  0.92858062  0.35219619  0.85607409  1
  O2-  O474  1  0.92655487  0.59933104  0.18273422  1
  O2-  O475  1  0.92530066  0.57590106  0.48922392  1
  O2-  O476  1  0.88947309  0.56308254  0.86649149  1
  O2-  O477  1  0.91104346  0.83281389  0.18294728  1
  O2-  O478  1  0.90669271  0.83010954  0.52136770  1
  O2-  O479  1  0.92093787  0.83299499  0.85527381  1
  O2-  O480  1  0.17011243  0.07911539  0.30443470  1
  O2-  O481  1  0.17802404  0.09455591  0.64260519  1
  O2-  O482  1  0.18058306  0.09737403  0.97250034  1
  O2-  O483  1  0.17273975  0.33908965  0.30902061  1
  O2-  O484  1  0.18718645  0.35696516  0.65087484  1
  O2-  O485  1  0.19142908  0.34906078  0.97834971  1
  O2-  O486  1  0.16996942  0.57092156  0.30519666  1
  O2-  O487  1  0.17189411  0.57784209  0.63417800  1
  O2-  O488  1  0.16155645  0.57018885  0.97578778  1
  O2-  O489  1  0.15200003  0.81865283  0.30730142  1
  O2-  O490  1  0.19309819  0.84476339  0.66158475  1
  O2-  O491  1  0.18006243  0.86248015  0.95882054  1
  O2-  O492  1  0.39900465  0.06295772  0.31562011  1
  O2-  O493  1  0.41431030  0.08366217  0.66025217  1
  O2-  O494  1  0.42508530  0.13009385  0.97331596  1
  O2-  O495  1  0.39351009  0.32543295  0.28981847  1
  O2-  O496  1  0.44219501  0.34505675  0.65886342  1
  O2-  O497  1  0.39944775  0.33080542  0.95342620  1
  O2-  O498  1  0.33791340  0.57935928  0.30729611  1
  O2-  O499  1  0.38859071  0.52392353  0.66150726  1
  O2-  O500  1  0.39734034  0.56704217  0.97320804  1
  O2-  O501  1  0.43277125  0.85181237  0.35209491  1
  O2-  O502  1  0.44859610  0.90940154  0.61358995  1
  O2-  O503  1  0.41730011  0.83769625  0.99213700  1
  O2-  O504  1  0.70827737  0.14518603  0.28832690  1
  O2-  O505  1  0.67606725  0.08635913  0.64921523  1
  O2-  O506  1  0.66644756  0.08286271  0.98022889  1
  O2-  O507  1  0.67521575  0.33991864  0.30585740  1
  O2-  O508  1  0.68503798  0.34157298  0.65256706  1
  O2-  O509  1  0.65631321  0.31388515  0.97767792  1
  O2-  O510  1  0.68596199  0.59765760  0.34018946  1
  O2-  O511  1  0.68110115  0.58634413  0.65178300  1
  O2-  O512  1  0.65715874  0.57280519  1.01051484  1
  O2-  O513  1  0.67526274  0.83292897  0.31583866  1
  O2-  O514  1  0.64843980  0.81953159  0.65664736  1
  O2-  O515  1  0.67233424  0.82955004  0.98078378  1
  O2-  O516  1  0.91256150  0.07094466  0.30580548  1
  O2-  O517  1  0.90010766  0.06390423  0.63888249  1
  O2-  O518  1  0.91495405  0.07428640  0.98312891  1
  O2-  O519  1  0.92306128  0.32618069  0.31893872  1
  O2-  O520  1  0.92377055  0.33244479  0.64911670  1
  O2-  O521  1  0.91196483  0.33130220  0.97374266  1
  O2-  O522  1  0.92642985  0.58099453  0.30416275  1
  O2-  O523  1  0.92096220  0.58704293  0.65590605  1
  O2-  O524  1  0.89754569  0.58004308  0.98332206  1
  O2-  O525  1  0.92520612  0.82571442  0.30487917  1
  O2-  O526  1  0.92121580  0.83151978  0.67199376  1
  O2-  O527  1  0.92501074  0.84055254  0.97857916  1
  O2-  O528  1  0.09112532  0.17188857  0.01904155  1
  O2-  O529  1  0.05285446  0.18547345  0.36951794  1
  O2-  O530  1  0.11424077  0.19929159  0.68551465  1
  O2-  O531  1  0.07923093  0.40809027  0.01978765  1
  O2-  O532  1  0.08630461  0.41215071  0.35655604  1
  O2-  O533  1  0.08982979  0.42121500  0.68991948  1
  O2-  O534  1  0.08110888  0.64261811  0.03321706  1
  O2-  O535  1  0.08931648  0.66553431  0.34553258  1
  O2-  O536  1  0.10168085  0.67249320  0.67084299  1
  O2-  O537  1  0.09260931  0.93193481  0.01103578  1
  O2-  O538  1  0.09056783  0.91412309  0.34801426  1
  O2-  O539  1  0.10276452  0.92579848  0.68563348  1
  O2-  O540  1  0.35247621  0.08519843  0.01555313  1
  O2-  O541  1  0.33827913  0.16519332  0.35406955  1
  O2-  O542  1  0.33581621  0.17603163  0.68969922  1
  O2-  O543  1  0.26678729  0.39523781  0.00267755  1
  O2-  O544  1  0.33847970  0.43675963  0.34722706  1
  O2-  O545  1  0.34946345  0.43387644  0.68038623  1
  O2-  O546  1  0.32699482  0.66459981  0.01276778  1
  O2-  O547  1  0.40287647  0.69476665  0.39319811  1
  O2-  O548  1  0.42010523  0.71101163  0.70067057  1
  O2-  O549  1  0.33007878  0.92262037  0.02000631  1
  O2-  O550  1  0.34939117  0.91907752  0.37827844  1
  O2-  O551  1  0.34476743  0.93464693  0.73480024  1
  O2-  O552  1  0.57490142  0.16266568  0.02278045  1
  O2-  O553  1  0.56823894  0.16260307  0.29571592  1
  O2-  O554  1  0.59041674  0.17160845  0.66520287  1
  O2-  O555  1  0.57310350  0.40084501  0.00114664  1
  O2-  O556  1  0.59724413  0.41806688  0.36825838  1
  O2-  O557  1  0.60066552  0.41756743  0.69685442  1
  O2-  O558  1  0.55789933  0.65660615  0.01890284  1
  O2-  O559  1  0.59353282  0.66995596  0.37155499  1
  O2-  O560  1  0.53399735  0.66451719  0.70600905  1
  O2-  O561  1  0.59177566  0.91449808  0.01969118  1
  O2-  O562  1  0.59525547  0.92360277  0.37151131  1
  O2-  O563  1  0.57997935  0.92156423  0.68367123  1
  O2-  O564  1  0.83721186  0.16455706  0.01404437  1
  O2-  O565  1  0.83765662  0.15737516  0.35905071  1
  O2-  O566  1  0.83997063  0.16473987  0.68598236  1
  O2-  O567  1  0.87723101  0.45013954  0.02956397  1
  O2-  O568  1  0.84141428  0.41341267  0.34867341  1
  O2-  O569  1  0.84910618  0.41964588  0.69668901  1
  O2-  O570  1  0.83909552  0.67399777  0.02476914  1
  O2-  O571  1  0.85023112  0.66362146  0.35761345  1
  O2-  O572  1  0.84198159  0.66606020  0.69182563  1
  O2-  O573  1  0.82812952  0.91297617  0.02901411  1
  O2-  O574  1  0.85202022  0.91643899  0.35169590  1
  O2-  O575  1  0.81276528  0.90115070  0.69094602  1
