# generated using pymatgen
data_H2O
_symmetry_space_group_name_H-M   'P 1'
_cell_length_a   17.99751305
_cell_length_b   17.99308292
_cell_length_c   22.00015570
_cell_angle_alpha   89.98655032
_cell_angle_beta   90.00432572
_cell_angle_gamma   120.00842810
_symmetry_Int_Tables_number   1
_chemical_formula_structural   H2O
_chemical_formula_sum   'H384 O192'
_cell_volume   6169.32376676
_cell_formula_units_Z   192
loop_
 _symmetry_equiv_pos_site_id
 _symmetry_equiv_pos_as_xyz
  1  'x, y, z'
loop_
 _atom_type_symbol
 _atom_type_oxidation_number
  H+  1.0
  O2-  -2.0
loop_
 _atom_site_type_symbol
 _atom_site_label
 _atom_site_symmetry_multiplicity
 _atom_site_fract_x
 _atom_site_fract_y
 _atom_site_fract_z
 _atom_site_occupancy
  H+  H0  1  0.09122506  0.12562182  0.67982899  1
  H+  H1  1  0.10722582  0.89293923  0.84228396  1
  H+  H2  1  0.82977047  0.79554788  0.49362107  1
  H+  H3  1  0.85292045  0.12835990  0.66194712  1
  H+  H4  1  0.33540306  0.91294299  0.09645908  1
  H+  H5  1  0.67269189  0.32662501  0.23083817  1
  H+  H6  1  0.07953801  0.09781380  0.89966047  1
  H+  H7  1  0.56820108  0.42621812  0.41112608  1
  H+  H8  1  0.38309704  0.14930893  0.16152212  1
  H+  H9  1  0.25936670  0.34401832  0.83353631  1
  H+  H10  1  0.78675059  0.62871150  0.82511772  1
  H+  H11  1  0.23042351  0.61758746  0.17332159  1
  H+  H12  1  0.44459426  0.21162076  0.84315792  1
  H+  H13  1  0.64402069  0.77676102  0.65592192  1
  H+  H14  1  0.61524490  0.51182113  0.51470589  1
  H+  H15  1  0.38471592  0.24812453  0.16518695  1
  H+  H16  1  0.96944670  0.63634720  1.00384607  1
  H+  H17  1  0.11469415  0.63844516  0.16634306  1
  H+  H18  1  0.62115213  0.77259849  0.50654588  1
  H+  H19  1  0.46472767  0.04748264  0.87110674  1
  H+  H20  1  0.27622656  0.13784981  0.01927860  1
  H+  H21  1  0.14509651  0.67438704  1.00527229  1
  H+  H22  1  0.13944773  0.35947378  0.32717453  1
  H+  H23  1  0.76526607  0.13159615  0.66458614  1
  H+  H24  1  0.72942512  0.37272618  0.17217967  1
  H+  H25  1  0.76742144  0.63607429  0.00760612  1
  H+  H26  1  0.63474945  0.77004965  0.33436354  1
  H+  H27  1  0.52453060  0.63825501  0.16380444  1
  H+  H28  1  0.14346700  0.52741913  0.17013359  1
  H+  H29  1  -0.02371866  0.10360012  0.33312871  1
  H+  H30  1  1.03918038  0.39493844  0.15354060  1
  H+  H31  1  0.61919131  0.14133843  0.16712188  1
  H+  H32  1  0.63023502  0.88796881  0.17196758  1
  H+  H33  1  0.77894780  0.88626303  0.66511181  1
  H+  H34  1  0.53194809  0.63972779  0.66553903  1
  H+  H35  1  0.61004229  0.64166086  0.34613513  1
  H+  H36  1  0.60629433  0.38487703  0.99866606  1
  H+  H37  1  0.35387271  0.95641421  0.83807465  1
  H+  H38  1  0.62852504  0.53894041  0.33390334  1
  H+  H39  1  0.12900479  0.84395075  0.51029642  1
  H+  H40  1  0.66372984  0.60988012  0.84803106  1
  H+  H41  1  0.97927347  0.62342128  0.18292354  1
  H+  H42  1  0.26654805  0.63301273  0.66541020  1
  H+  H43  1  0.61475672  0.39711479  0.17490748  1
  H+  H44  1  0.27316079  0.13927274  0.49702209  1
  H+  H45  1  0.10619326  0.72287993  0.67605074  1
  H+  H46  1  0.36403505  0.22765616  0.01064779  1
  H+  H47  1  0.88019150  0.26827183  0.66402020  1
  H+  H48  1  0.38512711  0.11539918  0.50242907  1
  H+  H49  1  0.37870161  0.10508136  0.65330525  1
  H+  H50  1  0.09975837  0.61500453  0.49783703  1
  H+  H51  1  0.25303850  0.38071034  0.82411652  1
  H+  H52  1  0.63899458  0.84455377  0.98778635  1
  H+  H53  1  0.64441729  0.95598394  0.12027986  1
  H+  H54  1  0.60989537  0.39069417  0.49743269  1
  H+  H55  1  0.10382901  0.87818425  0.15307852  1
  H+  H56  1  0.88285919  0.76505958  0.83700511  1
  H+  H57  1  0.63087002  1.02151421  0.65637791  1
  H+  H58  1  1.01546481  0.61179282  0.34078823  1
  H+  H59  1  0.86358988  0.38338960  0.85766144  1
  H+  H60  1  0.13554133  0.51948283  0.65823145  1
  H+  H61  1  0.72214363  0.11083531  0.50478038  1
  H+  H62  1  0.48407836  0.11935103  0.16985595  1
  H+  H63  1  0.35806796  0.38821371  0.34075815  1
  H+  H64  1  0.47813816  0.09439656  0.32492598  1
  H+  H65  1  0.62066006  0.47853230  0.66926882  1
  H+  H66  1  0.61179447  0.88193660  0.34384634  1
  H+  H67  1  0.87072055  0.37346141  0.34480239  1
  H+  H68  1  0.77647331  0.12987179  0.34840860  1
  H+  H69  1  0.63166967  0.88978022  0.67284669  1
  H+  H70  1  0.88069479  0.01737811  0.65185136  1
  H+  H71  1  0.92157600  0.36703332  0.96088551  1
  H+  H72  1  0.58872433  0.42516116  0.76793156  1
  H+  H73  1  0.62930849  0.39262952  0.81555950  1
  H+  H74  1  0.86018244  -0.00887475  1.02108805  1
  H+  H75  1  0.36638271  0.72064428  0.00506069  1
  H+  H76  1  1.03410845  0.38264418  0.34728800  1
  H+  H77  1  0.67324116  0.08176018  0.28006155  1
  H+  H78  1  0.14036979  0.02240284  0.50601794  1
  H+  H79  1  0.86461446  0.72207581  0.66703787  1
  H+  H80  1  0.35618547  0.94836705  0.32991683  1
  H+  H81  1  0.37505290  0.17805966  0.35330878  1
  H+  H82  1  0.95857564  0.59930517  0.50598412  1
  H+  H83  1  0.38891113  0.26784282  0.51443278  1
  H+  H84  1  0.88824486  0.96838517  0.48818118  1
  H+  H85  1  0.36934604  0.73025674  0.16144941  1
  H+  H86  1  0.23494329  0.36866029  0.17405012  1
  H+  H87  1  0.53328646  0.17338039  0.80680750  1
  H+  H88  1  0.62758044  0.27168085  0.50232435  1
  H+  H89  1  0.88560586  0.54057436  -0.00281433  1
  H+  H90  1  0.90121106  0.27741023  0.98720009  1
  H+  H91  1  0.35494099  -0.03442176  1.00701853  1
  H+  H92  1  0.64722383  0.86829926  0.84423187  1
  H+  H93  1  0.52806084  0.39144017  0.67556913  1
  H+  H94  1  0.61414284  0.88955451  0.49663766  1
  H+  H95  1  0.77478910  0.20612464  0.03617167  1
  H+  H96  1  0.11761581  0.22070549  0.49556707  1
  H+  H97  1  0.73184084  0.11743025  0.83633972  1
  H+  H98  1  0.11045603  0.47207036  0.82105721  1
  H+  H99  1  0.59475502  0.40606673  0.34756853  1
  H+  H100  1  0.28816097  0.62317649  0.00567410  1
  H+  H101  1  0.09133405  0.76223728  0.01897150  1
  H+  H102  1  0.72180025  0.83822093  0.51042137  1
  H+  H103  1  0.52035633  0.12991741  0.00866603  1
  H+  H104  1  0.38511377  0.84965845  0.32895149  1
  H+  H105  1  0.67558417  0.82658245  0.89852102  1
  H+  H106  1  0.63451235  0.77264050  0.18018312  1
  H+  H107  1  0.88444793  0.85131549  0.65596989  1
  H+  H108  1  0.90466218  0.12257413  -0.01964403  1
  H+  H109  1  0.85389898  0.67555331  0.50781692  1
  H+  H110  1  0.14274651  0.78478629  0.17556440  1
  H+  H111  1  0.46739753  0.84991502  -0.01068954  1
  H+  H112  1  0.54065619  0.86971756  0.69394360  1
  H+  H113  1  0.36480688  0.97664782  0.48215154  1
  H+  H114  1  0.08417377  0.41322729  0.72620557  1
  H+  H115  1  0.51791546  0.63737990  0.34017527  1
  H+  H116  1  0.62040316  0.63135407  1.01221956  1
  H+  H117  1  0.36684540  0.71963348  0.34355879  1
  H+  H118  1  0.35242869  0.87477975  1.00280986  1
  H+  H119  1  0.71735558  0.36221144  0.50491619  1
  H+  H120  1  0.88594288  0.67568500  0.17719346  1
  H+  H121  1  0.91236679  0.07088668  0.55924295  1
  H+  H122  1  0.22171455  0.86451286  0.98559170  1
  H+  H123  1  0.15918198  0.05175922  0.36419240  1
  H+  H124  1  0.41277734  0.10861392  0.84071996  1
  H+  H125  1  0.40280302  0.54890142  0.83183625  1
  H+  H126  1  0.27658244  0.63268552  0.34247524  1
  H+  H127  1  0.62310578  0.35943298  0.65655159  1
  H+  H128  1  0.21406467  0.86455426  0.66832735  1
  H+  H129  1  0.40012672  0.61705257  0.99752193  1
  H+  H130  1  0.48075802  0.86820804  0.84324797  1
  H+  H131  1  0.11218713  0.63707313  0.67154233  1
  H+  H132  1  0.35163205  0.72566126  0.66958779  1
  H+  H133  1  -0.01158551  0.12080065  -0.00180063  1
  H+  H134  1  0.75710463  0.88279701  0.34308996  1
  H+  H135  1  0.64677717  0.62915609  0.17854275  1
  H+  H136  1  0.61423185  -0.05058023  1.00175063  1
  H+  H137  1  0.14089212  0.51013132  0.50790422  1
  H+  H138  1  0.65638176  0.07833843  0.59505598  1
  H+  H139  1  -0.00238949  0.15394210  0.18192030  1
  H+  H140  1  0.96511682  0.10966744  0.65151346  1
  H+  H141  1  0.36789118  0.38994636  0.16080798  1
  H+  H142  1  0.11903783  0.01664309  0.66727597  1
  H+  H143  1  0.73296210  0.08585419  0.99098657  1
  H+  H144  1  0.86891266  0.47376381  0.86482843  1
  H+  H145  1  0.51819426  0.13688446  0.49177661  1
  H+  H146  1  0.22606096  0.60265727  0.50721168  1
  H+  H147  1  0.13525777  0.26903123  0.66891095  1
  H+  H148  1  0.35368972  0.57549095  0.56601975  1
  H+  H149  1  0.32178461  0.17132507  0.61312606  1
  H+  H150  1  0.89125467  0.60111026  0.33545277  1
  H+  H151  1  0.38264562  0.07731391  0.32598085  1
  H+  H152  1  0.09398458  0.37564341  0.82778819  1
  H+  H153  1  0.85745086  -0.01857275  0.34052155  1
  H+  H154  1  0.83850781  0.40361256  0.00977935  1
  H+  H155  1  0.92719580  0.31447308  0.88224382  1
  H+  H156  1  0.64464028  0.12144490  0.83923261  1
  H+  H157  1  0.48211341  0.36992411  0.18277684  1
  H+  H158  1  0.35969773  0.47593096  0.65268576  1
  H+  H159  1  0.36923963  -0.02026180  0.15213595  1
  H+  H160  1  0.63184946  0.24578687  0.80406157  1
  H+  H161  1  0.73189972  0.36996748  0.76604843  1
  H+  H162  1  0.80477451  0.06255136  0.12018454  1
  H+  H163  1  0.38794743  0.27743532  0.67268161  1
  H+  H164  1  0.77590634  0.89921798  0.01758931  1
  H+  H165  1  0.35655831  0.71420365  0.49932262  1
  H+  H166  1  0.09169600  0.97614431  0.84318907  1
  H+  H167  1  0.57712199  0.15690792  0.40136976  1
  H+  H168  1  0.61950722  0.23036770  0.16093423  1
  H+  H169  1  0.11750861  0.72921127  0.83128046  1
  H+  H170  1  0.24514111  0.13419550  0.34199609  1
  H+  H171  1  1.02156165  0.38220485  0.66925351  1
  H+  H172  1  0.97138138  0.85250360  0.66601823  1
  H+  H173  1  0.53283080  0.63422392  0.00705397  1
  H+  H174  1  0.11836508  0.26901391  0.84994269  1
  H+  H175  1  0.46886591  0.85705675  0.50796757  1
  H+  H176  1  0.39131690  0.36838975  0.66890289  1
  H+  H177  1  0.26246624  0.86884252  0.83002729  1
  H+  H178  1  0.96922957  0.85535273  0.99174733  1
  H+  H179  1  0.63619021  0.24239813  0.32629648  1
  H+  H180  1  0.13215411  0.37182401  0.49820301  1
  H+  H181  1  0.62497691  -0.01521748  0.83358107  1
  H+  H182  1  0.94914600  0.71032691  0.38841286  1
  H+  H183  1  0.48399399  0.86991160  0.17261411  1
  H+  H184  1  0.89647750  0.26056657  0.33606785  1
  H+  H185  1  0.04842336  0.39277482  0.00995627  1
  H+  H186  1  0.03828011  0.35367988  0.48619531  1
  H+  H187  1  0.98800480  0.61631132  0.84173612  1
  H+  H188  1  0.63861238  0.01617252  0.33688395  1
  H+  H189  1  0.22877990  0.87302521  0.16329465  1
  H+  H190  1  0.86366071  0.22080448  0.49993117  1
  H+  H191  1  0.16610551  0.59419240  0.98688178  1
  H+  H192  1  0.10731428  0.64746029  -0.01542753  1
  H+  H193  1  0.64868202  0.51490326  0.84391132  1
  H+  H194  1  0.86907048  0.41052644  0.15913868  1
  H+  H195  1  0.11093730  0.22338064  0.33851839  1
  H+  H196  1  0.12557434  0.23251623  0.16302340  1
  H+  H197  1  0.89019605  0.72890743  0.34548035  1
  H+  H198  1  0.10461816  0.94733096  0.32075287  1
  H+  H199  1  0.24888201  0.61958997  0.81932798  1
  H+  H200  1  0.21317989  0.83991344  0.33638419  1
  H+  H201  1  0.52244510  0.88160057  0.34178583  1
  H+  H202  1  0.10862414  0.61938586  0.34159444  1
  H+  H203  1  0.96685048  0.84898105  0.32076606  1
  H+  H204  1  0.47711321  0.36080058  0.84073999  1
  H+  H205  1  0.73663201  0.61556720  0.65630976  1
  H+  H206  1  0.88253311  0.27377281  0.16724485  1
  H+  H207  1  0.11751848  0.09642659  0.17930649  1
  H+  H208  1  0.86286813  0.64119329  0.00160442  1
  H+  H209  1  -0.02299808  0.10651896  0.50240378  1
  H+  H210  1  0.12187141  0.14613676  1.01198147  1
  H+  H211  1  0.10604728  0.88836845  0.68508126  1
  H+  H212  1  0.63895064  0.02666705  0.19046391  1
  H+  H213  1  0.25617714  0.12568274  0.66399381  1
  H+  H214  1  0.12177465  0.23629267  1.01019747  1
  H+  H215  1  0.87856715  0.50523173  0.32768630  1
  H+  H216  1  0.88914570  0.10800543  0.33535287  1
  H+  H217  1  0.64878861  0.76251635  0.99093800  1
  H+  H218  1  0.41470064  0.43230403  0.82076513  1
  H+  H219  1  0.63192881  1.02269985  0.50281972  1
  H+  H220  1  0.10530523  0.86181614  0.34031846  1
  H+  H221  1  -0.02829846  0.35808815  0.82089865  1
  H+  H222  1  0.37855327  0.61754408  0.62954571  1
  H+  H223  1  0.15273664  0.83996499  0.79980482  1
  H+  H224  1  0.61133247  0.12107320  0.34666614  1
  H+  H225  1  0.38629558  0.60963846  0.32938359  1
  H+  H226  1  0.72999150  0.10654151  0.18257028  1
  H+  H227  1  0.87881641  0.63865531  0.82118294  1
  H+  H228  1  0.15353028  0.49851941  -0.00492678  1
  H+  H229  1  0.87420775  0.13284328  0.16488425  1
  H+  H230  1  0.60962690  0.13782640  0.66484491  1
  H+  H231  1  0.96146963  0.82578587  0.16455489  1
  H+  H232  1  0.38688296  0.85726713  0.83925159  1
  H+  H233  1  0.13500281  0.10836643  0.50660811  1
  H+  H234  1  0.56898249  0.63857318  0.82180735  1
  H+  H235  1  0.08602636  0.91312874  0.42631179  1
  H+  H236  1  0.46539308  0.64722035  0.83702708  1
  H+  H237  1  0.45059839  0.87723186  0.64892863  1
  H+  H238  1  0.86508641  0.73842529  -0.00057243  1
  H+  H239  1  0.11115246  0.74880053  0.51781346  1
  H+  H240  1  0.35910376  0.86265877  0.66336554  1
  H+  H241  1  0.96098650  0.38744492  0.52235101  1
  H+  H242  1  0.08279295  -0.04607912  0.15997556  1
  H+  H243  1  0.52295799  0.39448079  1.00152889  1
  H+  H244  1  0.03290337  -0.11307498  0.48723425  1
  H+  H245  1  0.46001657  0.36889528  0.32944892  1
  H+  H246  1  0.86700649  0.36337030  0.50761350  1
  H+  H247  1  0.37123362  0.27698815  0.33415180  1
  H+  H248  1  0.46996713  0.10936985  0.65712763  1
  H+  H249  1  0.60847245  0.13748924  0.49227268  1
  H+  H250  1  0.96827957  0.85666601  0.84385190  1
  H+  H251  1  0.38970957  0.61445118  0.17618792  1
  H+  H252  1  0.14619806  0.36856902  0.17250890  1
  H+  H253  1  0.27049273  0.38815113  0.34451667  1
  H+  H254  1  0.58147157  0.16414038  0.06558485  1
  H+  H255  1  0.36955304  0.47858940  1.00542627  1
  H+  H256  1  0.36914933  0.47970175  0.16172878  1
  H+  H257  1  0.14797182  0.82773950  0.61170022  1
  H+  H258  1  0.40962923  0.82460523  0.93001344  1
  H+  H259  1  0.36030877  0.88604218  0.48568843  1
  H+  H260  1  0.90073276  0.57086660  0.56500807  1
  H+  H261  1  0.84730875  0.85729667  0.16400307  1
  H+  H262  1  0.64667594  0.61663787  0.66152026  1
  H+  H263  1  0.38001351  0.35859789  0.99522301  1
  H+  H264  1  0.77735156  0.36189476  0.33754948  1
  H+  H265  1  0.72946653  0.85648607  0.18261946  1
  H+  H266  1  0.34946390  0.62942794  0.81982167  1
  H+  H267  1  0.11065641  0.89311286  0.00219299  1
  H+  H268  1  0.77843046  0.88716791  0.82086336  1
  H+  H269  1  0.13471263  0.02061136  1.00138499  1
  H+  H270  1  0.23885148  0.35484059  0.51052259  1
  H+  H271  1  0.64901604  0.33512588  0.32831502  1
  H+  H272  1  0.86469588  0.21711727  0.81543662  1
  H+  H273  1  0.34900657  0.18096101  0.09974566  1
  H+  H274  1  0.90866470  0.02325398  0.79868942  1
  H+  H275  1  0.70637493  0.36111104  -0.00636497  1
  H+  H276  1  0.88105861  0.60229318  0.65832644  1
  H+  H277  1  0.86248148  0.87952815  0.82093743  1
  H+  H278  1  0.14431082  0.52015771  0.32685918  1
  H+  H279  1  0.51722338  0.38358169  0.50352508  1
  H+  H280  1  0.58593385  0.66922317  0.10477549  1
  H+  H281  1  0.84776185  0.47538903  0.49312395  1
  H+  H282  1  0.13794922  0.35823772  0.66187683  1
  H+  H283  1  0.92046222  0.11556090  0.80521664  1
  H+  H284  1  0.61724218  0.25830118  0.65541022  1
  H+  H285  1  0.35459573  0.97538067  0.67981006  1
  H+  H286  1  0.84148703  0.46016416  0.68801293  1
  H+  H287  1  0.84492130  0.37561871  0.69438744  1
  H+  H288  1  0.56836010  0.88137565  0.05694496  1
  H+  H289  1  0.48067466  0.60770433  0.54023331  1
  H+  H290  1  0.38135216  0.10116016  0.99936391  1
  H+  H291  1  0.36648711  0.38153606  0.49723487  1
  H+  H292  1  0.15983394  0.83663939  0.92650967  1
  H+  H293  1  0.17044960  0.33102527  0.26749874  1
  H+  H294  1  0.60485350  0.92619878  0.77522984  1
  H+  H295  1  0.92873453  0.60025035  0.90020201  1
  H+  H296  1  0.14176191  0.36913235  0.00397726  1
  H+  H297  1  0.42227421  0.58959406  0.93471731  1
  H+  H298  1  0.07038631  0.64259298  0.43793281  1
  H+  H299  1  0.42051090  0.32857717  0.57511595  1
  H+  H300  1  0.64825324  0.32420186  0.59078527  1
  H+  H301  1  0.90097164  0.33289831  0.60968155  1
  H+  H302  1  0.74307057  0.37279207  0.83651993  1
  H+  H303  1  0.07501107  0.91978832  0.74363867  1
  H+  H304  1  0.41781486  0.58186495  0.23522861  1
  H+  H305  1  0.18041415  0.08270141  0.94534842  1
  H+  H306  1  -0.03338766  0.59768455  0.65987824  1
  H+  H307  1  0.33277049  0.65169051  0.44367500  1
  H+  H308  1  0.40824712  0.32850141  0.93550262  1
  H+  H309  1  0.11727034  0.13804941  0.34247847  1
  H+  H310  1  0.67879694  0.58067004  0.94289894  1
  H+  H311  1  0.40975980  0.33016061  0.23599269  1
  H+  H312  1  0.38622521  0.52078675  0.33012099  1
  H+  H313  1  0.33190445  0.17424050  0.79622174  1
  H+  H314  1  0.37481535  0.29429236  0.83248870  1
  H+  H315  1  0.33091793  0.90344461  0.39538110  1
  H+  H316  1  0.27770355  0.38933239  0.67327687  1
  H+  H317  1  0.84351556  0.69287358  0.44026940  1
  H+  H318  1  0.58034062  0.91345629  0.43716896  1
  H+  H319  1  0.16450157  0.57706777  0.59823497  1
  H+  H320  1  0.83360063  0.65974865  0.72582435  1
  H+  H321  1  0.83688294  0.16169517  0.40737404  1
  H+  H322  1  0.02208294  0.74891374  0.06799271  1
  H+  H323  1  0.83612667  0.91244128  0.40062282  1
  H+  H324  1  0.82657409  0.91150839  0.11577989  1
  H+  H325  1  0.17552113  0.57172811  0.89650269  1
  H+  H326  1  0.33295506  0.18110637  0.43676538  1
  H+  H327  1  0.13820324  0.61198474  0.84412993  1
  H+  H328  1  0.66786293  0.82967334  0.27359427  1
  H+  H329  1  0.74022874  0.64076521  0.18335398  1
  H+  H330  1  0.62321124  0.26860779  0.99457260  1
  H+  H331  1  0.22842860  0.36382692  0.99251486  1
  H+  H332  1  0.08888420  0.66332490  0.77367125  1
  H+  H333  1  0.59180830  0.59106545  0.52256258  1
  H+  H334  1  0.08480401  0.16483637  0.43393654  1
  H+  H335  1  0.38624632  0.45791835  0.75900856  1
  H+  H336  1  0.91283358  0.58615638  0.23844068  1
  H+  H337  1  0.63982613  0.51723006  0.00022396  1
  H+  H338  1  0.14586567  0.06342485  0.23639245  1
  H+  H339  1  0.65543197  0.58046767  0.57617457  1
  H+  H340  1  0.61791779  0.48748481  0.17934553  1
  H+  H341  1  0.12381031  0.75111896  0.34120879  1
  H+  H342  1  0.82681221  0.15415532  0.75931648  1
  H+  H343  1  0.66913924  0.83547167  0.59621482  1
  H+  H344  1  0.39959127  0.82911721  0.56159137  1
  H+  H345  1  0.10070819  0.42369158  0.09273380  1
  H+  H346  1  0.33785045  0.42061171  0.06555335  1
  H+  H347  1  0.14627801  0.07358160  0.60588587  1
  H+  H348  1  0.12741339  0.31641072  0.91222520  1
  H+  H349  1  0.83767641  0.91376490  0.72443984  1
  H+  H350  1  0.10182174  0.41454835  0.40203940  1
  H+  H351  1  0.67336588  0.06099381  0.93288356  1
  H+  H352  1  0.61284767  0.74300260  0.82351999  1
  H+  H353  1  0.55592644  0.67125849  0.42945766  1
  H+  H354  1  0.82565314  0.43925734  0.07227043  1
  H+  H355  1  0.66752005  0.60046204  0.27660439  1
  H+  H356  1  0.24318400  0.16797653  0.81338506  1
  H+  H357  1  0.04034895  0.08767160  0.83567368  1
  H+  H358  1  0.58569767  0.17253332  0.72590769  1
  H+  H359  1  0.82295879  0.41119832  0.43457484  1
  H+  H360  1  0.86762740  0.49935962  0.16508487  1
  H+  H361  1  0.08862467  0.17225081  0.10446681  1
  H+  H362  1  0.82695933  0.17043647  0.07120543  1
  H+  H363  1  0.07922767  0.67836303  0.11515502  1
  H+  H364  1  0.41972145  0.08192913  0.22625125  1
  H+  H365  1  0.34095110  0.66847678  0.10321127  1
  H+  H366  1  0.86461513  0.13112735  0.49732564  1
  H+  H367  1  0.90812603  0.82202170  0.93199439  1
  H+  H368  1  0.42175713  0.82839670  0.26934526  1
  H+  H369  1  0.40496970  0.05923748  0.94072788  1
  H+  H370  1  0.58171463  0.67482559  0.72792306  1
  H+  H371  1  0.90260121  0.80271375  0.26606352  1
  H+  H372  1  0.93250167  0.32088709  0.27740629  1
  H+  H373  1  0.03376095  0.13773038  0.73093510  1
  H+  H374  1  0.17105762  0.58079769  0.26748161  1
  H+  H375  1  0.07401680  0.91277670  0.06429624  1
  H+  H376  1  0.32428368  0.91424703  0.74100223  1
  H+  H377  1  0.83151407  0.29461168  0.21341415  1
  H+  H378  1  0.17682172  0.32391048  0.57079668  1
  H+  H379  1  0.33345206  0.41087557  0.43935889  1
  H+  H380  1  0.93454279  0.11644200  0.24013695  1
  H+  H381  1  0.41277417  0.07965608  0.55996349  1
  H+  H382  1  0.39510091  0.86964262  0.17089445  1
  H+  H383  1  0.31544595  0.65323199  0.75299585  1
  O2-  O384  1  0.08871438  0.17142102  0.14999075  1
  O2-  O385  1  0.08354414  0.16076559  0.47942174  1
  O2-  O386  1  0.08833484  0.08652853  0.85770560  1
  O2-  O387  1  0.09931799  0.42480995  0.14169307  1
  O2-  O388  1  0.09781866  0.39843595  0.48052829  1
  O2-  O389  1  0.07949760  0.41370985  0.80290719  1
  O2-  O390  1  0.08204162  0.66935935  0.15919615  1
  O2-  O391  1  0.06611245  0.64167497  0.48328571  1
  O2-  O392  1  0.09139710  0.66456241  0.81894419  1
  O2-  O393  1  0.06089804  0.89649199  0.13969577  1
  O2-  O394  1  0.09143657  0.91866439  0.47172389  1
  O2-  O395  1  0.07225539  0.91858804  0.82634430  1
  O2-  O396  1  0.35570551  0.18431807  0.14683744  1
  O2-  O397  1  0.33427602  0.17190534  0.48340461  1
  O2-  O398  1  0.42532425  0.16529948  0.81364508  1
  O2-  O399  1  0.33790791  0.41980696  0.14498531  1
  O2-  O400  1  0.33189416  0.40758700  0.48468481  1
  O2-  O401  1  0.41939067  0.48153279  0.79688642  1
  O2-  O402  1  0.33806471  0.66885119  0.14865899  1
  O2-  O403  1  0.32797300  0.65209457  0.48869083  1
  O2-  O404  1  0.31102649  0.65014625  0.79954384  1
  O2-  O405  1  0.34076353  0.91777076  0.14202607  1
  O2-  O406  1  0.33504733  0.91766181  0.46565929  1
  O2-  O407  1  0.32344681  0.89941299  0.81421042  1
  O2-  O408  1  0.58734866  0.16806052  0.14967090  1
  O2-  O409  1  0.57951949  0.16888004  0.47650275  1
  O2-  O410  1  0.59146283  0.18239985  0.79777909  1
  O2-  O411  1  0.58027221  0.42559889  0.17090225  1
  O2-  O412  1  0.57795166  0.42143834  0.48703241  1
  O2-  O413  1  0.59231933  0.41989168  0.81265938  1
  O2-  O414  1  0.58582616  0.67199364  0.15016160  1
  O2-  O415  1  0.54342902  0.68372276  0.47321738  1
  O2-  O416  1  0.56891319  0.68686336  0.80188605  1
  O2-  O417  1  0.60610967  0.92481686  0.15393436  1
  O2-  O418  1  0.58088064  0.91689757  0.48264957  1
  O2-  O419  1  0.59897392  0.92351205  0.81998522  1
  O2-  O420  1  0.81968459  0.11839463  0.13769808  1
  O2-  O421  1  0.83336304  0.16159987  0.48389901  1
  O2-  O422  1  0.83357223  0.15471251  0.80437328  1
  O2-  O423  1  0.83633025  0.43875461  0.14771006  1
  O2-  O424  1  0.81710387  0.41250202  0.47961571  1
  O2-  O425  1  0.83517397  0.41251930  0.87711424  1
  O2-  O426  1  0.85782970  0.70661603  0.15893492  1
  O2-  O427  1  0.82989805  0.70291443  0.48221877  1
  O2-  O428  1  0.84369716  0.66423363  0.80569832  1
  O2-  O429  1  0.82335651  0.89568808  0.15971332  1
  O2-  O430  1  0.87870745  0.91579351  0.46481615  1
  O2-  O431  1  0.83665087  0.91225451  0.80239792  1
  O2-  O432  1  0.13253543  0.05291353  0.19303099  1
  O2-  O433  1  0.16627570  0.08055803  0.52471076  1
  O2-  O434  1  0.29852345  0.20476489  0.79385658  1
  O2-  O435  1  0.17455306  0.33739623  0.18960586  1
  O2-  O436  1  0.17627358  0.32278693  0.52548281  1
  O2-  O437  1  0.09698595  0.30138742  0.87189485  1
  O2-  O438  1  0.16966238  0.58661515  0.18795262  1
  O2-  O439  1  0.16419610  0.56995048  0.52180911  1
  O2-  O440  1  0.16847548  0.57782948  0.85145704  1
  O2-  O441  1  0.16788825  0.84775095  0.17552379  1
  O2-  O442  1  0.13705919  0.80564824  0.53784463  1
  O2-  O443  1  0.15445104  0.82722455  0.84272916  1
  O2-  O444  1  0.42152699  0.09087405  0.18147490  1
  O2-  O445  1  0.41711168  0.08537995  0.51482920  1
  O2-  O446  1  0.40790790  0.04141996  0.87398564  1
  O2-  O447  1  0.41743087  0.33167197  0.19031254  1
  O2-  O448  1  0.42295690  0.32897032  0.53000113  1
  O2-  O449  1  0.41924928  0.34521205  0.85585563  1
  O2-  O450  1  0.41979649  0.58321979  0.18956730  1
  O2-  O451  1  0.51568900  0.60379674  0.50677012  1
  O2-  O452  1  0.40759749  0.60284268  0.85133554  1
  O2-  O453  1  0.42436776  0.83856842  0.18717474  1
  O2-  O454  1  0.40632648  0.82569604  0.51717759  1
  O2-  O455  1  0.42101800  0.83280808  0.85725931  1
  O2-  O456  1  0.67332397  0.08837969  0.20191744  1
  O2-  O457  1  0.66089252  0.08390802  0.51743796  1
  O2-  O458  1  0.67269032  0.08992783  0.85450405  1
  O2-  O459  1  0.66952693  0.33417458  0.18641588  1
  O2-  O460  1  0.65585888  0.33138471  0.51999916  1
  O2-  O461  1  0.69700325  0.35274415  0.80419449  1
  O2-  O462  1  0.67998636  0.60343031  0.19623105  1
  O2-  O463  1  0.63778990  0.57377269  0.53038418  1
  O2-  O464  1  0.68646258  0.57414214  0.86239849  1
  O2-  O465  1  0.66717553  0.83222825  0.19763699  1
  O2-  O466  1  0.66471848  0.83065794  0.52216307  1
  O2-  O467  1  0.67336248  0.83130648  0.85265450  1
  O2-  O468  1  0.94714080  0.15236634  0.20324488  1
  O2-  O469  1  0.91471501  0.07099785  0.51336774  1
  O2-  O470  1  0.95284898  0.08553938  0.79669377  1
  O2-  O471  1  0.88777301  0.31959464  0.19397897  1
  O2-  O472  1  0.90276369  0.33846287  0.52372936  1
  O2-  O473  1  0.91375426  0.32131857  0.83953570  1
  O2-  O474  1  0.91663719  0.59710802  0.19338673  1
  O2-  O475  1  0.89770961  0.57352133  0.51969517  1
  O2-  O476  1  0.92660371  0.59004295  0.85568659  1
  O2-  O477  1  0.90275310  0.79358435  0.18505326  1
  O2-  O478  1  0.81958541  0.84482732  0.50425461  1
  O2-  O479  1  0.90600652  0.82349704  0.85550333  1
  O2-  O480  1  0.18023556  0.09165339  0.33002334  1
  O2-  O481  1  0.14712511  0.07721444  0.65118283  1
  O2-  O482  1  0.17150678  0.08332474  0.98900221  1
  O2-  O483  1  0.16726103  0.32637376  0.31300099  1
  O2-  O484  1  0.17052322  0.32795035  0.65206767  1
  O2-  O485  1  0.16581037  0.33243118  0.98381095  1
  O2-  O486  1  0.17178758  0.58104621  0.31298873  1
  O2-  O487  1  0.16669446  0.58056923  0.64391276  1
  O2-  O488  1  0.19093553  0.56047925  0.97113271  1
  O2-  O489  1  0.15034679  0.81261371  0.32959252  1
  O2-  O490  1  0.15198192  0.83305884  0.65741286  1
  O2-  O491  1  0.16099145  0.84198067  0.97141971  1
  O2-  O492  1  0.42032135  0.06180161  0.30454795  1
  O2-  O493  1  0.41016074  0.07461048  0.64168448  1
  O2-  O494  1  0.40816521  0.06697535  0.98791930  1
  O2-  O495  1  0.40252257  0.33588147  0.31067214  1
  O2-  O496  1  0.42316875  0.33747240  0.65854223  1
  O2-  O497  1  0.40729611  0.32489347  0.98069775  1
  O2-  O498  1  0.41752842  0.58064252  0.31292268  1
  O2-  O499  1  0.39021726  0.58162438  0.60106490  1
  O2-  O500  1  0.42815965  0.58571306  0.97915737  1
  O2-  O501  1  0.42209667  0.82540524  0.31449014  1
  O2-  O502  1  0.39043639  0.83407023  0.64374106  1
  O2-  O503  1  0.40640592  0.82150461  0.97631682  1
  O2-  O504  1  0.67105274  0.07902164  0.32546790  1
  O2-  O505  1  0.65662591  0.08099372  0.64070403  1
  O2-  O506  1  0.67823915  0.04149971  0.97406313  1
  O2-  O507  1  0.67323139  0.30325282  0.30924406  1
  O2-  O508  1  0.64373997  0.32069570  0.63740683  1
  O2-  O509  1  0.64816892  0.32792092  0.97725021  1
  O2-  O510  1  0.66154612  0.59965952  0.32165884  1
  O2-  O511  1  0.67294889  0.58468028  0.64292779  1
  O2-  O512  1  0.67578509  0.58238792  0.98789539  1
  O2-  O513  1  0.66808162  0.83172335  0.31953211  1
  O2-  O514  1  0.67327190  0.83751408  0.64214133  1
  O2-  O515  1  0.67605217  0.82169852  0.97310459  1
  O2-  O516  1  0.91491397  0.07417651  0.31852791  1
  O2-  O517  1  0.90565318  0.07699770  0.63436941  1
  O2-  O518  1  0.92990620  0.08578597  0.98003198  1
  O2-  O519  1  0.92939244  0.32230110  0.32197599  1
  O2-  O520  1  0.91027904  0.33088468  0.65372403  1
  O2-  O521  1  0.94297194  0.32688437  0.96228737  1
  O2-  O522  1  0.91068777  0.56544171  0.31265742  1
  O2-  O523  1  0.90646580  0.56676772  0.64481296  1
  O2-  O524  1  0.91617871  0.59998597  0.97975596  1
  O2-  O525  1  0.90543911  0.81056844  0.31065131  1
  O2-  O526  1  0.91402339  0.81853381  0.64688169  1
  O2-  O527  1  0.90875889  0.81964664  0.97766316  1
  O2-  O528  1  0.09032061  0.17480379  0.02612263  1
  O2-  O529  1  0.08086969  0.16314197  0.35511212  1
  O2-  O530  1  0.06131769  0.15810078  0.69071039  1
  O2-  O531  1  0.10633163  0.42243568  0.02748939  1
  O2-  O532  1  0.09652578  0.41686832  0.35705932  1
  O2-  O533  1  0.08378777  0.41240403  0.68057799  1
  O2-  O534  1  0.04706905  0.71867272  0.04734306  1
  O2-  O535  1  0.07358304  0.64298305  0.35970136  1
  O2-  O536  1  0.07888834  0.66180002  0.68985625  1
  O2-  O537  1  0.07692466  0.91930734  0.01854124  1
  O2-  O538  1  0.07580645  0.89848514  0.34834024  1
  O2-  O539  1  0.07531549  0.91937048  0.69849711  1
  O2-  O540  1  0.33774564  0.16978660  0.03157293  1
  O2-  O541  1  0.33268771  0.19292558  0.36666579  1
  O2-  O542  1  0.31995410  0.15840559  0.65636253  1
  O2-  O543  1  0.33674754  0.41806857  0.02013733  1
  O2-  O544  1  0.33078644  0.41975402  0.35985687  1
  O2-  O545  1  0.34100810  0.42650193  0.68024091  1
  O2-  O546  1  0.34584659  0.66265874  0.02418186  1
  O2-  O547  1  0.33607495  0.65948298  0.35923325  1
  O2-  O548  1  0.32798067  0.66442907  0.68127649  1
  O2-  O549  1  0.32091741  0.90296586  0.01944690  1
  O2-  O550  1  0.32612562  0.89152630  0.34951969  1
  O2-  O551  1  0.32095633  0.91499661  0.69469497  1
  O2-  O552  1  0.58150966  0.16601025  0.02079509  1
  O2-  O553  1  0.57786485  0.15114647  0.35562709  1
  O2-  O554  1  0.58047912  0.16979183  0.67946616  1
  O2-  O555  1  0.58438731  0.42412611  0.01249198  1
  O2-  O556  1  0.56257314  0.43037198  0.36589858  1
  O2-  O557  1  0.59097250  0.41838314  0.68529806  1
  O2-  O558  1  0.59175592  0.66434246  0.02503273  1
  O2-  O559  1  0.57610279  0.67079040  0.35997281  1
  O2-  O560  1  0.58951669  0.66917106  0.68311017  1
  O2-  O561  1  0.57480556  0.88672956  0.01286632  1
  O2-  O562  1  0.58277106  0.91357367  0.35847256  1
  O2-  O563  1  0.59952371  0.91718006  0.69195943  1
  O2-  O564  1  0.82012097  0.19199340  0.03057368  1
  O2-  O565  1  0.83805717  0.16051963  0.36167992  1
  O2-  O566  1  0.82534953  0.15984700  0.67988609  1
  O2-  O567  1  0.82022524  0.44172233  0.02686520  1
  O2-  O568  1  0.83498446  0.39960494  0.35566570  1
  O2-  O569  1  0.81224314  0.40326611  0.70786738  1
  O2-  O570  1  0.83252036  0.67258000  0.01772300  1
  O2-  O571  1  0.89046635  0.68257743  0.37297212  1
  O2-  O572  1  0.83052102  0.65884184  0.68048881  1
  O2-  O573  1  0.81445591  0.94468098  0.04608324  1
  O2-  O574  1  0.82142201  0.91918036  0.35676996  1
  O2-  O575  1  0.83985635  0.91701044  0.67898479  1
