# generated using pymatgen
data_H2O
_symmetry_space_group_name_H-M   'P 1'
_cell_length_a   18.00008708
_cell_length_b   18.00032871
_cell_length_c   22.00963408
_cell_angle_alpha   90.02037254
_cell_angle_beta   90.00359640
_cell_angle_gamma   119.99656051
_symmetry_Int_Tables_number   1
_chemical_formula_structural   H2O
_chemical_formula_sum   'H384 O192'
_cell_volume   6176.08839024
_cell_formula_units_Z   192
loop_
 _symmetry_equiv_pos_site_id
 _symmetry_equiv_pos_as_xyz
  1  'x, y, z'
loop_
 _atom_type_symbol
 _atom_type_oxidation_number
  H+  1.0
  O2-  -2.0
loop_
 _atom_site_type_symbol
 _atom_site_label
 _atom_site_symmetry_multiplicity
 _atom_site_fract_x
 _atom_site_fract_y
 _atom_site_fract_z
 _atom_site_occupancy
  H+  H0  1  0.11841683  0.40022111  0.71164618  1
  H+  H1  1  0.12639832  0.52265096  0.17151721  1
  H+  H2  1  0.03017418  0.38955612  0.01318828  1
  H+  H3  1  0.92376790  0.85487894  0.22599508  1
  H+  H4  1  0.91494023  0.77188543  0.29210806  1
  H+  H5  1  0.11205223  0.72788791  0.16238909  1
  H+  H6  1  0.77932170  0.13181563  0.49129595  1
  H+  H7  1  0.62158736  0.25552324  0.35071852  1
  H+  H8  1  0.36437534  0.39365353  0.33677663  1
  H+  H9  1  0.52214948  0.63597234  0.67493652  1
  H+  H10  1  0.60488353  0.46906140  0.66983664  1
  H+  H11  1  0.85989374  0.85207212  0.66389480  1
  H+  H12  1  0.76364980  0.63401654  0.34404450  1
  H+  H13  1  0.38034631  0.39361086  0.67978560  1
  H+  H14  1  0.88279271  0.10144493  0.50586115  1
  H+  H15  1  0.35602999  1.01773335  0.31800235  1
  H+  H16  1  0.61568513  0.10229048  0.32455431  1
  H+  H17  1  0.85780564  0.73655846  0.84787542  1
  H+  H18  1  0.90618929  0.06779467  0.56611267  1
  H+  H19  1  0.64066982  0.10910405  0.16836275  1
  H+  H20  1  0.64498541  0.60186760  0.99038581  1
  H+  H21  1  -0.02371996  0.36770789  0.67173431  1
  H+  H22  1  0.38850163  0.84412778  1.00397433  1
  H+  H23  1  0.62910182  0.59989728  0.65676228  1
  H+  H24  1  0.64783727  0.02595844  0.50522195  1
  H+  H25  1  0.01305429  0.12717326  0.49063031  1
  H+  H26  1  0.87958471  0.01970822  0.99085173  1
  H+  H27  1  0.21959157  0.85400090  0.33241519  1
  H+  H28  1  0.14157656  0.86830421  0.83902021  1
  H+  H29  1  -0.02876074  0.61578242  0.17549731  1
  H+  H30  1  0.98509708  0.85745863  0.32802385  1
  H+  H31  1  0.97548493  0.61625225  0.83686491  1
  H+  H32  1  0.13159098  0.01056605  0.48897559  1
  H+  H33  1  0.76749430  0.37896552  0.35376639  1
  H+  H34  1  0.27489623  0.64459907  0.82616132  1
  H+  H35  1  0.10494220  0.87689080  0.50074022  1
  H+  H36  1  0.13017288  0.76639542  0.33059223  1
  H+  H37  1  0.33336122  0.07208276  0.01929182  1
  H+  H38  1  0.88055827  0.87476231  0.82662188  1
  H+  H39  1  0.10263444  0.12807317  0.48583308  1
  H+  H40  1  0.86400767  0.64428709  0.51093968  1
  H+  H41  1  0.37633830  0.24687789  0.66691971  1
  H+  H42  1  0.36302136  0.88866401  0.82713253  1
  H+  H43  1  0.10320694  0.71624270  0.49040056  1
  H+  H44  1  0.46927319  0.86393725  0.84879996  1
  H+  H45  1  0.11474861  0.89015676  0.16397323  1
  H+  H46  1  0.60563583  0.63445792  0.49414569  1
  H+  H47  1  0.11360745  0.22360612  0.16262653  1
  H+  H48  1  0.13568535  0.35747710  0.00425187  1
  H+  H49  1  0.88336984  0.25770771  0.33987067  1
  H+  H50  1  0.66623860  0.59872057  0.25619674  1
  H+  H51  1  0.78299632  0.62816446  0.00088348  1
  H+  H52  1  0.13190087  0.54168051  0.85355739  1
  H+  H53  1  0.63339342  0.88191707  0.17329016  1
  H+  H54  1  0.72242576  0.36562362  0.50949558  1
  H+  H55  1  0.00718863  0.93234819  0.79536499  1
  H+  H56  1  0.40001739  0.53075657  0.66153575  1
  H+  H57  1  0.64717908  0.26443946  0.83997080  1
  H+  H58  1  0.18169783  0.33160978  0.63212539  1
  H+  H59  1  0.38342908  0.36848082  0.50393395  1
  H+  H60  1  0.97772150  0.11211748  0.17588900  1
  H+  H61  1  0.26846906  0.87254120  1.01430657  1
  H+  H62  1  0.89599607  0.52600537  0.98717945  1
  H+  H63  1  0.83451939  0.42018440  0.73154001  1
  H+  H64  1  0.13764673  0.52518922  0.50528991  1
  H+  H65  1  0.46859581  0.83627437  0.65418935  1
  H+  H66  1  0.87217140  0.97648057  0.49214716  1
  H+  H67  1  0.81649707  0.65783308  0.45536722  1
  H+  H68  1  0.22563654  0.86217929  0.17748629  1
  H+  H69  1  0.63967676  0.27137690  0.50865593  1
  H+  H70  1  0.63746851  0.36471302  0.65902338  1
  H+  H71  1  0.60665081  0.38047434  0.35880798  1
  H+  H72  1  0.89255322  0.11876811  0.19176160  1
  H+  H73  1  0.90161526  0.32742225  0.57829622  1
  H+  H74  1  0.62670518  1.01149163  -0.00456714  1
  H+  H75  1  0.61649794  0.13326206  0.49036439  1
  H+  H76  1  0.84762752  0.96913063  0.67666386  1
  H+  H77  1  0.48155263  0.36505140  0.35344902  1
  H+  H78  1  0.02598926  0.63776053  0.67873192  1
  H+  H79  1  0.53759086  0.40444651  -0.00019548  1
  H+  H80  1  0.89511730  0.61503367  0.99155355  1
  H+  H81  1  0.24563749  0.60630953  0.33297210  1
  H+  H82  1  0.87214202  0.10621853  0.65931465  1
  H+  H83  1  0.63283618  0.77589363  0.32138489  1
  H+  H84  1  0.71838847  0.85979689  0.67547882  1
  H+  H85  1  0.63477269  0.77537750  0.51645522  1
  H+  H86  1  0.87838995  0.51707141  0.33064394  1
  H+  H87  1  0.38112830  0.72391312  0.47833344  1
  H+  H88  1  0.77091463  0.88146685  0.00534949  1
  H+  H89  1  0.89377283  0.36716164  0.99443495  1
  H+  H90  1  0.52262734  0.87067938  1.00683151  1
  H+  H91  1  0.48096437  0.36407594  0.65984992  1
  H+  H92  1  0.81136742  0.64787949  0.73911704  1
  H+  H93  1  0.15108489  0.64091211  0.99655093  1
  H+  H94  1  0.85990206  0.98337561  0.15960689  1
  H+  H95  1  0.38214776  0.77504488  0.83856931  1
  H+  H96  1  0.41692947  0.33851113  0.60001870  1
  H+  H97  1  0.33786062  0.61918235  0.12118373  1
  H+  H98  1  0.77832304  0.39127523  0.66975383  1
  H+  H99  1  0.10195027  0.97824345  0.82071285  1
  H+  H100  1  0.85524690  0.37818186  0.34963866  1
  H+  H101  1  0.87258662  0.96644242  0.33901634  1
  H+  H102  1  0.85730484  0.73306334  0.17571800  1
  H+  H103  1  0.98702598  0.09824015  0.32414570  1
  H+  H104  1  0.27226663  0.38934444  1.00800676  1
  H+  H105  1  0.88177894  0.13396709  0.34228935  1
  H+  H106  1  0.63181328  0.04812777  0.63981811  1
  H+  H107  1  0.60238471  0.98251187  0.84042707  1
  H+  H108  1  0.71639007  0.61405644  0.17318964  1
  H+  H109  1  0.21554554  0.84918401  0.50354572  1
  H+  H110  1  0.77775822  0.38649536  -0.00309302  1
  H+  H111  1  0.95522275  0.09526984  0.65968238  1
  H+  H112  1  0.37215898  0.24463401  0.82295689  1
  H+  H113  1  0.55125477  0.96286086  0.71078862  1
  H+  H114  1  0.86118465  0.40028298  0.50102435  1
  H+  H115  1  0.39698149  0.87190413  0.17240125  1
  H+  H116  1  0.34228439  0.22281146  0.33459207  1
  H+  H117  1  0.35108362  0.71045947  0.66794657  1
  H+  H118  1  0.36065623  0.83796006  0.33301908  1
  H+  H119  1  0.63190328  0.58882117  0.84404451  1
  H+  H120  1  0.63989534  0.13844293  0.65174990  1
  H+  H121  1  0.59954480  0.61392354  0.12568181  1
  H+  H122  1  0.77994949  0.39504254  0.14372347  1
  H+  H123  1  0.29926762  0.40487010  0.68667219  1
  H+  H124  1  0.28379146  0.13929305  0.48842608  1
  H+  H125  1  0.17964218  0.61962835  0.91240303  1
  H+  H126  1  0.32819610  0.90866357  0.10918399  1
  H+  H127  1  0.38605900  0.60586037  0.49903524  1
  H+  H128  1  0.98201995  0.87904728  0.16757935  1
  H+  H129  1  0.10955889  0.51251627  0.31493542  1
  H+  H130  1  0.87446027  0.60334064  0.33241758  1
  H+  H131  1  0.03092695  0.39638978  0.15946397  1
  H+  H132  1  0.39562302  0.54112586  0.84688993  1
  H+  H133  1  0.11702125  0.60846493  0.32030323  1
  H+  H134  1  0.39708614  0.12141026  0.17112770  1
  H+  H135  1  0.02607207  0.40700098  0.84363181  1
  H+  H136  1  0.10694715  0.21931968  1.00955300  1
  H+  H137  1  0.01768554  0.87747891  0.01193172  1
  H+  H138  1  0.14415217  0.32558964  0.84055703  1
  H+  H139  1  0.61270023  0.72180967  0.67827512  1
  H+  H140  1  0.17152269  0.08188579  0.43993332  1
  H+  H141  1  0.69876659  0.13419337  0.81991289  1
  H+  H142  1  0.52844482  0.15138720  0.67351932  1
  H+  H143  1  0.66939712  0.57095923  0.92517308  1
  H+  H144  1  0.89099330  0.52674522  0.66647074  1
  H+  H145  1  0.33161495  0.42126985  0.06684026  1
  H+  H146  1  0.09321466  0.67172714  0.76678383  1
  H+  H147  1  0.88356648  0.53178723  0.51594664  1
  H+  H148  1  0.48930208  0.45578207  0.22308407  1
  H+  H149  1  0.86751757  0.71740237  0.01136729  1
  H+  H150  1  0.40058148  0.33214344  0.39469938  1
  H+  H151  1  0.61291409  0.74479226  0.83094713  1
  H+  H152  1  0.16964076  0.32806283  0.25973794  1
  H+  H153  1  0.36340406  0.40186908  0.16464464  1
  H+  H154  1  0.60068636  0.16220832  0.76017671  1
  H+  H155  1  0.50212951  0.12670175  0.34628038  1
  H+  H156  1  0.32663809  0.19983627  -0.03796268  1
  H+  H157  1  0.10357192  0.12918226  0.00778420  1
  H+  H158  1  0.08823160  0.92225784  0.10454220  1
  H+  H159  1  0.62681414  0.85386454  0.67404088  1
  H+  H160  1  -0.03149294  0.10890588  -0.00859262  1
  H+  H161  1  0.08684069  0.92766919  0.65751658  1
  H+  H162  1  0.73255694  0.85649665  0.32649118  1
  H+  H163  1  0.95237065  0.81683634  0.85165582  1
  H+  H164  1  0.49307347  0.11754413  0.82583594  1
  H+  H165  1  0.53096585  0.42389881  0.50426871  1
  H+  H166  1  0.38551523  0.61097670  0.65867698  1
  H+  H167  1  0.22031041  0.11517929  0.27956331  1
  H+  H168  1  0.24125156  0.39776201  0.84827545  1
  H+  H169  1  0.01362486  0.63043083  0.49473225  1
  H+  H170  1  0.61782803  0.22548935  0.15522012  1
  H+  H171  1  0.81508874  0.28522671  0.54315866  1
  H+  H172  1  0.23654604  0.36218019  0.32256864  1
  H+  H173  1  0.36232295  0.20568318  0.98309679  1
  H+  H174  1  0.78193577  0.14318790  0.19369478  1
  H+  H175  1  0.88436078  0.85849607  1.00014960  1
  H+  H176  1  0.63941826  0.36088428  0.99046761  1
  H+  H177  1  0.86864261  0.23236670  0.18469940  1
  H+  H178  1  0.86849898  0.21808939  0.49857787  1
  H+  H179  1  0.29515751  0.15241095  0.16927204  1
  H+  H180  1  0.15710327  0.85571386  0.65980272  1
  H+  H181  1  0.59030850  0.43612886  0.40741468  1
  H+  H182  1  0.51343576  0.64973973  0.31864509  1
  H+  H183  1  0.37096060  0.40190797  0.83676421  1
  H+  H184  1  0.85583668  0.13475353  -0.03270769  1
  H+  H185  1  0.10258207  0.96853987  0.00645639  1
  H+  H186  1  0.15559824  0.03514180  0.18537274  1
  H+  H187  1  0.73228143  0.87898258  0.17282257  1
  H+  H188  1  1.01657305  0.88033799  0.50255966  1
  H+  H189  1  0.08765996  0.10791992  0.66127417  1
  H+  H190  1  0.37826425  0.15848290  0.81596337  1
  H+  H191  1  0.28558917  0.88035447  0.66828798  1
  H+  H192  1  0.72198267  0.69119965  0.27820456  1
  H+  H193  1  0.20887368  0.08668818  0.99851534  1
  H+  H194  1  0.34401810  0.18651042  0.73326146  1
  H+  H195  1  0.11164004  0.62994829  0.67468789  1
  H+  H196  1  0.63168592  0.84600027  0.99667324  1
  H+  H197  1  0.36781155  -0.01998835  0.82025686  1
  H+  H198  1  0.24976561  0.60166854  0.03716095  1
  H+  H199  1  0.39059531  0.85437635  0.65515106  1
  H+  H200  1  0.61926583  0.24195407  0.67139327  1
  H+  H201  1  0.40088881  0.95939285  0.37760704  1
  H+  H202  1  0.00822389  0.38454642  0.32866935  1
  H+  H203  1  0.38762532  0.53380652  0.99901639  1
  H+  H204  1  0.17626418  0.05313868  0.64468428  1
  H+  H205  1  0.27343075  0.38632749  0.47749198  1
  H+  H206  1  0.84912897  0.71305543  0.36623407  1
  H+  H207  1  0.02403353  0.63527245  0.00631870  1
  H+  H208  1  0.52774894  0.13460651  0.49991539  1
  H+  H209  1  0.14340316  0.26393708  0.32429460  1
  H+  H210  1  0.11291170  0.38531651  0.47245679  1
  H+  H211  1  0.94120584  0.84141830  0.67053336  1
  H+  H212  1  0.88618907  0.61279512  0.67051792  1
  H+  H213  1  0.52140167  0.63870200  0.49847907  1
  H+  H214  1  0.36283103  0.47616492  0.48578191  1
  H+  H215  1  0.12576266  0.42954506  0.84381038  1
  H+  H216  1  0.38671839  0.03165793  0.66310762  1
  H+  H217  1  0.22662176  0.36557777  0.17474445  1
  H+  H218  1  0.39390808  0.11764101  0.50536307  1
  H+  H219  1  0.63576064  0.51955717  0.16217155  1
  H+  H220  1  0.64567653  0.89844862  0.34575006  1
  H+  H221  1  0.26288614  0.63620315  0.13654974  1
  H+  H222  1  0.64825420  0.98979999  0.71145663  1
  H+  H223  1  0.23190138  0.87177230  0.83720632  1
  H+  H224  1  0.83931721  0.42316933  0.05497357  1
  H+  H225  1  0.62533860  0.88841691  0.50738507  1
  H+  H226  1  0.70901351  0.10097968  0.97822889  1
  H+  H227  1  0.48227148  0.10270120  0.99903861  1
  H+  H228  1  0.13795181  0.36668525  0.17844752  1
  H+  H229  1  0.86623456  0.48595108  0.15227078  1
  H+  H230  1  0.53111473  0.39261785  0.15083432  1
  H+  H231  1  0.51596717  0.64691160  0.82818618  1
  H+  H232  1  0.36957777  0.14667087  0.67190062  1
  H+  H233  1  0.85494662  0.64337225  0.18170261  1
  H+  H234  1  0.13763113  0.63808484  0.84281893  1
  H+  H235  1  0.60168486  0.65062057  0.32651159  1
  H+  H236  1  0.10502359  0.19807581  0.81444884  1
  H+  H237  1  0.89387994  0.38126655  0.15924273  1
  H+  H238  1  0.12959544  0.51963715  0.66308270  1
  H+  H239  1  0.65113739  1.03688190  0.32883744  1
  H+  H240  1  0.39440755  0.28532007  0.50556880  1
  H+  H241  1  0.09116542  0.32141233  0.62636870  1
  H+  H242  1  0.32511961  0.90311093  0.54943123  1
  H+  H243  1  0.61557175  0.47227851  0.82813552  1
  H+  H244  1  0.56515818  0.90971967  0.35132170  1
  H+  H245  1  -0.03591399  0.10125637  0.83537092  1
  H+  H246  1  0.13968983  0.10436923  0.83663430  1
  H+  H247  1  0.12005827  0.61558324  0.17037346  1
  H+  H248  1  0.26259579  0.62214836  0.67025691  1
  H+  H249  1  0.82082466  0.17117407  -0.08326727  1
  H+  H250  1  0.63640748  0.27013882  0.99250530  1
  H+  H251  1  0.51768727  0.61591373  1.02332045  1
  H+  H252  1  0.39941990  0.39840609  0.99071268  1
  H+  H253  1  0.07267490  0.65819109  0.39848187  1
  H+  H254  1  0.36982961  0.60575385  0.30713464  1
  H+  H255  1  0.36304489  0.97782426  0.16382168  1
  H+  H256  1  0.36117479  0.95572573  0.01814933  1
  H+  H257  1  0.57910427  0.67339475  0.76498352  1
  H+  H258  1  0.12039256  0.73661081  0.82510037  1
  H+  H259  1  0.77432343  0.38888111  0.82028364  1
  H+  H260  1  0.35196640  0.48249184  0.15317225  1
  H+  H261  1  0.63894529  0.36738674  0.15242293  1
  H+  H262  1  0.83795587  0.70793541  0.67970893  1
  H+  H263  1  0.86671602  0.87455866  0.33994054  1
  H+  H264  1  0.13060001  0.26726708  0.47977727  1
  H+  H265  1  0.10920697  0.88238212  0.34452958  1
  H+  H266  1  0.61987291  -0.02083588  0.16239976  1
  H+  H267  1  0.02772639  0.39028639  0.47763291  1
  H+  H268  1  0.89132587  0.27685360  0.98562676  1
  H+  H269  1  0.40504466  0.31457044  0.98773890  1
  H+  H270  1  0.60677657  0.12703785  0.00537894  1
  H+  H271  1  0.46145847  0.60837562  0.14562802  1
  H+  H272  1  0.33761186  0.16754709  0.42917521  1
  H+  H273  1  0.71452550  0.59513168  0.65870290  1
  H+  H274  1  0.90500461  0.28228943  0.84431694  1
  H+  H275  1  0.52823241  0.88739050  0.16536827  1
  H+  H276  1  0.23199104  1.11306540  0.83773764  1
  H+  H277  1  0.52827578  0.13695323  0.16025436  1
  H+  H278  1  0.86177766  0.47822396  0.82112260  1
  H+  H279  1  0.43388861  0.81569429  0.32909398  1
  H+  H280  1  0.77396311  0.14807178  0.67195878  1
  H+  H281  1  0.32851802  0.69608542  0.33062682  1
  H+  H282  1  0.12460688  0.60554875  0.50913074  1
  H+  H283  1  0.87435286  0.88080434  0.49553752  1
  H+  H284  1  0.15269974  0.12095732  0.18456078  1
  H+  H285  1  0.39127961  0.62760830  0.84213296  1
  H+  H286  1  0.86583258  0.23129162  0.67660666  1
  H+  H287  1  0.13457939  0.86289130  -0.00266929  1
  H+  H288  1  0.08647636  0.19531298  0.66366174  1
  H+  H289  1  0.15660622  0.07995958  0.58154050  1
  H+  H290  1  0.84560028  0.62023638  0.82818493  1
  H+  H291  1  0.07797795  0.42164975  0.38112796  1
  H+  H292  1  0.66210901  0.83221259  0.57633736  1
  H+  H293  1  0.67897508  0.09970738  0.55660288  1
  H+  H294  1  0.64002160  0.54238168  0.55419675  1
  H+  H295  1  0.33139290  0.42751599  0.38952542  1
  H+  H296  1  0.42421763  0.03315961  0.94862732  1
  H+  H297  1  0.56403175  0.14957591  0.40594615  1
  H+  H298  1  0.42778621  0.35461470  0.89494984  1
  H+  H299  1  0.58729568  0.41788541  0.08765720  1
  H+  H300  1  0.65833386  0.81690375  0.90378906  1
  H+  H301  1  0.16293612  0.07723019  0.93446800  1
  H+  H302  1  0.68629042  0.35893826  0.20953509  1
  H+  H303  1  0.84293935  0.91458773  0.73643147  1
  H+  H304  1  0.86014308  0.89488424  0.15742946  1
  H+  H305  1  0.39352618  0.02833282  0.51335204  1
  H+  H306  1  0.43568270  0.11235460  0.88107605  1
  H+  H307  1  0.65656469  0.07550585  0.23135824  1
  H+  H308  1  0.92067457  0.59044477  0.57599679  1
  H+  H309  1  0.93185137  0.33836765  0.90631812  1
  H+  H310  1  0.12664359  0.47376366  0.01397993  1
  H+  H311  1  0.63263061  0.48338887  0.00050766  1
  H+  H312  1  0.25683377  0.02156452  0.06460211  1
  H+  H313  1  0.16788643  0.33812282  0.94275566  1
  H+  H314  1  0.78916882  0.12464389  0.07218286  1
  H+  H315  1  0.66743044  0.33288544  0.59970364  1
  H+  H316  1  0.41561177  0.82859712  0.22753865  1
  H+  H317  1  0.33540536  0.65385326  0.42596455  1
  H+  H318  1  0.60900527  0.37870080  0.82212966  1
  H+  H319  1  0.15543703  0.57434085  0.59955114  1
  H+  H320  1  0.85348749  0.15987221  0.40434977  1
  H+  H321  1  0.41061467  0.57385548  0.56069229  1
  H+  H322  1  0.42726320  0.82237121  0.55595842  1
  H+  H323  1  0.90789945  0.07102307  0.89561775  1
  H+  H324  1  0.84715139  0.91319033  0.42801146  1
  H+  H325  1  0.92126224  0.58467655  0.89780106  1
  H+  H326  1  1.01262274  0.63302688  0.33930852  1
  H+  H327  1  0.41467507  0.09127889  0.60397757  1
  H+  H328  1  0.34385931  0.91475615  0.72757709  1
  H+  H329  1  0.16473418  0.81994590  0.56603293  1
  H+  H330  1  0.16790417  0.83561758  0.93839364  1
  H+  H331  1  0.07222339  0.90357044  0.40351462  1
  H+  H332  1  0.48349147  0.37319758  0.83407804  1
  H+  H333  1  0.38415425  0.52689936  0.30449481  1
  H+  H334  1  0.34675768  0.43501064  0.77829704  1
  H+  H335  1  0.83003691  0.17099980  0.77123473  1
  H+  H336  1  0.90650521  0.81753852  0.94344594  1
  H+  H337  1  0.89419280  0.97085349  0.82408134  1
  H+  H338  1  0.36460079  0.10865215  0.31975855  1
  H+  H339  1  0.14542127  0.58107123  0.23985600  1
  H+  H340  1  0.32840672  0.66425355  0.76426391  1
  H+  H341  1  0.49589780  0.86815920  0.50210431  1
  H+  H342  1  0.87994827  0.76928541  0.51157382  1
  H+  H343  1  0.38205127  0.88354633  0.50584574  1
  H+  H344  1  0.58149175  0.16183496  0.06497657  1
  H+  H345  1  0.62977790  0.85911884  0.85122346  1
  H+  H346  1  0.90458840  0.83197890  0.56985245  1
  H+  H347  1  0.63505233  0.75884610  1.00054507  1
  H+  H348  1  0.67390636  0.84820059  0.23663010  1
  H+  H349  1  0.85076697  0.12903474  0.82663674  1
  H+  H350  1  0.42066840  0.08552162  0.22955265  1
  H+  H351  1  0.83419892  0.42798932  0.44008546  1
  H+  H352  1  0.93685319  0.37814068  0.22077377  1
  H+  H353  1  0.88766091  0.36888646  0.66698993  1
  H+  H354  1  0.16276091  0.82943024  0.23489177  1
  H+  H355  1  0.91021024  0.57852085  0.23397133  1
  H+  H356  1  0.33619338  0.15538320  0.10667871  1
  H+  H357  1  0.08016926  0.66797226  0.10199163  1
  H+  H358  1  0.14842719  0.76309372  0.65909812  1
  H+  H359  1  0.09736081  0.91961149  0.72845224  1
  H+  H360  1  0.10976432  0.72824982  0.01046175  1
  H+  H361  1  0.08771033  0.16611901  0.39560970  1
  H+  H362  1  0.82871575  0.91929604  0.06465636  1
  H+  H363  1  0.15578891  0.32393143  0.53705417  1
  H+  H364  1  0.32713443  0.90031969  0.42017450  1
  H+  H365  1  0.58130802  0.91642268  0.78879132  1
  H+  H366  1  0.07768855  0.43773620  0.75469865  1
  H+  H367  1  0.43222614  0.60215021  0.94638733  1
  H+  H368  1  0.06940451  0.13674904  0.75813733  1
  H+  H369  1  0.82735125  0.13079257  0.09004684  1
  H+  H370  1  0.43327354  0.35947587  0.23996644  1
  H+  H371  1  0.13989869  0.14911544  0.34338439  1
  H+  H372  1  0.40953034  0.59241417  0.20873865  1
  H+  H373  1  0.86806418  0.29196812  0.28004954  1
  H+  H374  1  0.41483826  0.82461687  0.94042124  1
  H+  H375  1  0.08366459  0.16115496  0.10524901  1
  H+  H376  1  0.57761698  0.41094459  0.73106920  1
  H+  H377  1  0.60859531  0.92422156  0.44438995  1
  H+  H378  1  0.74742080  0.60784846  0.83320823  1
  H+  H379  1  0.92300886  0.06932282  0.26770793  1
  H+  H380  1  0.66754559  0.32561065  0.89722444  1
  H+  H381  1  0.65028631  0.31388849  0.29411669  1
  H+  H382  1  0.09588042  0.42457897  0.10411751  1
  H+  H383  1  0.58478436  0.90292835  0.06498693  1
  O2-  O384  1  0.08606299  0.16234552  0.15070493  1
  O2-  O385  1  0.07218767  0.15853043  0.47254305  1
  O2-  O386  1  0.07284902  0.13755417  0.80391269  1
  O2-  O387  1  0.09396001  0.42781937  0.15004808  1
  O2-  O388  1  0.08582662  0.42035046  0.46121982  1
  O2-  O389  1  0.08861505  0.45247236  0.82933328  1
  O2-  O390  1  0.07986519  0.66648555  0.14780583  1
  O2-  O391  1  0.07177617  0.65641210  0.47490829  1
  O2-  O392  1  0.09338128  0.67486392  0.81284902  1
  O2-  O393  1  0.09012122  0.92603791  0.14991687  1
  O2-  O394  1  0.07648043  0.90898489  0.48593132  1
  O2-  O395  1  0.05836481  0.92531337  0.79927186  1
  O2-  O396  1  0.35167865  0.17586607  0.14886684  1
  O2-  O397  1  0.34399277  0.17136145  0.47398749  1
  O2-  O398  1  0.34374099  0.18535712  0.80386119  1
  O2-  O399  1  0.32376243  0.41822043  0.14570871  1
  O2-  O400  1  0.33518138  0.41677740  0.46585099  1
  O2-  O401  1  0.34132493  0.43417162  0.82324471  1
  O2-  O402  1  0.29773997  0.63542032  0.10290252  1
  O2-  O403  1  0.34902871  0.66191397  0.46974999  1
  O2-  O404  1  0.33371207  0.67078473  0.80970362  1
  O2-  O405  1  0.32989208  0.91502333  0.15454587  1
  O2-  O406  1  0.34381621  0.91165563  0.50697408  1
  O2-  O407  1  0.33442952  0.91906536  0.80789110  1
  O2-  O408  1  0.58788895  0.16430716  0.14306146  1
  O2-  O409  1  0.58410160  0.16303641  0.47867507  1
  O2-  O410  1  0.60002127  0.15235662  0.80570129  1
  O2-  O411  1  0.58933895  0.41551770  0.13415936  1
  O2-  O412  1  0.59141719  0.45454135  0.48977410  1
  O2-  O413  1  0.58066723  0.41084628  0.80799831  1
  O2-  O414  1  0.56415129  0.63664652  0.10671391  1
  O2-  O415  1  0.58384322  0.67454391  0.49076023  1
  O2-  O416  1  0.57818598  0.67848781  0.81166855  1
  O2-  O417  1  0.59068064  0.91564544  0.15062023  1
  O2-  O418  1  0.59850943  0.92310103  0.48900463  1
  O2-  O419  1  0.57978184  0.92058747  0.83334171  1
  O2-  O420  1  0.84392693  0.17603083  0.20450073  1
  O2-  O421  1  0.84271650  0.15897163  0.48242971  1
  O2-  O422  1  0.82753514  0.16748771  0.81646167  1
  O2-  O423  1  0.84214074  0.42757308  0.13302791  1
  O2-  O424  1  0.83223783  0.43077262  0.48550947  1
  O2-  O425  1  0.83215132  0.42065966  0.80185491  1
  O2-  O426  1  0.82182533  0.67290971  0.18907464  1
  O2-  O427  1  0.83296950  0.67472580  0.49790645  1
  O2-  O428  1  0.81109713  0.64678177  0.81519987  1
  O2-  O429  1  0.82627689  0.92259813  0.14418066  1
  O2-  O430  1  0.84865366  0.91587226  0.47468409  1
  O2-  O431  1  0.89801192  0.92588565  0.79997539  1
  O2-  O432  1  0.18624769  0.09507368  0.20088293  1
  O2-  O433  1  0.16555252  0.07589737  0.48414745  1
  O2-  O434  1  0.17271130  0.07814838  0.85344118  1
  O2-  O435  1  0.16653285  0.33413861  0.19235453  1
  O2-  O436  1  0.16244139  0.32895402  0.49257915  1
  O2-  O437  1  0.18113072  0.37684659  0.86403650  1
  O2-  O438  1  0.14965092  0.58354838  0.18902632  1
  O2-  O439  1  0.15419216  0.57774756  0.52875073  1
  O2-  O440  1  0.16874104  0.60697849  0.86342560  1
  O2-  O441  1  0.16336225  0.82978182  0.18962980  1
  O2-  O442  1  0.15735853  0.82188373  0.52061104  1
  O2-  O443  1  0.17171785  0.83919959  0.85368739  1
  O2-  O444  1  0.42409682  0.08615298  0.18463864  1
  O2-  O445  1  0.42207981  0.08911752  0.52669049  1
  O2-  O446  1  0.43268683  0.10018112  0.83752118  1
  O2-  O447  1  0.45101627  0.39917036  0.20575206  1
  O2-  O448  1  0.41667081  0.34329059  0.52310113  1
  O2-  O449  1  0.42204060  0.34654464  0.84987741  1
  O2-  O450  1  0.40356278  0.58503498  0.16356050  1
  O2-  O451  1  0.41023779  0.56955006  0.51578564  1
  O2-  O452  1  0.42685224  0.60327535  0.85798091  1
  O2-  O453  1  0.43082764  0.84445205  0.18482599  1
  O2-  O454  1  0.43196564  0.83471681  0.51173060  1
  O2-  O455  1  0.40642796  0.83350132  0.85664656  1
  O2-  O456  1  0.66709455  0.07665972  0.18589763  1
  O2-  O457  1  0.67787851  0.09037014  0.51195302  1
  O2-  O458  1  0.63661492  0.09501903  0.81207885  1
  O2-  O459  1  0.67430212  0.34070572  0.16733583  1
  O2-  O460  1  0.66551914  0.32841434  0.52820499  1
  O2-  O461  1  0.66630125  0.32407836  0.85173477  1
  O2-  O462  1  0.65205298  0.57829352  0.17665196  1
  O2-  O463  1  0.62591951  0.54315259  0.51060956  1
  O2-  O464  1  0.66178028  0.55922495  0.85777915  1
  O2-  O465  1  0.67154071  0.85110613  0.19047484  1
  O2-  O466  1  0.66403020  0.83627040  0.53164142  1
  O2-  O467  1  0.65456954  0.82144347  0.85838222  1
  O2-  O468  1  0.91815362  0.08000023  0.19249539  1
  O2-  O469  1  0.91193066  0.06894023  0.52065733  1
  O2-  O470  1  0.90417371  0.06918475  0.84993350  1
  O2-  O471  1  0.92770480  0.35650560  0.17919526  1
  O2-  O472  1  0.87690141  0.31410519  0.53584279  1
  O2-  O473  1  0.94051583  0.34033793  0.86140269  1
  O2-  O474  1  0.91032965  0.58183257  0.18866825  1
  O2-  O475  1  0.91855847  0.59235280  0.53054737  1
  O2-  O476  1  0.91625070  0.58374829  0.85227114  1
  O2-  O477  1  0.92068476  0.85202402  0.18117284  1
  O2-  O478  1  0.91176300  0.83379393  0.52475691  1
  O2-  O479  1  0.89392137  0.79741588  0.86573006  1
  O2-  O480  1  0.22202660  0.12470078  0.32488308  1
  O2-  O481  1  0.13362624  0.06086070  0.62240682  1
  O2-  O482  1  0.15365210  0.07339228  0.97921729  1
  O2-  O483  1  0.17396434  0.32530191  0.30716179  1
  O2-  O484  1  0.12385310  0.29277488  0.61733781  1
  O2-  O485  1  0.16565724  0.32774688  0.98701154  1
  O2-  O486  1  0.14320236  0.57637292  0.30012170  1
  O2-  O487  1  0.16051329  0.57827886  0.64615491  1
  O2-  O488  1  0.19997106  0.63987152  0.97303995  1
  O2-  O489  1  0.16168321  0.82744563  0.31546354  1
  O2-  O490  1  0.18246047  0.82255544  0.64130380  1
  O2-  O491  1  0.16618968  0.83301117  0.98338131  1
  O2-  O492  1  0.39681804  0.07811764  0.31018541  1
  O2-  O493  1  0.41277164  0.09254456  0.64968806  1
  O2-  O494  1  0.42037994  0.06541518  0.98283004  1
  O2-  O495  1  0.41468064  0.33409603  0.35158446  1
  O2-  O496  1  0.41745109  0.33396067  0.64580737  1
  O2-  O497  1  0.43449171  0.37367942  0.97279727  1
  O2-  O498  1  0.40709884  0.58545422  0.28784647  1
  O2-  O499  1  0.42286478  0.58839751  0.64331102  1
  O2-  O500  1  0.43056113  0.59470889  0.99074562  1
  O2-  O501  1  0.37995095  0.80304774  0.31008682  1
  O2-  O502  1  0.41126842  0.81616298  0.63782916  1
  O2-  O503  1  0.42371619  0.82293552  0.98454598  1
  O2-  O504  1  0.64961576  0.08086716  0.30320565  1
  O2-  O505  1  0.67175648  0.10936347  0.63471758  1
  O2-  O506  1  0.64561043  0.06956765  0.97880000  1
  O2-  O507  1  0.65645268  0.31806702  0.33808913  1
  O2-  O508  1  0.66927821  0.33512158  0.64624260  1
  O2-  O509  1  0.66898623  0.32957050  0.97597630  1
  O2-  O510  1  0.68684611  0.63330863  0.29442362  1
  O2-  O511  1  0.65518014  0.56661244  0.64097198  1
  O2-  O512  1  0.67716950  0.57606577  0.97293673  1
  O2-  O513  1  0.67488386  0.83930060  0.30957767  1
  O2-  O514  1  0.65806858  0.82612083  0.65926208  1
  O2-  O515  1  0.66271542  0.81588141  0.98101425  1
  O2-  O516  1  0.92545238  0.06595034  0.31339794  1
  O2-  O517  1  0.89551490  0.06961137  0.64371684  1
  O2-  O518  1  0.91044191  0.07845289  0.97228639  1
  O2-  O519  1  0.89528019  0.31478509  0.31936703  1
  O2-  O520  1  0.91844295  0.33689239  0.65334569  1
  O2-  O521  1  0.92950246  0.34029335  0.98393364  1
  O2-  O522  1  0.90688288  0.57706302  0.31461559  1
  O2-  O523  1  0.92236913  0.58916015  0.65484605  1
  O2-  O524  1  0.92936210  0.58764563  0.97512682  1
  O2-  O525  1  0.92428492  0.82622385  0.30869989  1
  O2-  O526  1  0.88734087  0.81837587  0.64831185  1
  O2-  O527  1  0.91557438  0.82798996  0.98808695  1
  O2-  O528  1  0.07371122  0.15886638  0.02439238  1
  O2-  O529  1  0.09907112  0.17012845  0.35071396  1
  O2-  O530  1  0.06094262  0.13797627  0.68268591  1
  O2-  O531  1  0.08993655  0.41425221  0.02989802  1
  O2-  O532  1  0.07048916  0.42226978  0.33640278  1
  O2-  O533  1  0.07951168  0.42305801  0.71047375  1
  O2-  O534  1  0.08402948  0.66755283  0.02491355  1
  O2-  O535  1  0.07414005  0.66195323  0.35264035  1
  O2-  O536  1  0.08781422  0.66555710  0.69197079  1
  O2-  O537  1  0.07974448  0.91048345  0.02498709  1
  O2-  O538  1  0.07378641  0.90716986  0.35856295  1
  O2-  O539  1  0.12334582  0.92198777  0.68772238  1
  O2-  O540  1  0.28696016  0.07483934  0.04168192  1
  O2-  O541  1  0.31189600  0.15982338  0.34434545  1
  O2-  O542  1  0.34389243  0.18357168  0.68612967  1
  O2-  O543  1  0.33324637  0.42531507  0.02154409  1
  O2-  O544  1  0.32932085  0.42182910  0.34372075  1
  O2-  O545  1  0.35896591  0.43034657  0.69898623  1
  O2-  O546  1  0.21306752  0.57308043  -0.00061164  1
  O2-  O547  1  0.30715334  0.63636202  0.34467932  1
  O2-  O548  1  0.32323598  0.65226724  0.68636671  1
  O2-  O549  1  0.32647681  0.89644449  0.03333244  1
  O2-  O550  1  0.34206873  0.91111958  0.37671779  1
  O2-  O551  1  0.34691102  0.91548733  0.68214030  1
  O2-  O552  1  0.57770825  0.16021005  0.01952144  1
  O2-  O553  1  0.56230175  0.15198602  0.36012603  1
  O2-  O554  1  0.58945896  0.17898753  0.68590769  1
  O2-  O555  1  0.59547270  0.42187546  0.01646887  1
  O2-  O556  1  0.57835730  0.41505664  0.36481462  1
  O2-  O557  1  0.57349980  0.40784755  0.68525617  1
  O2-  O558  1  0.57860356  0.63743947  0.04025032  1
  O2-  O559  1  0.57140336  0.68185625  0.33713869  1
  O2-  O560  1  0.58067058  0.66143039  0.69399838  1
  O2-  O561  1  0.58528726  0.90112814  0.02012840  1
  O2-  O562  1  0.62334499  0.93384047  0.36665861  1
  O2-  O563  1  0.59066475  0.94076590  0.70500333  1
  O2-  O564  1  0.82578270  0.16828793  -0.03923017  1
  O2-  O565  1  0.85652304  0.16696822  0.35965949  1
  O2-  O566  1  0.83207438  0.16957247  0.68940007  1
  O2-  O567  1  0.83932979  0.41861919  0.00978541  1
  O2-  O568  1  0.82993694  0.41391020  0.36293569  1
  O2-  O569  1  0.83870388  0.42022570  0.68476439  1
  O2-  O570  1  0.84165646  0.65498135  0.01861347  1
  O2-  O571  1  0.81732029  0.65025129  0.36747574  1
  O2-  O572  1  0.81434811  0.64786693  0.69310030  1
  O2-  O573  1  0.83154167  0.91666647  0.01941465  1
  O2-  O574  1  0.83946272  0.90635187  0.35669104  1
  O2-  O575  1  0.82113119  0.90958831  0.69354591  1
