# generated using pymatgen
data_H2O
_symmetry_space_group_name_H-M   'P 1'
_cell_length_a   17.97590853
_cell_length_b   17.98176723
_cell_length_c   21.99857975
_cell_angle_alpha   89.97392066
_cell_angle_beta   90.02226904
_cell_angle_gamma   119.94233400
_symmetry_Int_Tables_number   1
_chemical_formula_structural   H2O
_chemical_formula_sum   'H384 O192'
_cell_volume   6161.69944258
_cell_formula_units_Z   192
loop_
 _symmetry_equiv_pos_site_id
 _symmetry_equiv_pos_as_xyz
  1  'x, y, z'
loop_
 _atom_type_symbol
 _atom_type_oxidation_number
  H+  1.0
  O2-  -2.0
loop_
 _atom_site_type_symbol
 _atom_site_label
 _atom_site_symmetry_multiplicity
 _atom_site_fract_x
 _atom_site_fract_y
 _atom_site_fract_z
 _atom_site_occupancy
  H+  H0  1  0.87857966  0.86066317  0.83905452  1
  H+  H1  1  0.37177668  0.86591456  0.35030277  1
  H+  H2  1  0.39796493  0.26975384  0.35434583  1
  H+  H3  1  0.90567502  0.26932742  0.65811698  1
  H+  H4  1  0.60529284  -0.03537083  0.33834926  1
  H+  H5  1  0.35256804  0.89512961  0.48773860  1
  H+  H6  1  0.47309455  0.12409914  0.99839307  1
  H+  H7  1  0.62080562  0.22309817  0.49392404  1
  H+  H8  1  0.33827304  0.25963257  0.97845185  1
  H+  H9  1  0.15570247  0.30210452  0.17952738  1
  H+  H10  1  0.87528101  1.00642439  0.82309950  1
  H+  H11  1  0.83695466  0.22672183  0.33378419  1
  H+  H12  1  -0.02397539  0.59576340  0.00737042  1
  H+  H13  1  0.18514988  0.62951091  0.95385942  1
  H+  H14  1  0.73328237  0.61674301  0.99762362  1
  H+  H15  1  0.35166098  0.71926449  0.49639001  1
  H+  H16  1  0.74006797  0.62473687  0.18054145  1
  H+  H17  1  1.00314082  0.33895526  0.64393794  1
  H+  H18  1  0.20960148  0.35535736  0.84236700  1
  H+  H19  1  0.01654038  0.89094430  0.82296621  1
  H+  H20  1  0.30348775  0.63779302  -0.00911163  1
  H+  H21  1  0.63314520  0.36724768  0.65764911  1
  H+  H22  1  0.11139579  0.62321449  0.49245550  1
  H+  H23  1  0.38687062  1.03240659  -0.00469403  1
  H+  H24  1  0.89253317  0.14690195  0.17661862  1
  H+  H25  1  0.58139846  0.48087787  0.50199213  1
  H+  H26  1  0.11255544  -0.02173269  0.49928211  1
  H+  H27  1  0.12048551  0.35016784  0.83389290  1
  H+  H28  1  0.86649192  0.45156925  0.66975431  1
  H+  H29  1  0.11554859  0.26849448  1.02446944  1
  H+  H30  1  0.61823444  0.13867954  0.16204146  1
  H+  H31  1  0.78499321  0.20282616  0.13929096  1
  H+  H32  1  0.28496182  0.23969903  0.12880283  1
  H+  H33  1  0.14013848  0.11620379  0.66328151  1
  H+  H34  1  0.10364556  0.88674427  0.82264434  1
  H+  H35  1  0.02802844  0.42017502  0.00974014  1
  H+  H36  1  0.83335061  0.18395076  0.08522272  1
  H+  H37  1  0.77138226  0.16141651  0.83969508  1
  H+  H38  1  0.94130821  0.35229368  0.92549725  1
  H+  H39  1  0.89274840  0.36888898  0.97921142  1
  H+  H40  1  0.64392770  0.12628527  0.66204218  1
  H+  H41  1  0.11782757  0.89025484  0.50285613  1
  H+  H42  1  0.76728930  0.38132833  0.00658708  1
  H+  H43  1  0.60520578  0.48281158  0.67248323  1
  H+  H44  1  0.85572201  0.20724172  0.48865470  1
  H+  H45  1  1.02324722  0.12879403  0.82723602  1
  H+  H46  1  0.88558853  0.51327650  0.20042567  1
  H+  H47  1  0.48657388  0.40065235  0.33523188  1
  H+  H48  1  0.41369245  0.83011549  0.92737814  1
  H+  H49  1  0.13257936  0.51574776  0.33351381  1
  H+  H50  1  0.62363779  0.85826571  0.98450999  1
  H+  H51  1  0.82317876  0.38112360  0.34304188  1
  H+  H52  1  0.42140229  0.58660833  0.23007127  1
  H+  H53  1  0.36408797  0.14604227  1.01180550  1
  H+  H54  1  0.36341462  0.88183529  0.15264648  1
  H+  H55  1  0.22793110  0.64810784  0.20953257  1
  H+  H56  1  0.10891987  0.22520903  0.68314379  1
  H+  H57  1  1.00569312  0.52630359  0.63154492  1
  H+  H58  1  0.52079477  0.70324164  0.69219381  1
  H+  H59  1  0.61314741  0.61516936  0.65616197  1
  H+  H60  1  0.72299706  0.61898244  0.33527223  1
  H+  H61  1  0.40625191  0.81150079  0.22043480  1
  H+  H62  1  0.27550774  0.13297846  0.66862014  1
  H+  H63  1  0.60735902  0.88053917  0.15680819  1
  H+  H64  1  0.64643334  0.62382878  0.50845327  1
  H+  H65  1  0.84622210  0.13723437  -0.00528300  1
  H+  H66  1  0.22203815  0.11320663  0.50775927  1
  H+  H67  1  0.71956273  0.85727707  0.18222934  1
  H+  H68  1  0.88791509  0.97949613  0.33651664  1
  H+  H69  1  0.41678949  0.61569504  0.98681129  1
  H+  H70  1  0.77264174  0.37727528  0.19508600  1
  H+  H71  1  0.07397428  0.16371239  0.08875821  1
  H+  H72  1  0.39604532  0.39463153  0.99773254  1
  H+  H73  1  0.91055643  0.07215648  0.15697436  1
  H+  H74  1  0.38198196  0.48355438  0.15630583  1
  H+  H75  1  0.27761542  0.89740610  0.00213950  1
  H+  H76  1  0.08089910  0.39418280  0.74812312  1
  H+  H77  1  0.54390446  0.02957925  0.94030130  1
  H+  H78  1  0.58644018  0.17693258  0.73130293  1
  H+  H79  1  0.51199029  0.87909634  0.35070731  1
  H+  H80  1  0.69033397  0.36516842  0.33791147  1
  H+  H81  1  0.89231268  0.51869609  0.50335276  1
  H+  H82  1  0.37452625  0.35306645  0.66810555  1
  H+  H83  1  0.64184936  0.53160906  0.00161336  1
  H+  H84  1  0.12648464  0.02133621  0.33132880  1
  H+  H85  1  0.26962352  0.12605978  0.00660518  1
  H+  H86  1  0.98338746  0.86141569  0.50326509  1
  H+  H87  1  0.11084329  0.96599520  0.00578244  1
  H+  H88  1  0.10839741  0.22237502  0.83360023  1
  H+  H89  1  0.61779714  0.24042400  0.82868099  1
  H+  H90  1  0.37971646  0.59931221  0.32950622  1
  H+  H91  1  0.88444225  0.01043140  0.49439702  1
  H+  H92  1  0.64826982  0.13907784  0.83632489  1
  H+  H93  1  0.61206866  0.64192753  0.33895353  1
  H+  H94  1  0.11928921  0.64520417  0.04060002  1
  H+  H95  1  0.17741165  0.29222295  0.33070973  1
  H+  H96  1  0.45790314  0.86581837  0.50418439  1
  H+  H97  1  0.65088949  0.62693780  0.17921249  1
  H+  H98  1  0.09459730  0.71047879  0.33977067  1
  H+  H99  1  0.11563618  0.63284882  0.18768036  1
  H+  H100  1  0.01386589  0.05897237  0.28639191  1
  H+  H101  1  0.15828812  0.53703084  0.97851201  1
  H+  H102  1  0.27701318  0.88515812  0.15476119  1
  H+  H103  1  0.08584383  0.11819252  1.03030798  1
  H+  H104  1  1.03328690  0.17112232  0.17628231  1
  H+  H105  1  0.89549011  0.61866678  0.85534427  1
  H+  H106  1  0.51777100  0.87815886  0.15308370  1
  H+  H107  1  0.96980889  0.86381389  0.99759213  1
  H+  H108  1  0.96139383  0.60300146  0.34056025  1
  H+  H109  1  0.77817802  0.63383749  0.50767450  1
  H+  H110  1  0.77664957  0.88660693  0.49346670  1
  H+  H111  1  0.39357666  0.61303738  0.16783299  1
  H+  H112  1  0.22458494  0.87664746  0.51177884  1
  H+  H113  1  0.76308807  0.87433723  0.82232048  1
  H+  H114  1  0.22022595  0.60861899  0.50542046  1
  H+  H115  1  0.85001280  0.88274086  -0.00524245  1
  H+  H116  1  0.86317458  0.84306732  0.15241149  1
  H+  H117  1  0.60247700  0.87173786  0.81742519  1
  H+  H118  1  0.64067624  0.79111969  0.65765261  1
  H+  H119  1  0.37854848  0.75680089  0.15942578  1
  H+  H120  1  0.72604995  0.35738788  0.50756337  1
  H+  H121  1  0.13117605  0.77790052  0.83738453  1
  H+  H122  1  0.93030495  0.58495358  0.90756771  1
  H+  H123  1  0.02916571  0.89219347  0.35940951  1
  H+  H124  1  0.52519143  0.43183785  0.02922907  1
  H+  H125  1  0.63205328  1.01239234  0.16895262  1
  H+  H126  1  0.24703727  0.38483825  0.17236996  1
  H+  H127  1  0.88408400  0.77376413  0.99749362  1
  H+  H128  1  0.38461691  0.86368706  0.98700665  1
  H+  H129  1  0.34023371  0.60779379  0.66739408  1
  H+  H130  1  0.37088050  0.20853427  0.82451047  1
  H+  H131  1  0.71265061  0.85958819  0.98425861  1
  H+  H132  1  0.14269703  0.78461710  0.98800290  1
  H+  H133  1  -0.01892890  0.11038941  0.49690856  1
  H+  H134  1  0.88803845  0.28469847  0.83148136  1
  H+  H135  1  0.25223453  0.88098178  0.33396050  1
  H+  H136  1  0.59027514  0.43416091  0.07882873  1
  H+  H137  1  0.24550400  0.87025310  0.66096168  1
  H+  H138  1  0.48627339  0.12084992  0.65730537  1
  H+  H139  1  0.98017739  0.86859166  0.65675319  1
  H+  H140  1  0.39681111  0.02421458  0.17413616  1
  H+  H141  1  0.87270505  0.63849390  0.01458541  1
  H+  H142  1  0.62602939  0.09158425  0.32991366  1
  H+  H143  1  0.71734292  0.61206456  0.84959377  1
  H+  H144  1  0.38162181  0.60420928  0.83517645  1
  H+  H145  1  0.39177064  0.11004084  0.65650626  1
  H+  H146  1  0.53999408  0.40076150  0.17441109  1
  H+  H147  1  0.84249354  0.66941514  0.07269222  1
  H+  H148  1  0.60603350  0.49610242  0.33942122  1
  H+  H149  1  0.45838838  0.58491238  0.65729577  1
  H+  H150  1  0.88996498  0.86647890  0.35704210  1
  H+  H151  1  0.58398956  0.15034056  0.40356618  1
  H+  H152  1  0.87350687  0.23594668  0.99865644  1
  H+  H153  1  0.32223385  0.18634429  0.10103651  1
  H+  H154  1  0.61056371  0.85394362  0.32949423  1
  H+  H155  1  0.35427925  0.47221039  0.83039510  1
  H+  H156  1  0.12995521  0.86468426  -0.00151625  1
  H+  H157  1  0.92864531  0.37103664  0.30235235  1
  H+  H158  1  0.81358934  0.27242941  0.54411320  1
  H+  H159  1  0.61951889  0.73243538  0.01317409  1
  H+  H160  1  0.38710834  -0.02394078  0.81749026  1
  H+  H161  1  0.39412825  -0.01790518  0.65519115  1
  H+  H162  1  0.20489063  0.35406634  0.27100727  1
  H+  H163  1  0.12066417  0.34829322  0.52062811  1
  H+  H164  1  0.38553134  0.31174364  0.92039550  1
  H+  H165  1  0.34621621  0.25504433  0.51882412  1
  H+  H166  1  0.63085201  0.37264770  0.00114628  1
  H+  H167  1  0.84255248  0.39739238  0.05386831  1
  H+  H168  1  0.64175132  0.33695008  0.27524174  1
  H+  H169  1  0.38887236  0.10299308  0.83651547  1
  H+  H170  1  0.38105809  0.73258014  -0.00040997  1
  H+  H171  1  0.52153772  0.11913059  0.34650850  1
  H+  H172  1  0.96312703  1.05327110  0.07675072  1
  H+  H173  1  0.86907590  0.48562547  0.83278942  1
  H+  H174  1  0.12470359  0.89339018  0.15908316  1
  H+  H175  1  0.53047698  0.13978774  0.16545911  1
  H+  H176  1  0.64301013  0.36818040  0.17803534  1
  H+  H177  1  0.36667311  0.14449753  0.50073347  1
  H+  H178  1  0.13000746  0.51860976  0.50638210  1
  H+  H179  1  0.83098684  0.57722857  0.65603976  1
  H+  H180  1  0.82486544  0.90516059  0.76263657  1
  H+  H181  1  0.51042562  0.62375591  0.82355291  1
  H+  H182  1  0.94084293  0.97361843  0.11914634  1
  H+  H183  1  0.70666555  0.63275213  0.66925223  1
  H+  H184  1  0.62730330  0.28167606  0.99946845  1
  H+  H185  1  0.76412826  0.12988653  0.33686423  1
  H+  H186  1  0.32440474  0.97822238  0.33120014  1
  H+  H187  1  1.03048110  0.63836052  0.82923776  1
  H+  H188  1  0.86426166  0.98386866  0.67890176  1
  H+  H189  1  0.86042157  0.38330894  0.49355660  1
  H+  H190  1  0.34561007  0.37986847  0.83750862  1
  H+  H191  1  0.01676731  0.38047700  0.49106974  1
  H+  H192  1  0.13497134  0.60573745  0.82378930  1
  H+  H193  1  0.61567942  0.75788713  0.32872907  1
  H+  H194  1  0.10695100  0.47074420  0.80026421  1
  H+  H195  1  -0.01725535  0.40080217  0.13111914  1
  H+  H196  1  0.15384220  0.78573647  0.66741077  1
  H+  H197  1  0.61235491  0.47901854  0.82684259  1
  H+  H198  1  0.86449364  0.16557055  0.84765678  1
  H+  H199  1  0.53051203  0.14797494  0.82825109  1
  H+  H200  1  0.27403377  0.63060943  0.81339479  1
  H+  H201  1  0.88361278  0.10649182  0.48908262  1
  H+  H202  1  0.63764242  0.27530296  0.17838113  1
  H+  H203  1  0.13788211  0.76881077  0.17416230  1
  H+  H204  1  0.86904439  0.88937863  0.49065754  1
  H+  H205  1  0.38786851  0.03553950  0.50317085  1
  H+  H206  1  0.59548867  0.97532717  0.50070519  1
  H+  H207  1  0.16537694  0.08506344  0.56843508  1
  H+  H208  1  0.84794010  1.01232606  -0.03300844  1
  H+  H209  1  0.89283467  0.76855551  0.50669318  1
  H+  H210  1  0.34977112  0.71103227  0.35013718  1
  H+  H211  1  0.89085942  0.09116135  0.79168067  1
  H+  H212  1  0.31724451  0.38089279  0.33336524  1
  H+  H213  1  0.83483436  0.47421874  0.35007658  1
  H+  H214  1  0.97699662  0.11405690  0.67517310  1
  H+  H215  1  0.72492370  0.09316229  0.17688991  1
  H+  H216  1  0.53336408  0.64187352  0.16320016  1
  H+  H217  1  0.86361320  0.62463129  0.16900875  1
  H+  H218  1  0.59606306  0.39957291  0.33819632  1
  H+  H219  1  0.10779450  0.13433410  0.50000087  1
  H+  H220  1  0.38396348  0.26894428  0.66291776  1
  H+  H221  1  0.67963712  0.84295564  0.56090351  1
  H+  H222  1  0.62825040  0.76171726  0.83369186  1
  H+  H223  1  0.61411380  0.23520784  0.67110441  1
  H+  H224  1  0.84218209  0.75237376  0.68068794  1
  H+  H225  1  0.82589021  0.66360665  0.90823314  1
  H+  H226  1  0.35255840  0.35649752  0.50937957  1
  H+  H227  1  0.09268891  0.45447401  0.06917432  1
  H+  H228  1  0.63230961  0.76637316  0.17635137  1
  H+  H229  1  0.88917760  0.11778596  0.67561237  1
  H+  H230  1  0.52658334  0.63790024  0.49605749  1
  H+  H231  1  0.38868753  0.85423419  0.83496391  1
  H+  H232  1  0.06263661  0.54445311  0.04202821  1
  H+  H233  1  0.03990437  0.64759219  0.67670049  1
  H+  H234  1  0.72304175  0.10051126  0.50475169  1
  H+  H235  1  0.39881306  0.83351447  0.40691516  1
  H+  H236  1  0.38525590  0.60500783  0.50652700  1
  H+  H237  1  0.86350218  0.39019928  0.16675539  1
  H+  H238  1  0.14139301  0.31709475  0.58241707  1
  H+  H239  1  0.14413829  0.11947526  0.33317985  1
  H+  H240  1  0.22175093  1.01541584  -0.05043904  1
  H+  H241  1  0.26159609  0.62225531  0.34434475  1
  H+  H242  1  1.00938109  0.84472278  0.20169926  1
  H+  H243  1  0.39722043  0.29039434  0.18355533  1
  H+  H244  1  1.01488738  0.62338016  0.49369447  1
  H+  H245  1  0.12149132  0.89385284  0.67314105  1
  H+  H246  1  0.64746035  0.37583135  0.84125034  1
  H+  H247  1  0.65002145  0.77869980  0.50446185  1
  H+  H248  1  0.83979894  0.92774149  0.39665804  1
  H+  H249  1  0.13904949  0.11271448  0.84060493  1
  H+  H250  1  0.88408403  0.71831276  0.17545276  1
  H+  H251  1  0.51909975  0.39129097  0.67252095  1
  H+  H252  1  0.77617266  0.14595271  0.68030068  1
  H+  H253  1  0.10103993  0.22096446  0.50763360  1
  H+  H254  1  0.88345323  0.51818006  0.99621710  1
  H+  H255  1  0.72096531  0.36386756  0.66074887  1
  H+  H256  1  0.10305728  0.62396736  0.34310497  1
  H+  H257  1  0.15254907  0.39227443  0.34731223  1
  H+  H258  1  0.91918115  0.83889521  0.59809894  1
  H+  H259  1  0.77981623  0.39487588  0.83505752  1
  H+  H260  1  0.37889794  0.47454284  0.48730221  1
  H+  H261  1  0.51473375  0.88145657  1.00142193  1
  H+  H262  1  0.72963139  0.87777089  0.65841920  1
  H+  H263  1  0.38306661  0.39703250  0.16466180  1
  H+  H264  1  0.85470374  0.71976979  0.35922908  1
  H+  H265  1  0.89371833  0.38292039  0.82780449  1
  H+  H266  1  0.37020202  0.49564635  0.65865467  1
  H+  H267  1  0.86388649  0.89453408  0.66996987  1
  H+  H268  1  0.91871347  0.82907724  0.41177954  1
  H+  H269  1  0.27227213  0.62010382  0.14209837  1
  H+  H270  1  0.83710147  0.84726566  0.17769300  1
  H+  H271  1  0.36178541  0.12833533  0.32556162  1
  H+  H272  1  0.11325579  0.85281918  0.33003516  1
  H+  H273  1  0.14866426  0.36141097  0.00395726  1
  H+  H274  1  0.50090618  0.34639317  0.84202277  1
  H+  H275  1  0.83343881  0.60379794  0.62897062  1
  H+  H276  1  0.05465153  0.36054480  0.34300811  1
  H+  H277  1  0.25582397  0.37595862  0.68297205  1
  H+  H278  1  0.60306117  0.89828309  0.66373500  1
  H+  H279  1  0.05652658  0.16170048  0.34456632  1
  H+  H280  1  0.60209955  0.67937387  0.10677607  1
  H+  H281  1  0.59991214  1.00931362  -0.01610585  1
  H+  H282  1  0.61082794  0.98909626  0.67205627  1
  H+  H283  1  0.21423697  0.12091098  0.17319968  1
  H+  H284  1  0.21311835  0.60314099  0.66220028  1
  H+  H285  1  0.47996861  0.27422562  0.89028800  1
  H+  H286  1  0.60147365  0.62648499  0.82407035  1
  H+  H287  1  0.99070673  0.37706340  0.81295052  1
  H+  H288  1  0.32018348  0.40440645  0.73922592  1
  H+  H289  1  0.15819503  0.58785427  0.60252769  1
  H+  H290  1  0.58356910  0.66854903  0.43624426  1
  H+  H291  1  0.91571010  0.84294766  0.90112116  1
  H+  H292  1  0.33961616  0.66047092  0.08604241  1
  H+  H293  1  0.94782634  0.81624995  0.25928987  1
  H+  H294  1  0.12974948  0.41470666  0.15937276  1
  H+  H295  1  0.65578852  0.06382417  0.26865597  1
  H+  H296  1  0.41129945  0.56666998  0.56237006  1
  H+  H297  1  0.15990069  0.58057412  0.27377453  1
  H+  H298  1  0.10313166  0.18673539  0.40904796  1
  H+  H299  1  0.65341702  0.57868254  0.90375501  1
  H+  H300  1  0.67520028  0.09323273  0.60478899  1
  H+  H301  1  0.06828368  0.63910361  0.12746129  1
  H+  H302  1  0.90491071  0.58031526  0.28017871  1
  H+  H303  1  0.58244054  0.17214686  0.06947636  1
  H+  H304  1  0.63055985  0.64944532  1.01711341  1
  H+  H305  1  0.90010773  0.31041260  0.11996361  1
  H+  H306  1  0.56834696  0.90620461  0.76312077  1
  H+  H307  1  0.85067344  0.62875516  0.34993776  1
  H+  H308  1  0.89388199  0.60910667  0.51256204  1
  H+  H309  1  0.13353908  1.02090875  0.83164521  1
  H+  H310  1  0.36262258  0.71962325  0.82354935  1
  H+  H311  1  0.39927733  0.52088854  0.32349064  1
  H+  H312  1  0.64783280  0.82482956  0.26625630  1
  H+  H313  1  0.42457376  0.35041344  0.24359983  1
  H+  H314  1  0.40623717  0.08575337  0.22878621  1
  H+  H315  1  0.17116817  0.56456256  0.87196841  1
  H+  H316  1  0.90704971  0.31014257  0.57020033  1
  H+  H317  1  0.83093257  0.65549029  0.44647771  1
  H+  H318  1  0.54951778  0.42762295  0.44328586  1
  H+  H319  1  0.65619315  0.82348710  0.89179187  1
  H+  H320  1  0.51900458  0.63617887  0.33942140  1
  H+  H321  1  0.08158734  0.91858514  0.72924830  1
  H+  H322  1  0.39031659  0.83966391  0.55797222  1
  H+  H323  1  0.08930325  0.16422004  0.74052834  1
  H+  H324  1  0.83329429  0.18061015  0.74093735  1
  H+  H325  1  0.95050030  0.08951445  0.26153157  1
  H+  H326  1  0.17116431  0.84708207  0.57335580  1
  H+  H327  1  0.37445686  0.41598100  0.43049038  1
  H+  H328  1  0.15461586  0.08122169  0.23322088  1
  H+  H329  1  0.66374810  0.09565848  0.89492956  1
  H+  H330  1  0.27395595  0.12817831  0.82240971  1
  H+  H331  1  0.82998339  0.15913314  0.42355067  1
  H+  H332  1  0.59544044  0.13758024  0.00480867  1
  H+  H333  1  0.64014303  0.11214090  0.50825310  1
  H+  H334  1  0.33487089  0.15745423  0.72767605  1
  H+  H335  1  0.13776419  0.02571498  0.66034959  1
  H+  H336  1  0.67235953  0.59599643  0.27078654  1
  H+  H337  1  0.52923814  0.13644589  0.49386957  1
  H+  H338  1  0.46564267  0.89980226  0.65783935  1
  H+  H339  1  0.42434687  0.09244921  0.56345710  1
  H+  H340  1  0.07789335  0.65576501  0.42995470  1
  H+  H341  1  0.88162631  0.07440741  0.91012703  1
  H+  H342  1  0.06266956  0.79150327  0.27738304  1
  H+  H343  1  0.57821686  0.91433512  0.05937515  1
  H+  H344  1  0.47305617  0.84729908  0.83748782  1
  H+  H345  1  0.41854772  0.57640190  0.89427569  1
  H+  H346  1  0.12711441  0.64997300  0.67672336  1
  H+  H347  1  0.08627333  0.40648404  0.43861236  1
  H+  H348  1  0.09903366  0.92541826  0.41005609  1
  H+  H349  1  0.82369597  0.41408945  0.73352559  1
  H+  H350  1  0.15893619  0.84207308  0.89321722  1
  H+  H351  1  0.36998272  0.92244102  0.75668537  1
  H+  H352  1  0.85266331  0.35479124  0.25881766  1
  H+  H353  1  0.58685362  0.42232092  0.76481458  1
  H+  H354  1  0.46055761  0.23896689  0.37786647  1
  H+  H355  1  0.17685959  0.06132782  0.91938839  1
  H+  H356  1  0.32488982  0.65537216  0.43931629  1
  H+  H357  1  0.66360266  0.32412373  0.56466502  1
  H+  H358  1  0.37714267  0.32057696  0.57988862  1
  H+  H359  1  0.57095655  0.91574872  0.44198130  1
  H+  H360  1  0.66885122  0.34492480  0.90442457  1
  H+  H361  1  0.62897712  0.48971313  0.17205991  1
  H+  H362  1  0.94892751  0.55550424  0.59448666  1
  H+  H363  1  0.28276137  0.06670322  0.28564247  1
  H+  H364  1  0.32697381  0.65087594  0.72608172  1
  H+  H365  1  0.66720413  0.59227553  0.57038153  1
  H+  H366  1  0.43797383  0.53902395  0.98728562  1
  H+  H367  1  0.11343640  0.97742262  0.16421303  1
  H+  H368  1  0.33742157  0.92108456  0.06101017  1
  H+  H369  1  0.42128811  0.08519955  0.89953152  1
  H+  H370  1  0.97438024  0.60487944  0.19365903  1
  H+  H371  1  0.13045877  0.50291671  0.16924018  1
  H+  H372  1  0.82488592  0.41492879  0.43642171  1
  H+  H373  1  0.86229174  0.73116469  0.85554948  1
  H+  H374  1  0.16950254  0.83481655  0.22755221  1
  H+  H375  1  0.82403433  0.67695185  0.72544752  1
  H+  H376  1  0.34876698  0.18657521  0.44292951  1
  H+  H377  1  0.09015372  0.67285189  0.76911413  1
  H+  H378  1  0.56798491  0.67122246  0.73645673  1
  H+  H379  1  0.31941448  0.92857897  0.43173011  1
  H+  H380  1  0.11260056  0.15255519  0.17651072  1
  H+  H381  1  0.84302771  0.94203949  0.04447469  1
  H+  H382  1  0.07847024  0.91603454  0.07074499  1
  H+  H383  1  0.40303573  0.43549337  0.06367660  1
  O2-  O384  1  0.09336146  0.19279237  0.16171861  1
  O2-  O385  1  0.07630999  0.16366778  0.48451256  1
  O2-  O386  1  0.08558169  0.16146608  0.81818224  1
  O2-  O387  1  0.10211543  0.44770479  0.14554814  1
  O2-  O388  1  0.07840072  0.41168285  0.48306971  1
  O2-  O389  1  0.06982861  0.40731583  0.79130052  1
  O2-  O390  1  0.07807894  0.65854600  0.17017913  1
  O2-  O391  1  0.07788584  0.65303760  0.47662792  1
  O2-  O392  1  0.09102968  0.66783906  0.81472934  1
  O2-  O393  1  0.08560803  0.91647706  0.14967145  1
  O2-  O394  1  0.08561788  0.91832453  0.48308409  1
  O2-  O395  1  0.07624184  0.92064257  0.80664910  1
  O2-  O396  1  0.30892921  0.20379444  0.14128151  1
  O2-  O397  1  0.33191155  0.17129205  0.48611135  1
  O2-  O398  1  0.33352258  0.15111181  0.80613646  1
  O2-  O399  1  0.35368963  0.42299545  0.14176250  1
  O2-  O400  1  0.35053611  0.41452256  0.47115407  1
  O2-  O401  1  0.31982121  0.40948032  0.81696885  1
  O2-  O402  1  0.33335231  0.65705196  0.13227425  1
  O2-  O403  1  0.32410402  0.65750961  0.48463765  1
  O2-  O404  1  0.33700266  0.65986066  0.80637708  1
  O2-  O405  1  0.33714780  0.91608660  0.13898324  1
  O2-  O406  1  0.32719894  0.93173277  0.47634022  1
  O2-  O407  1  0.36050884  0.91736923  0.80090315  1
  O2-  O408  1  0.59055087  0.17141473  0.14814733  1
  O2-  O409  1  0.58937537  0.16088317  0.47901549  1
  O2-  O410  1  0.58982809  0.18157181  0.81091675  1
  O2-  O411  1  0.59895591  0.42927662  0.15661421  1
  O2-  O412  1  0.53153079  0.42954057  0.48503501  1
  O2-  O413  1  0.58974408  0.41952183  0.81040601  1
  O2-  O414  1  0.59622153  0.67612093  0.15391782  1
  O2-  O415  1  0.58723514  0.67002558  0.48122727  1
  O2-  O416  1  0.57143345  0.65628081  0.80768399  1
  O2-  O417  1  0.57892732  0.91161732  0.14013298  1
  O2-  O418  1  0.55342952  0.91806255  0.48389486  1
  O2-  O419  1  0.56625095  0.89742682  0.80764915  1
  O2-  O420  1  0.83453215  0.19551335  0.13193497  1
  O2-  O421  1  0.83204205  0.14980938  0.46908426  1
  O2-  O422  1  0.83786915  0.19334190  0.82532029  1
  O2-  O423  1  0.83652462  0.40378443  0.20193402  1
  O2-  O424  1  0.83744369  0.42109617  0.48156424  1
  O2-  O425  1  0.83931579  0.42491746  0.81746180  1
  O2-  O426  1  0.84402708  0.66482432  0.15386065  1
  O2-  O427  1  0.83895940  0.65993282  0.49156189  1
  O2-  O428  1  0.83145619  0.66695563  0.86400465  1
  O2-  O429  1  0.91575720  1.00629112  0.10207593  1
  O2-  O430  1  0.83944177  0.92086073  0.47682049  1
  O2-  O431  1  0.82497465  0.90514365  0.80866058  1
  O2-  O432  1  0.15402044  0.08292587  0.18745398  1
  O2-  O433  1  0.16170077  0.08358077  0.52272274  1
  O2-  O434  1  0.16945569  0.07978013  0.85025567  1
  O2-  O435  1  0.19088841  0.36250510  0.19382761  1
  O2-  O436  1  0.14093786  0.31080095  0.53758966  1
  O2-  O437  1  0.14842900  0.32217084  0.85473636  1
  O2-  O438  1  0.17079013  0.59758575  0.20784242  1
  O2-  O439  1  0.15779510  0.58068234  0.51748502  1
  O2-  O440  1  0.16246114  0.56872064  0.82794090  1
  O2-  O441  1  0.17233502  0.83242940  0.18274341  1
  O2-  O442  1  0.16539033  0.84623589  0.52829347  1
  O2-  O443  1  0.15065619  0.83822192  0.84897208  1
  O2-  O444  1  0.42993627  0.08409177  0.18887006  1
  O2-  O445  1  0.42176847  0.09606322  0.51797449  1
  O2-  O446  1  0.42770088  0.08402121  0.85460627  1
  O2-  O447  1  0.43497943  0.34925637  0.19912374  1
  O2-  O448  1  0.34358692  0.30418418  0.54001763  1
  O2-  O449  1  0.45190239  0.29739756  0.86484858  1
  O2-  O450  1  0.42742590  0.58810684  0.18499068  1
  O2-  O451  1  0.41834083  0.57613088  0.51733650  1
  O2-  O452  1  0.41029197  0.57094730  0.84805200  1
  O2-  O453  1  0.40931518  0.81715447  0.17627911  1
  O2-  O454  1  0.39349286  0.83155876  0.51366964  1
  O2-  O455  1  0.41212676  0.81916184  0.85457960  1
  O2-  O456  1  0.66469029  0.07118278  0.18782970  1
  O2-  O457  1  0.66756579  0.07987277  0.52603755  1
  O2-  O458  1  0.68409926  0.11525796  0.85295442  1
  O2-  O459  1  0.66734134  0.33399503  0.19667943  1
  O2-  O460  1  0.66628718  0.31747231  0.51993467  1
  O2-  O461  1  0.67525397  0.34452659  0.85931200  1
  O2-  O462  1  0.67953365  0.59550715  0.19580078  1
  O2-  O463  1  0.67529357  0.59321996  0.52553719  1
  O2-  O464  1  0.65470278  0.57885857  0.85811660  1
  O2-  O465  1  0.65879802  0.82922122  0.19298070  1
  O2-  O466  1  0.68622830  0.83990678  0.51624804  1
  O2-  O467  1  0.66105506  0.82316041  0.84636182  1
  O2-  O468  1  0.92357293  0.11684125  0.18867613  1
  O2-  O469  1  0.91545385  0.07641005  0.50602163  1
  O2-  O470  1  0.90654689  0.07160853  0.82834911  1
  O2-  O471  1  0.92229668  0.37316015  0.11700870  1
  O2-  O472  1  0.87270888  0.29880718  0.52948961  1
  O2-  O473  1  0.92809571  0.35193993  0.83760889  1
  O2-  O474  1  0.91206611  0.57686567  0.20570531  1
  O2-  O475  1  0.92813429  0.57940936  0.51976988  1
  O2-  O476  1  0.92699870  0.58679618  0.86220855  1
  O2-  O477  1  0.97492160  0.79608382  0.23027604  1
  O2-  O478  1  0.91963510  0.83237641  0.51159685  1
  O2-  O479  1  0.91365705  0.83583000  0.85602089  1
  O2-  O480  1  0.14497203  0.07475637  0.30700875  1
  O2-  O481  1  0.16979800  0.08652043  0.64542646  1
  O2-  O482  1  0.18959713  0.04391049  0.96090334  1
  O2-  O483  1  0.21300497  0.35294293  0.31630798  1
  O2-  O484  1  0.14632501  0.33291737  0.66370296  1
  O2-  O485  1  0.14985865  0.32793842  1.03824165  1
  O2-  O486  1  0.15779364  0.57678522  0.32209122  1
  O2-  O487  1  0.15359103  0.58629259  0.64718150  1
  O2-  O488  1  0.20058384  0.58475474  0.95167292  1
  O2-  O489  1  0.11401060  0.80744485  0.30310522  1
  O2-  O490  1  0.18377747  0.84636058  0.65213169  1
  O2-  O491  1  0.16858009  0.84557917  0.97911552  1
  O2-  O492  1  0.33779069  0.07503616  0.30015431  1
  O2-  O493  1  0.42666105  0.08535566  0.63993451  1
  O2-  O494  1  0.41387492  0.09311905  0.98046530  1
  O2-  O495  1  0.41724463  0.36307638  0.32094541  1
  O2-  O496  1  0.40918344  0.32994174  0.64856429  1
  O2-  O497  1  0.34592802  0.30820192  0.95280741  1
  O2-  O498  1  0.41838596  0.58064558  0.31070778  1
  O2-  O499  1  0.40081261  0.55386001  0.63898586  1
  O2-  O500  1  0.44205329  0.58744860  0.96305093  1
  O2-  O501  1  0.40024543  0.83278833  0.36240655  1
  O2-  O502  1  0.40852313  0.88026127  0.63766194  1
  O2-  O503  1  0.41518787  0.83299884  0.97381563  1
  O2-  O504  1  0.65596829  0.06041066  0.31374739  1
  O2-  O505  1  0.67569843  0.09590137  0.65021950  1
  O2-  O506  1  0.59907289  0.05794246  0.96135479  1
  O2-  O507  1  0.63270490  0.34202602  0.31925586  1
  O2-  O508  1  0.66054164  0.33400467  0.64385788  1
  O2-  O509  1  0.66035231  0.34253502  0.98480171  1
  O2-  O510  1  0.66450293  0.59508158  0.31622415  1
  O2-  O511  1  0.65076080  0.59117091  0.64897386  1
  O2-  O512  1  0.67385377  0.58943159  0.98134609  1
  O2-  O513  1  0.64130448  0.82109756  0.31224614  1
  O2-  O514  1  0.66984283  0.84991933  0.64120742  1
  O2-  O515  1  0.65204573  0.82610048  0.96976709  1
  O2-  O516  1  0.97227810  0.07611176  0.29912272  1
  O2-  O517  1  0.91514635  0.08240722  0.66409964  1
  O2-  O518  1  0.86657322  0.07152134  0.95326263  1
  O2-  O519  1  0.86688474  0.33427109  0.29788712  1
  O2-  O520  1  0.94279045  0.32066094  0.63283080  1
  O2-  O521  1  0.93552094  0.35048767  0.97005699  1
  O2-  O522  1  0.90110215  0.57824979  0.32606326  1
  O2-  O523  1  0.96062162  0.54128652  0.63584486  1
  O2-  O524  1  0.92093889  0.58048425  0.98659518  1
  O2-  O525  1  0.91940840  0.83072861  0.36708223  1
  O2-  O526  1  0.91904057  0.84258009  0.64295723  1
  O2-  O527  1  0.91052097  0.83301146  0.98040333  1
  O2-  O528  1  0.04832011  0.13685505  0.04816786  1
  O2-  O529  1  0.11392658  0.19302603  0.36400546  1
  O2-  O530  1  0.08719112  0.16414740  0.69497616  1
  O2-  O531  1  0.08104086  0.46963993  0.02744143  1
  O2-  O532  1  0.10715688  0.40605411  0.36120765  1
  O2-  O533  1  0.10215390  0.37194613  0.68114712  1
  O2-  O534  1  0.06070627  0.59987988  0.04889384  1
  O2-  O535  1  0.07126106  0.65315778  0.35952864  1
  O2-  O536  1  0.09834305  0.68272026  0.69347302  1
  O2-  O537  1  0.07365335  0.90901948  0.02546819  1
  O2-  O538  1  0.09317100  0.92341195  0.36390445  1
  O2-  O539  1  0.08536367  0.91980053  0.68369202  1
  O2-  O540  1  0.32541094  0.16802272  0.02537853  1
  O2-  O541  1  0.39957043  0.21827026  0.37093769  1
  O2-  O542  1  0.33697534  0.16205626  0.68230615  1
  O2-  O543  1  0.43397524  0.44496227  0.02456517  1
  O2-  O544  1  0.37951791  0.41322125  0.34654408  1
  O2-  O545  1  0.31770145  0.40015083  0.69383191  1
  O2-  O546  1  0.35729177  0.67178434  0.01420856  1
  O2-  O547  1  0.32301840  0.64907644  0.35891475  1
  O2-  O548  1  0.31465745  0.64194000  0.68185500  1
  O2-  O549  1  0.33855433  0.92502076  0.01543951  1
  O2-  O550  1  0.31042018  0.92097445  0.34798708  1
  O2-  O551  1  0.36719776  0.92093207  0.67111262  1
  O2-  O552  1  0.57710145  0.17594522  0.02434305  1
  O2-  O553  1  0.58118745  0.14222291  0.35813812  1
  O2-  O554  1  0.58575535  0.17389749  0.68601288  1
  O2-  O555  1  0.58201827  0.43443158  0.03379428  1
  O2-  O556  1  0.56862716  0.43481909  0.35317820  1
  O2-  O557  1  0.57942065  0.42260975  0.68765099  1
  O2-  O558  1  0.60936668  0.68311668  0.03934363  1
  O2-  O559  1  0.57988933  0.67136571  0.35402187  1
  O2-  O560  1  0.56021370  0.68065499  0.69162913  1
  O2-  O561  1  0.57677804  0.91519402  0.01417225  1
  O2-  O562  1  0.57506987  0.90339809  0.35514561  1
  O2-  O563  1  0.57191253  0.92649923  0.68028730  1
  O2-  O564  1  0.83464719  0.17927577  0.01667994  1
  O2-  O565  1  0.82365209  0.17065418  0.35053216  1
  O2-  O566  1  0.83649379  0.17453889  0.69657428  1
  O2-  O567  1  0.83110386  0.40864717  0.01228326  1
  O2-  O568  1  0.80007355  0.41375838  0.36504326  1
  O2-  O569  1  0.81701601  0.40225808  0.68956408  1
  O2-  O570  1  0.84186525  0.66928109  0.02724310  1
  O2-  O571  1  0.81908934  0.65699269  0.36726841  1
  O2-  O572  1  0.79614045  0.70445452  0.70493740  1
  O2-  O573  1  0.81876251  0.91392802  0.00491030  1
  O2-  O574  1  0.84713230  0.92168248  0.35240065  1
  O2-  O575  1  0.83044902  0.91948063  0.68811229  1
