# generated using pymatgen
data_H2O
_symmetry_space_group_name_H-M   'P 1'
_cell_length_a   17.98061236
_cell_length_b   17.98702775
_cell_length_c   21.98807651
_cell_angle_alpha   89.99350247
_cell_angle_beta   89.99324506
_cell_angle_gamma   120.01424129
_symmetry_Int_Tables_number   1
_chemical_formula_structural   H2O
_chemical_formula_sum   'H384 O192'
_cell_volume   6157.71240319
_cell_formula_units_Z   192
loop_
 _symmetry_equiv_pos_site_id
 _symmetry_equiv_pos_as_xyz
  1  'x, y, z'
loop_
 _atom_type_symbol
 _atom_type_oxidation_number
  H+  1.0
  O2-  -2.0
loop_
 _atom_site_type_symbol
 _atom_site_label
 _atom_site_symmetry_multiplicity
 _atom_site_fract_x
 _atom_site_fract_y
 _atom_site_fract_z
 _atom_site_occupancy
  H+  H0  1  0.62973659  0.03492653  0.66076638  1
  H+  H1  1  0.87240313  0.89717015  0.50392180  1
  H+  H2  1  0.34978457  0.13503050  0.15653703  1
  H+  H3  1  0.12875186  0.90836455  0.16496269  1
  H+  H4  1  0.08930748  0.47017282  0.00660910  1
  H+  H5  1  0.88730779  0.51782097  0.15053861  1
  H+  H6  1  0.35739739  0.22210859  0.83002136  1
  H+  H7  1  0.36982137  0.26950477  0.99522108  1
  H+  H8  1  0.85019370  0.37946778  0.68371391  1
  H+  H9  1  0.64291044  0.26831720  1.00053691  1
  H+  H10  1  1.04283349  0.63240828  0.35891759  1
  H+  H11  1  0.87367581  0.62175395  0.05363135  1
  H+  H12  1  0.82057281  0.88861656  0.63459589  1
  H+  H13  1  -0.02191403  0.07324682  0.00826981  1
  H+  H14  1  0.13694413  0.02588618  0.50722633  1
  H+  H15  1  0.23902570  0.65155390  0.49587452  1
  H+  H16  1  0.68715618  0.57860827  -0.04961021  1
  H+  H17  1  0.85735752  0.21914989  0.16069830  1
  H+  H18  1  0.90236823  0.87999834  0.32932902  1
  H+  H19  1  0.11607410  0.39657241  0.81832756  1
  H+  H20  1  0.52810432  0.14217127  0.84422955  1
  H+  H21  1  0.16394072  0.33434580  0.76832783  1
  H+  H22  1  0.63108160  0.61411128  0.66456932  1
  H+  H23  1  0.77079784  0.41931862  0.32453611  1
  H+  H24  1  0.35017400  0.13437914  0.67754443  1
  H+  H25  1  0.38066791  0.03003407  0.17142230  1
  H+  H26  1  0.47686926  0.12291967  0.98903237  1
  H+  H27  1  0.88686044  0.52112463  0.00159991  1
  H+  H28  1  0.53546211  0.63636070  0.16630447  1
  H+  H29  1  0.70308989  0.86521615  0.66951854  1
  H+  H30  1  0.11342355  0.97959969  0.67346713  1
  H+  H31  1  0.47357300  0.35764878  0.84643953  1
  H+  H32  1  0.63532042  0.10172274  0.50640809  1
  H+  H33  1  0.62988536  0.99083595  0.83673449  1
  H+  H34  1  0.60500352  0.72409520  0.83486880  1
  H+  H35  1  0.60119032  0.13288005  0.15771837  1
  H+  H36  1  0.40909266  0.60833935  0.17247494  1
  H+  H37  1  0.02405065  0.89937082  0.49638391  1
  H+  H38  1  0.29386609  0.76532775  0.07717636  1
  H+  H39  1  0.13301375  0.77408298  -0.00012269  1
  H+  H40  1  0.07196361  0.15455117  0.73353619  1
  H+  H41  1  0.10300972  0.48577104  0.16239808  1
  H+  H42  1  0.47242459  0.36267235  0.64806185  1
  H+  H43  1  0.87500638  0.26543150  0.98908959  1
  H+  H44  1  0.41686310  0.09026616  0.90136277  1
  H+  H45  1  0.52241078  0.88625316  0.32445102  1
  H+  H46  1  0.88463057  0.66015125  0.34521359  1
  H+  H47  1  0.12654729  0.38226251  0.48288171  1
  H+  H48  1  0.12924316  0.86604169  0.51195802  1
  H+  H49  1  0.12348401  0.23744289  0.02696620  1
  H+  H50  1  0.60849155  0.97790093  0.32692976  1
  H+  H51  1  0.87466074  0.10904573  0.67341230  1
  H+  H52  1  0.72472600  0.84887687  1.01204398  1
  H+  H53  1  0.98152538  0.85647799  0.83659540  1
  H+  H54  1  0.84095044  0.50648933  0.15027766  1
  H+  H55  1  0.39931078  0.52645380  0.99974079  1
  H+  H56  1  0.15294622  0.80035110  0.18371512  1
  H+  H57  1  0.35861639  0.22685155  0.15646686  1
  H+  H58  1  0.51499992  0.02121803  0.45284664  1
  H+  H59  1  0.97264045  0.36846334  0.17469552  1
  H+  H60  1  0.63291490  0.08755540  0.84453597  1
  H+  H61  1  0.92533762  0.07929562  0.18250381  1
  H+  H62  1  0.17126790  0.59678676  0.23294820  1
  H+  H63  1  0.11887926  0.52718712  0.83780606  1
  H+  H64  1  0.62064337  0.15246220  0.63286983  1
  H+  H65  1  0.03776362  0.89087716  0.00422578  1
  H+  H66  1  0.64106323  0.87068125  0.32429484  1
  H+  H67  1  0.15058571  0.81401664  0.56095821  1
  H+  H68  1  1.02535008  0.39224173  0.33379224  1
  H+  H69  1  0.89472554  0.78231408  0.51334827  1
  H+  H70  1  0.36944024  0.77279135  0.66239668  1
  H+  H71  1  0.48132690  0.86110964  0.82818456  1
  H+  H72  1  0.05931485  0.42111917  0.42917463  1
  H+  H73  1  0.59375777  0.89501469  0.67349500  1
  H+  H74  1  0.75010577  0.63669761  0.32197516  1
  H+  H75  1  0.64088849  0.62539372  0.50476006  1
  H+  H76  1  1.12309465  0.66213181  0.66720957  1
  H+  H77  1  0.15454145  0.18851634  0.07087061  1
  H+  H78  1  0.34693108  0.63783192  0.67065387  1
  H+  H79  1  0.61935820  0.89163681  0.50899287  1
  H+  H80  1  0.38366687  0.27484118  0.66361261  1
  H+  H81  1  0.86013902  0.22464632  0.49960404  1
  H+  H82  1  0.38438537  0.38795649  0.15490967  1
  H+  H83  1  0.28880797  0.56009256  0.14305110  1
  H+  H84  1  0.62860817  0.91087781  0.16936609  1
  H+  H85  1  0.07239710  0.11889603  0.17271225  1
  H+  H86  1  0.14752974  0.86938677  -0.00171626  1
  H+  H87  1  0.45539329  0.36049125  1.00006244  1
  H+  H88  1  0.86178616  0.85966872  0.12346791  1
  H+  H89  1  0.54668720  0.11104199  0.42022481  1
  H+  H90  1  0.84969270  0.34362422  0.15801577  1
  H+  H91  1  0.84600481  0.17791670  0.86605061  1
  H+  H92  1  0.35376498  0.12640115  0.49958494  1
  H+  H93  1  0.63773791  0.36152849  0.16489858  1
  H+  H94  1  0.29376958  0.60744043  -0.00985795  1
  H+  H95  1  0.61968780  0.38818726  0.84388163  1
  H+  H96  1  0.89568029  0.79873269  0.99682735  1
  H+  H97  1  0.88065909  0.08173046  0.85290758  1
  H+  H98  1  0.59733624  0.17452525  0.79252439  1
  H+  H99  1  0.45687705  0.08520603  0.50000662  1
  H+  H100  1  0.73345908  0.86703857  0.51675951  1
  H+  H101  1  0.62154251  0.73501773  0.01281202  1
  H+  H102  1  0.62776116  0.72305908  0.16648345  1
  H+  H103  1  0.86482132  0.93549734  0.02847305  1
  H+  H104  1  0.46719446  0.11918681  0.17112983  1
  H+  H105  1  0.24966091  0.88152011  0.48093412  1
  H+  H106  1  0.39441156  0.48110560  0.15849073  1
  H+  H107  1  0.56189414  0.37952523  -0.03161964  1
  H+  H108  1  0.01280788  0.13228835  0.67486623  1
  H+  H109  1  0.64234829  0.01853551  0.51598485  1
  H+  H110  1  0.83991726  0.12313859  0.16330109  1
  H+  H111  1  0.72347226  0.12495466  0.32813302  1
  H+  H112  1  0.49183523  0.88489030  0.99005769  1
  H+  H113  1  0.35282357  0.39130103  0.00325872  1
  H+  H114  1  0.61927981  0.47329027  0.15447805  1
  H+  H115  1  0.12976766  0.36778506  0.68337044  1
  H+  H116  1  0.63458215  0.27587162  0.65010942  1
  H+  H117  1  0.75430713  0.62189206  0.12257416  1
  H+  H118  1  0.12495222  0.35956034  1.01172172  1
  H+  H119  1  0.97666602  0.59377855  0.51211651  1
  H+  H120  1  0.09818199  0.26050956  0.18528031  1
  H+  H121  1  0.87072075  0.34979392  0.52356327  1
  H+  H122  1  0.62381390  0.73528773  0.33837627  1
  H+  H123  1  0.27280923  0.88374662  0.83120990  1
  H+  H124  1  0.36194576  0.39281055  0.67388281  1
  H+  H125  1  0.90479450  0.79293193  0.32880929  1
  H+  H126  1  0.74246817  0.88074920  0.15826882  1
  H+  H127  1  0.64347043  0.60618871  0.17246414  1
  H+  H128  1  0.13612737  0.11208807  0.99271353  1
  H+  H129  1  0.58004568  0.25802176  0.32256685  1
  H+  H130  1  0.22454695  0.36148324  0.82495405  1
  H+  H131  1  0.02910952  0.07908633  0.45255189  1
  H+  H132  1  0.93309679  0.77982744  0.19009639  1
  H+  H133  1  0.64760655  0.28278757  0.85411755  1
  H+  H134  1  0.87009556  0.48531876  0.48523536  1
  H+  H135  1  0.58671629  0.67591581  0.43385316  1
  H+  H136  1  0.85383887  0.97555670  0.66977584  1
  H+  H137  1  0.34410442  0.73317937  0.81766276  1
  H+  H138  1  0.35517210  0.13042503  0.33806069  1
  H+  H139  1  0.19147319  0.86297259  0.24198840  1
  H+  H140  1  0.45598649  0.86582920  0.66520297  1
  H+  H141  1  0.01733614  0.65968775  0.79252938  1
  H+  H142  1  0.48622024  0.62189389  0.32220206  1
  H+  H143  1  0.18704671  0.81451971  0.67131586  1
  H+  H144  1  0.36219588  0.22897557  0.50457979  1
  H+  H145  1  0.33720250  0.87665785  0.67424083  1
  H+  H146  1  0.89984716  0.42825291  0.45003056  1
  H+  H147  1  0.15148793  0.52995008  0.32168962  1
  H+  H148  1  0.97027666  0.11610375  0.51839620  1
  H+  H149  1  0.63087325  0.44565470  0.41027438  1
  H+  H150  1  0.33549429  -0.02776252  0.47641940  1
  H+  H151  1  0.76383948  0.13890625  1.00281754  1
  H+  H152  1  0.93280567  0.84931709  0.23162686  1
  H+  H153  1  0.72197358  0.59471604  1.02201262  1
  H+  H154  1  0.65735294  0.29237882  0.52939952  1
  H+  H155  1  0.91553636  0.55159089  0.84671484  1
  H+  H156  1  0.78822035  0.40604956  0.83886271  1
  H+  H157  1  0.19298117  0.59587885  0.98281039  1
  H+  H158  1  0.10766809  0.12918956  0.82620690  1
  H+  H159  1  0.99188696  0.86431410  0.66729051  1
  H+  H160  1  0.43621683  0.08513747  0.69362210  1
  H+  H161  1  0.16480940  0.34244050  0.26780156  1
  H+  H162  1  0.51014978  0.63689119  0.67616761  1
  H+  H163  1  0.57766738  0.16136872  0.06194881  1
  H+  H164  1  0.11135378  0.65853746  0.17132801  1
  H+  H165  1  0.52522221  0.65126042  0.49236930  1
  H+  H166  1  0.13281514  0.03233720  0.17054945  1
  H+  H167  1  0.62971245  0.40179245  0.50739727  1
  H+  H168  1  0.38122012  0.75431183  0.32077916  1
  H+  H169  1  1.00366566  0.69126218  0.18743964  1
  H+  H170  1  0.90479624  0.08645676  0.61001625  1
  H+  H171  1  0.87490720  0.40343431  0.83148404  1
  H+  H172  1  0.59727899  0.72613552  0.67857846  1
  H+  H173  1  0.63604375  0.37224700  0.65388105  1
  H+  H174  1  0.28353486  0.90247468  0.16931040  1
  H+  H175  1  0.64933750  0.52869462  0.86485732  1
  H+  H176  1  0.53247874  0.15225055  0.62436309  1
  H+  H177  1  0.64628752  0.35971957  1.00495065  1
  H+  H178  1  0.22651051  0.11975301  0.32143123  1
  H+  H179  1  0.32567711  0.16845621  0.73676146  1
  H+  H180  1  0.08662230  0.60972820  0.45210603  1
  H+  H181  1  0.27760418  0.57919386  1.01822726  1
  H+  H182  1  0.62642424  0.64782062  0.33803284  1
  H+  H183  1  0.13681288  0.02276097  0.99274081  1
  H+  H184  1  0.29595879  0.91059045  0.39073674  1
  H+  H185  1  0.03471421  0.89736432  0.16157467  1
  H+  H186  1  0.29022969  0.39430806  0.32862230  1
  H+  H187  1  0.37491794  0.90554833  0.16944671  1
  H+  H188  1  0.12406517  0.99015654  0.34176112  1
  H+  H189  1  0.78140350  0.64836313  0.49601153  1
  H+  H190  1  0.39278609  0.62208689  0.31669021  1
  H+  H191  1  0.21303721  0.61843397  0.65738958  1
  H+  H192  1  0.71729003  0.84957579  0.85495061  1
  H+  H193  1  0.76894806  0.95971611  0.19789809  1
  H+  H194  1  0.87802817  0.27954048  0.32787527  1
  H+  H195  1  0.11556288  0.88295651  0.82867085  1
  H+  H196  1  0.46248436  0.34267824  0.50988452  1
  H+  H197  1  0.86403776  0.71657085  0.82804649  1
  H+  H198  1  0.35975653  0.13436213  0.82877135  1
  H+  H199  1  0.03993855  0.89933701  0.34244678  1
  H+  H200  1  0.38177403  0.63080149  0.50756093  1
  H+  H201  1  0.48371033  0.35376371  0.17110958  1
  H+  H202  1  0.72575125  0.36664946  0.67934439  1
  H+  H203  1  0.89489354  0.52573682  0.66357603  1
  H+  H204  1  0.77939838  0.89551717  0.34604374  1
  H+  H205  1  0.10439425  0.48801116  0.66967316  1
  H+  H206  1  0.10841073  0.12767955  0.49429525  1
  H+  H207  1  0.36730885  0.38751229  0.83066435  1
  H+  H208  1  0.85639701  0.63040055  0.67177588  1
  H+  H209  1  0.89635959  0.28875198  0.82114090  1
  H+  H210  1  0.40628837  0.36508883  0.31971097  1
  H+  H211  1  0.00677238  0.37755971  0.00847500  1
  H+  H212  1  0.12665109  0.27524211  0.68340516  1
  H+  H213  1  0.67337158  0.54409977  0.32944308  1
  H+  H214  1  0.11438116  0.39191168  0.34102667  1
  H+  H215  1  0.39051984  0.27027847  0.32440481  1
  H+  H216  1  1.01670757  0.39602226  0.67610235  1
  H+  H217  1  0.38849487  0.12393837  -0.01066309  1
  H+  H218  1  0.14647276  0.28860275  0.32760400  1
  H+  H219  1  0.86546211  0.72260262  0.67380496  1
  H+  H220  1  0.39616198  0.51963229  0.84481939  1
  H+  H221  1  0.12844752  0.62729834  0.35398253  1
  H+  H222  1  0.10107004  0.63922777  0.01283750  1
  H+  H223  1  0.58487003  0.41652013  0.58571834  1
  H+  H224  1  0.35012178  0.44325512  0.42474461  1
  H+  H225  1  0.63290568  1.02114742  -0.00071974  1
  H+  H226  1  0.11519857  0.35542473  0.17769815  1
  H+  H227  1  0.27686326  0.41787575  0.47257487  1
  H+  H228  1  0.68522507  0.58180831  0.22678895  1
  H+  H229  1  0.42464182  0.62784142  1.00105397  1
  H+  H230  1  0.37978926  0.48117424  0.32590653  1
  H+  H231  1  0.77236894  0.13512148  0.49594506  1
  H+  H232  1  0.72074755  0.12265522  0.16986403  1
  H+  H233  1  0.37938406  0.52936335  0.65901361  1
  H+  H234  1  -0.03747594  0.36005940  0.51391338  1
  H+  H235  1  0.11953023  0.76539254  0.85224844  1
  H+  H236  1  0.76412875  0.13345051  0.68814713  1
  H+  H237  1  0.61928640  0.48705427  0.50708624  1
  H+  H238  1  0.11367289  -0.02856474  0.82676954  1
  H+  H239  1  0.34451372  0.42736645  0.06734834  1
  H+  H240  1  0.36013311  0.01308571  0.31800322  1
  H+  H241  1  0.97421603  0.12008982  0.32678077  1
  H+  H242  1  0.25921238  0.12750261  0.50179661  1
  H+  H243  1  0.12871597  0.29654508  0.48879733  1
  H+  H244  1  0.08663415  0.93016185  0.43648793  1
  H+  H245  1  0.66903363  0.09984448  0.26608131  1
  H+  H246  1  0.88615463  1.03057987  0.33682356  1
  H+  H247  1  0.13002790  0.11580023  0.65769800  1
  H+  H248  1  0.90591939  0.64998481  0.17503120  1
  H+  H249  1  0.22180960  0.12086731  0.66042483  1
  H+  H250  1  0.24879148  0.65277877  0.81946557  1
  H+  H251  1  0.60077985  0.22059422  0.15476072  1
  H+  H252  1  0.93275279  0.83276431  0.93034633  1
  H+  H253  1  0.21181201  0.63488424  0.16712646  1
  H+  H254  1  0.06738725  0.48207378  0.48452871  1
  H+  H255  1  0.61496944  0.88812649  0.02058865  1
  H+  H256  1  0.26882805  0.13598897  1.00202445  1
  H+  H257  1  0.88268603  0.11909761  0.51324933  1
  H+  H258  1  0.42466797  0.32566993  0.23128010  1
  H+  H259  1  0.52970347  0.89342754  0.16996156  1
  H+  H260  1  0.21613560  0.12481125  0.16937405  1
  H+  H261  1  0.86104538  0.14570105  0.34176114  1
  H+  H262  1  0.39010694  0.02918011  0.84163782  1
  H+  H263  1  0.31513668  0.60798315  0.13764625  1
  H+  H264  1  0.22005231  0.10851244  0.83832817  1
  H+  H265  1  0.87615160  0.26689369  0.67841437  1
  H+  H266  1  0.43711136  0.76232132  0.00741072  1
  H+  H267  1  0.86581901  -0.01636923  0.50503270  1
  H+  H268  1  0.18042526  0.89593049  0.34097917  1
  H+  H269  1  0.24698324  0.61507825  0.32005063  1
  H+  H270  1  0.86002310  0.95687252  0.83407629  1
  H+  H271  1  0.75129336  0.34531053  0.15452503  1
  H+  H272  1  0.50027299  0.62218965  0.83822842  1
  H+  H273  1  0.89995464  0.85686964  0.67482434  1
  H+  H274  1  0.60903805  0.13301502  0.00176803  1
  H+  H275  1  0.50196220  0.12045866  0.33318787  1
  H+  H276  1  0.63665431  0.40222098  0.34984755  1
  H+  H277  1  0.36420014  0.88959530  0.82354238  1
  H+  H278  1  0.38149077  0.78363023  0.50735905  1
  H+  H279  1  0.98000749  0.61876082  0.65857675  1
  H+  H280  1  0.36800233  0.83870709  0.32047918  1
  H+  H281  1  0.98648499  0.37286424  0.83259410  1
  H+  H282  1  0.82654598  0.43727341  0.38324707  1
  H+  H283  1  0.73928858  0.36820828  0.49903692  1
  H+  H284  1  0.21794578  0.36898532  1.00921654  1
  H+  H285  1  0.38112895  0.79307140  0.16602234  1
  H+  H286  1  0.26309611  0.85183239  0.01950951  1
  H+  H287  1  0.77736721  0.38255664  0.00930620  1
  H+  H288  1  0.83072696  0.42253655  0.74144118  1
  H+  H289  1  0.58383356  0.41101389  0.09590907  1
  H+  H290  1  0.73830881  0.61440382  0.85536058  1
  H+  H291  1  0.29153234  0.68769381  0.43512743  1
  H+  H292  1  0.63629441  0.91136923  0.78195446  1
  H+  H293  1  0.42843478  0.84209517  0.88936628  1
  H+  H294  1  0.72307792  0.61746065  0.66266214  1
  H+  H295  1  0.16759856  0.08760780  0.56816268  1
  H+  H296  1  0.01650494  0.64376912  0.02087845  1
  H+  H297  1  0.81926523  0.89447117  0.77678555  1
  H+  H298  1  0.55663169  0.08166507  0.72470778  1
  H+  H299  1  0.30986395  0.90696560  0.73423914  1
  H+  H300  1  0.31188580  0.66751691  0.72868083  1
  H+  H301  1  0.86656437  0.38221466  0.00450555  1
  H+  H302  1  0.59939973  0.13664657  0.33260091  1
  H+  H303  1  0.81973285  0.15201565  0.75018720  1
  H+  H304  1  0.57165308  0.66901120  0.77020680  1
  H+  H305  1  0.40714657  0.32815304  0.90171069  1
  H+  H306  1  0.03971171  0.14707484  0.11644491  1
  H+  H307  1  0.32580443  0.16755264  0.06327931  1
  H+  H308  1  0.65175632  0.83466874  0.60793463  1
  H+  H309  1  0.53216797  0.63240261  0.01028437  1
  H+  H310  1  0.08928469  0.69193959  0.11047027  1
  H+  H311  1  0.67911450  0.34264032  0.91199281  1
  H+  H312  1  0.32644914  0.89147496  0.07775483  1
  H+  H313  1  0.23392134  0.35564726  0.57804903  1
  H+  H314  1  0.35786737  0.00366558  0.66663392  1
  H+  H315  1  0.08984146  0.91905202  0.73220265  1
  H+  H316  1  0.09419235  0.92443636  0.06592009  1
  H+  H317  1  0.34567729  0.42587281  0.77141292  1
  H+  H318  1  0.83875105  0.92409938  0.40570135  1
  H+  H319  1  0.14812454  0.59807062  0.59991567  1
  H+  H320  1  0.40534145  0.06837637  0.56372335  1
  H+  H321  1  0.40359349  0.71968071  0.07038444  1
  H+  H322  1  0.75634600  0.10189948  0.84313476  1
  H+  H323  1  0.09007985  0.17552828  0.39061001  1
  H+  H324  1  0.12982495  0.57655503  0.92832305  1
  H+  H325  1  0.40094317  0.08084578  0.26230364  1
  H+  H326  1  0.59682631  0.43318850  0.79045734  1
  H+  H327  1  0.07013483  0.42318940  0.10400528  1
  H+  H328  1  0.56614538  0.92645887  0.73204368  1
  H+  H329  1  0.82533202  0.16900388  0.06051537  1
  H+  H330  1  0.58550733  0.92364997  0.07679084  1
  H+  H331  1  0.39250696  0.85685166  0.99236760  1
  H+  H332  1  0.43228563  0.58051204  0.90647861  1
  H+  H333  1  0.41246611  0.82928754  0.23419191  1
  H+  H334  1  0.88130463  0.07328583  0.24499433  1
  H+  H335  1  0.63260423  1.03366822  0.17580193  1
  H+  H336  1  0.92446703  0.03942105  0.94776628  1
  H+  H337  1  0.97345105  0.09243028  0.84468671  1
  H+  H338  1  0.64746650  0.32321074  0.22739652  1
  H+  H339  1  0.10523503  0.21761709  0.82017486  1
  H+  H340  1  0.81862091  0.37734560  0.09003674  1
  H+  H341  1  0.11679147  0.14484088  0.33091516  1
  H+  H342  1  0.40026660  0.31455400  0.56865421  1
  H+  H343  1  0.54200660  0.11442865  0.72583159  1
  H+  H344  1  0.16546356  0.83002640  0.90657258  1
  H+  H345  1  0.92653915  0.83841362  0.57446948  1
  H+  H346  1  0.09683758  0.60342089  0.84238038  1
  H+  H347  1  0.41031573  0.83763136  0.56775908  1
  H+  H348  1  0.90240499  0.55026110  0.31787038  1
  H+  H349  1  0.90993581  0.33327188  0.23470497  1
  H+  H350  1  0.53604168  0.31111929  0.29955575  1
  H+  H351  1  0.82311909  0.65859287  0.76963642  1
  H+  H352  1  0.35234155  0.65500954  0.38141604  1
  H+  H353  1  0.38498665  0.54475442  0.49937693  1
  H+  H354  1  0.16411460  0.08955265  0.26246018  1
  H+  H355  1  0.65609395  0.06631260  0.93408426  1
  H+  H356  1  0.08284799  0.43115939  0.76383336  1
  H+  H357  1  0.91316089  0.32865711  0.92960148  1
  H+  H358  1  0.86836627  0.64426604  0.49531408  1
  H+  H359  1  0.59273879  0.66826541  0.07440211  1
  H+  H360  1  0.40841241  0.59119852  0.59999597  1
  H+  H361  1  0.52908699  0.89014288  0.50783457  1
  H+  H362  1  0.66775999  0.82707061  0.94937482  1
  H+  H363  1  0.68781502  0.85196839  0.27047882  1
  H+  H364  1  0.84755019  0.68694298  0.40184042  1
  H+  H365  1  0.15899399  0.07770913  0.89674324  1
  H+  H366  1  0.94544829  0.63404544  0.27522815  1
  H+  H367  1  0.22832861  0.31214743  0.58418119  1
  H+  H368  1  0.62061344  0.47235410  0.00227417  1
  H+  H369  1  0.91210891  0.57482067  0.56593054  1
  H+  H370  1  0.63056851  0.85472665  0.85531852  1
  H+  H371  1  0.43761675  0.58937393  0.23864381  1
  H+  H372  1  0.32678199  0.16151229  0.39763394  1
  H+  H373  1  0.67545551  0.08965088  0.60090461  1
  H+  H374  1  0.27438053  0.39308629  0.68668158  1
  H+  H375  1  0.90184384  0.32074959  0.61625393  1
  H+  H376  1  0.87845530  0.36933982  0.32102196  1
  H+  H377  1  0.83190641  0.17443738  0.40108955  1
  H+  H378  1  0.64340626  0.77869558  0.51169397  1
  H+  H379  1  0.61621379  0.48117704  0.64146814  1
  H+  H380  1  0.27032193  0.66764158  0.07736583  1
  H+  H381  1  0.67198081  0.60131345  0.56598789  1
  H+  H382  1  0.88913545  0.85050844  0.84153106  1
  H+  H383  1  0.91848692  0.59454951  0.95020980  1
  O2-  O384  1  0.03221705  0.13944247  0.16093712  1
  O2-  O385  1  0.06279167  0.13450719  0.47273507  1
  O2-  O386  1  0.07257392  0.15481768  0.81106960  1
  O2-  O387  1  0.07065526  0.42448671  0.14964009  1
  O2-  O388  1  0.05063751  0.42142420  0.47436163  1
  O2-  O389  1  0.08334195  0.42711591  0.80961062  1
  O2-  O390  1  0.09333964  0.69940090  0.15562044  1
  O2-  O391  1  0.07066150  0.57975971  0.49358914  1
  O2-  O392  1  0.03250752  0.65046066  0.83377364  1
  O2-  O393  1  0.09513339  0.93229165  0.14543026  1
  O2-  O394  1  0.08507647  0.93264956  0.48221755  1
  O2-  O395  1  0.08506439  0.91142291  0.81079647  1
  O2-  O396  1  0.32142364  0.16690173  0.14044233  1
  O2-  O397  1  0.32407254  0.15941276  0.48619990  1
  O2-  O398  1  0.32675573  0.16222830  0.81359768  1
  O2-  O399  1  0.36397903  0.42544691  0.13711589  1
  O2-  O400  1  0.34019245  0.45062849  0.46800749  1
  O2-  O401  1  0.34171167  0.42306248  0.81692544  1
  O2-  O402  1  0.29407652  0.71860420  0.10311949  1
  O2-  O403  1  0.29806267  0.67240727  0.47661189  1
  O2-  O404  1  0.30616501  0.67465874  0.80141386  1
  O2-  O405  1  0.34246104  0.93121530  0.15023117  1
  O2-  O406  1  0.30318692  0.91651730  0.45587705  1
  O2-  O407  1  0.33044992  0.91819422  0.81234908  1
  O2-  O408  1  0.56887625  0.16031907  0.14006934  1
  O2-  O409  1  0.53536848  0.08180768  0.46137173  1
  O2-  O410  1  0.59234900  0.17259125  0.83674679  1
  O2-  O411  1  0.58874818  0.41167863  0.14046862  1
  O2-  O412  1  0.58733059  0.42241268  0.50550712  1
  O2-  O413  1  0.58432341  0.41579565  0.83285147  1
  O2-  O414  1  0.59659539  0.66636216  0.14776691  1
  O2-  O415  1  0.58639840  0.67679610  0.47936181  1
  O2-  O416  1  0.57149962  0.66543541  0.81598132  1
  O2-  O417  1  0.58883419  0.92970285  0.15313874  1
  O2-  O418  1  0.59181523  0.92558559  0.49789445  1
  O2-  O419  1  0.59601691  0.91014379  0.81213884  1
  O2-  O420  1  0.82053241  0.16118563  0.14348147  1
  O2-  O421  1  0.83354561  0.16640788  0.48085880  1
  O2-  O422  1  0.82183723  0.13614092  0.83318425  1
  O2-  O423  1  0.80083781  0.34565934  0.13182582  1
  O2-  O424  1  0.84771922  0.42849204  0.46251954  1
  O2-  O425  1  0.84634011  0.43672095  0.81984726  1
  O2-  O426  1  0.78840144  0.64989284  0.08501813  1
  O2-  O427  1  0.84263847  0.67927470  0.48232513  1
  O2-  O428  1  0.82622184  0.65646352  0.81434386  1
  O2-  O429  1  0.82723427  0.88580258  0.11041447  1
  O2-  O430  1  0.83932719  0.92427756  0.48808547  1
  O2-  O431  1  0.82284703  0.89485232  0.82110846  1
  O2-  O432  1  0.15637587  0.09277106  0.18605349  1
  O2-  O433  1  0.17093281  0.08861238  0.52193392  1
  O2-  O434  1  0.15849205  0.07730547  0.85115291  1
  O2-  O435  1  0.13908594  0.32110128  0.19491550  1
  O2-  O436  1  0.16298628  0.35621585  0.47644498  1
  O2-  O437  1  0.16249595  0.33213782  0.81419135  1
  O2-  O438  1  0.15749476  0.59692139  0.18811190  1
  O2-  O439  1  0.15005228  0.62712768  0.53038973  1
  O2-  O440  1  0.13792655  0.58512901  0.85581365  1
  O2-  O441  1  0.18559507  0.86194481  0.19680682  1
  O2-  O442  1  0.15966230  0.83378492  0.51865822  1
  O2-  O443  1  0.16123785  0.82612600  0.86092398  1
  O2-  O444  1  0.40700919  0.09087071  0.18708451  1
  O2-  O445  1  0.40254787  0.07691753  0.51983173  1
  O2-  O446  1  0.42034280  0.09042199  0.85457552  1
  O2-  O447  1  0.42319291  0.32469969  0.18538189  1
  O2-  O448  1  0.40220647  0.30644985  0.52312151  1
  O2-  O449  1  0.41107113  0.32765326  0.85625064  1
  O2-  O450  1  0.44429713  0.58703325  0.19054081  1
  O2-  O451  1  0.41490917  0.60333930  0.52011989  1
  O2-  O452  1  0.43027002  0.58078487  0.86076336  1
  O2-  O453  1  0.42111095  0.84460669  0.18891668  1
  O2-  O454  1  0.42333017  0.84059437  0.52377298  1
  O2-  O455  1  0.42246908  0.84009928  0.84421921  1
  O2-  O456  1  0.66124021  0.09568343  0.18781253  1
  O2-  O457  1  0.67370528  0.08417139  0.52580423  1
  O2-  O458  1  0.66097988  0.05538847  0.85783580  1
  O2-  O459  1  0.66242841  0.32710299  0.18361304  1
  O2-  O460  1  0.69056060  0.35477867  0.52614912  1
  O2-  O461  1  0.67779595  0.34461820  0.86632953  1
  O2-  O462  1  0.67489518  0.57508916  0.18176029  1
  O2-  O463  1  0.67264466  0.59676390  0.52072196  1
  O2-  O464  1  0.68411125  0.58741776  0.88041005  1
  O2-  O465  1  0.71865125  0.90126890  0.19051011  1
  O2-  O466  1  0.67340126  0.83572427  0.53262183  1
  O2-  O467  1  0.65789969  0.82115009  0.87206098  1
  O2-  O468  1  0.86755667  0.05991025  0.20080778  1
  O2-  O469  1  0.91045948  0.08864196  0.53365340  1
  O2-  O470  1  0.91539907  0.05451955  0.86308639  1
  O2-  O471  1  0.91112794  0.32999006  0.18877043  1
  O2-  O472  1  0.90558926  0.32429437  0.53564386  1
  O2-  O473  1  0.92360938  0.34050052  0.84606027  1
  O2-  O474  1  0.94935238  0.68374150  0.20599497  1
  O2-  O475  1  0.91574393  0.57662857  0.52043456  1
  O2-  O476  1  0.95009939  0.60887775  0.86666425  1
  O2-  O477  1  0.93470831  0.83559371  0.18787040  1
  O2-  O478  1  0.92350780  0.84256173  0.52918124  1
  O2-  O479  1  0.92258188  0.82306658  0.85471803  1
  O2-  O480  1  0.16509913  0.08972503  0.30829622  1
  O2-  O481  1  0.16352096  0.08907680  0.64167952  1
  O2-  O482  1  0.16453843  0.08236617  0.97443205  1
  O2-  O483  1  0.17518065  0.34900240  0.31316519  1
  O2-  O484  1  0.16239677  0.33777368  0.69279878  1
  O2-  O485  1  0.15618024  0.32893040  1.00085097  1
  O2-  O486  1  0.18398188  0.59007933  0.30678495  1
  O2-  O487  1  0.15053552  0.59089348  0.64591419  1
  O2-  O488  1  0.13203240  0.57428701  0.97463756  1
  O2-  O489  1  0.20835038  0.86640017  0.32078370  1
  O2-  O490  1  0.13308895  0.77526717  0.64909125  1
  O2-  O491  1  0.17195390  0.83309223  0.98342933  1
  O2-  O492  1  0.39861645  0.07556105  0.30810671  1
  O2-  O493  1  0.39792874  0.06804976  0.65831998  1
  O2-  O494  1  0.41776108  0.09431890  0.97206314  1
  O2-  O495  1  0.43015168  0.32762338  0.30669618  1
  O2-  O496  1  0.40906282  0.33209629  0.64273547  1
  O2-  O497  1  0.39905307  0.33099405  0.97959593  1
  O2-  O498  1  0.42816086  0.59023719  0.30341833  1
  O2-  O499  1  0.40819888  0.59044371  0.64558449  1
  O2-  O500  1  0.44069027  0.58651499  0.98310209  1
  O2-  O501  1  0.40570557  0.81784474  0.30560818  1
  O2-  O502  1  0.39613703  0.83463398  0.64961479  1
  O2-  O503  1  0.43534944  0.84744664  0.97004227  1
  O2-  O504  1  0.66392600  0.09669048  0.31143638  1
  O2-  O505  1  0.66907510  0.09493181  0.64620943  1
  O2-  O506  1  0.65731912  0.07830374  0.97872655  1
  O2-  O507  1  0.59160911  0.31277397  0.30247703  1
  O2-  O508  1  0.65970167  0.33495361  0.67187617  1
  O2-  O509  1  0.67785416  0.33155822  0.98865693  1
  O2-  O510  1  0.68996862  0.59861214  0.30721434  1
  O2-  O511  1  0.66307403  0.58824930  0.64549162  1
  O2-  O512  1  0.67280460  0.56021616  0.99485802  1
  O2-  O513  1  0.67702571  0.84281409  0.31463053  1
  O2-  O514  1  0.64385459  0.83575913  0.65322725  1
  O2-  O515  1  0.66481245  0.82379962  0.99513378  1
  O2-  O516  1  0.91102727  0.09007140  0.31954718  1
  O2-  O517  1  0.90425391  0.07961768  0.65540727  1
  O2-  O518  1  0.92332976  0.02882518  0.99200511  1
  O2-  O519  1  0.90901223  0.33849820  0.30920974  1
  O2-  O520  1  0.90219342  0.32625552  0.66137229  1
  O2-  O521  1  0.90923603  0.32825139  0.97449055  1
  O2-  O522  1  0.94111163  0.61319146  0.31796158  1
  O2-  O523  1  0.91947094  0.58303608  0.64449464  1
  O2-  O524  1  0.91243021  0.58396357  0.99457759  1
  O2-  O525  1  0.93541099  0.85348929  0.31320833  1
  O2-  O526  1  0.92810693  0.82973723  0.65348952  1
  O2-  O527  1  0.94352413  0.84472389  0.97502694  1
  O2-  O528  1  0.10716342  0.17722114  0.04364103  1
  O2-  O529  1  0.08652504  0.17577618  0.34593479  1
  O2-  O530  1  0.07417778  0.16193831  0.68810686  1
  O2-  O531  1  0.06534593  0.41324020  0.02676978  1
  O2-  O532  1  0.08231973  0.42201119  0.35366409  1
  O2-  O533  1  0.07817997  0.42863195  0.68798113  1
  O2-  O534  1  0.07867860  0.67441819  0.03214772  1
  O2-  O535  1  0.09344801  0.64082633  0.38210007  1
  O2-  O536  1  0.09424921  0.69435448  0.68406082  1
  O2-  O537  1  0.09855609  0.92430484  0.02062459  1
  O2-  O538  1  0.09936825  0.93137280  0.35989151  1
  O2-  O539  1  0.08540605  0.91918437  0.68700734  1
  O2-  O540  1  0.32893534  0.17111429  0.01758689  1
  O2-  O541  1  0.32823883  0.16463247  0.35298880  1
  O2-  O542  1  0.32675150  0.17136250  0.69088219  1
  O2-  O543  1  0.33405673  0.42977024  0.02184004  1
  O2-  O544  1  0.35185897  0.42052571  0.34053321  1
  O2-  O545  1  0.33787562  0.42632186  0.69297805  1
  O2-  O546  1  0.43923260  0.72054556  0.03635982  1
  O2-  O547  1  0.34622027  0.66129040  0.33798230  1
  O2-  O548  1  0.31483654  0.66743292  0.68250755  1
  O2-  O549  1  0.31268328  0.85299761  0.04145320  1
  O2-  O550  1  0.29861359  0.91023133  0.34189167  1
  O2-  O551  1  0.30311270  0.90390161  0.68891290  1
  O2-  O552  1  0.58352658  0.16834675  0.01672043  1
  O2-  O553  1  0.56077423  0.15611057  0.35120452  1
  O2-  O554  1  0.59468846  0.18845660  0.61936308  1
  O2-  O555  1  0.57821956  0.40376887  0.00926152  1
  O2-  O556  1  0.66570143  0.45662398  0.37354518  1
  O2-  O557  1  0.58754266  0.41786314  0.63128568  1
  O2-  O558  1  0.59297851  0.67027359  0.02814775  1
  O2-  O559  1  0.59343285  0.67469974  0.35353910  1
  O2-  O560  1  0.57013091  0.66569406  0.69328481  1
  O2-  O561  1  0.58734457  0.92216136  0.03113469  1
  O2-  O562  1  0.58385491  0.91612984  0.33573198  1
  O2-  O563  1  0.56641761  0.92900951  0.68684996  1
  O2-  O564  1  0.82512771  0.17329064  0.01558319  1
  O2-  O565  1  0.83102136  0.17693261  0.35575375  1
  O2-  O566  1  0.82367074  0.16030977  0.70543475  1
  O2-  O567  1  0.83809409  0.41144672  0.02584677  1
  O2-  O568  1  0.82879963  0.43599980  0.33810609  1
  O2-  O569  1  0.82196487  0.41336729  0.69623795  1
  O2-  O570  1  0.86379042  0.64039210  0.09412908  1
  O2-  O571  1  0.85184159  0.68971653  0.35660520  1
  O2-  O572  1  0.82653688  0.66126403  0.68561537  1
  O2-  O573  1  0.82161139  0.87601342  0.04408796  1
  O2-  O574  1  0.84055137  0.92675005  0.36049175  1
  O2-  O575  1  0.82271931  0.91092276  0.67546004  1
