# generated using pymatgen
data_H2O
_symmetry_space_group_name_H-M   'P 1'
_cell_length_a   17.99214154
_cell_length_b   17.98556897
_cell_length_c   22.00977656
_cell_angle_alpha   89.95702697
_cell_angle_beta   90.03608002
_cell_angle_gamma   119.98756330
_symmetry_Int_Tables_number   1
_chemical_formula_structural   H2O
_chemical_formula_sum   'H384 O192'
_cell_volume   6168.89782224
_cell_formula_units_Z   192
loop_
 _symmetry_equiv_pos_site_id
 _symmetry_equiv_pos_as_xyz
  1  'x, y, z'
loop_
 _atom_type_symbol
 _atom_type_oxidation_number
  H+  1.0
  O2-  -2.0
loop_
 _atom_site_type_symbol
 _atom_site_label
 _atom_site_symmetry_multiplicity
 _atom_site_fract_x
 _atom_site_fract_y
 _atom_site_fract_z
 _atom_site_occupancy
  H+  H0  1  0.90002359  0.38902482  0.33877667  1
  H+  H1  1  0.60267200  0.37653468  0.67503132  1
  H+  H2  1  0.61349461  0.88218107  0.83151887  1
  H+  H3  1  0.08261436  0.48849497  0.15531126  1
  H+  H4  1  0.40727444  0.82565900  0.91057085  1
  H+  H5  1  0.03529580  0.40109374  0.34333401  1
  H+  H6  1  0.91076607  0.32882831  0.92863321  1
  H+  H7  1  0.60651685  0.22863003  0.82882921  1
  H+  H8  1  0.21758437  0.86896651  0.32563760  1
  H+  H9  1  0.22678484  0.87497731  0.85981854  1
  H+  H10  1  0.97257136  0.36267019  0.83867222  1
  H+  H11  1  0.87933012  0.24859312  0.31337196  1
  H+  H12  1  0.39175656  0.86375814  0.84638364  1
  H+  H13  1  -0.01653045  0.60154708  0.18290076  1
  H+  H14  1  0.88649931  1.01564384  0.15970865  1
  H+  H15  1  0.27776878  0.14107254  1.01090846  1
  H+  H16  1  0.63922012  0.36765281  0.84047215  1
  H+  H17  1  0.60871731  0.63635135  0.49487164  1
  H+  H18  1  0.02698159  0.88789185  0.15382962  1
  H+  H19  1  0.11543216  0.20765908  0.16563310  1
  H+  H20  1  0.95528702  0.34646415  0.51042049  1
  H+  H21  1  0.82813374  0.66189995  0.04468643  1
  H+  H22  1  0.18382748  0.44266286  0.16716303  1
  H+  H23  1  0.94343812  0.38260679  0.27648970  1
  H+  H24  1  0.39208155  0.52529992  0.98371155  1
  H+  H25  1  0.63011483  0.26724680  0.66372809  1
  H+  H26  1  0.04093251  0.66452820  0.82984780  1
  H+  H27  1  0.91639121  0.99399699  0.33886188  1
  H+  H28  1  0.38307806  0.27390196  0.33287182  1
  H+  H29  1  0.02741567  0.13524719  0.00733227  1
  H+  H30  1  0.39158122  0.02716906  0.17649848  1
  H+  H31  1  0.72355819  0.35826987  0.51191167  1
  H+  H32  1  -0.02103915  0.85757942  0.50680440  1
  H+  H33  1  0.63448722  0.36540898  0.16479989  1
  H+  H34  1  0.63433677  0.52673152  0.31987316  1
  H+  H35  1  0.38038923  0.86842962  0.33165682  1
  H+  H36  1  0.83983463  0.89580143  -0.02219617  1
  H+  H37  1  0.77572920  0.88365083  0.15371154  1
  H+  H38  1  0.62098097  0.13750583  0.68218870  1
  H+  H39  1  0.24829356  0.90124236  0.48982653  1
  H+  H40  1  0.48728603  0.61860655  0.66365308  1
  H+  H41  1  0.36813343  0.73993314  0.83712264  1
  H+  H42  1  0.36696617  0.15036090  0.83279066  1
  H+  H43  1  0.61512659  0.89932465  0.34088337  1
  H+  H44  1  0.14110873  0.39407817  0.51437040  1
  H+  H45  1  0.61587065  0.35139221  0.31388854  1
  H+  H46  1  0.47837495  0.11846940  0.17245513  1
  H+  H47  1  0.08551758  0.46673559  0.49553600  1
  H+  H48  1  0.60624011  0.23103587  0.15436342  1
  H+  H49  1  0.04178179  0.80221616  0.78661711  1
  H+  H50  1  0.36616580  0.39470341  0.67510370  1
  H+  H51  1  0.35793114  0.50396789  0.15775385  1
  H+  H52  1  0.63075539  0.09734360  0.52146029  1
  H+  H53  1  0.17247133  0.08043643  0.23480382  1
  H+  H54  1  0.63267021  0.53066934  0.82486740  1
  H+  H55  1  0.88057890  0.72177842  0.99033280  1
  H+  H56  1  0.37881299  0.40570079  0.82570527  1
  H+  H57  1  0.60786675  0.72889158  0.82557635  1
  H+  H58  1  0.12109856  0.72824354  0.16553965  1
  H+  H59  1  0.14368041  0.03081995  0.33084678  1
  H+  H60  1  0.36086594  0.73690791  0.35186774  1
  H+  H61  1  0.97775666  0.10781782  0.50773633  1
  H+  H62  1  0.34124643  0.43109948  0.73463910  1
  H+  H63  1  0.52659977  0.90159806  0.34248654  1
  H+  H64  1  0.02885019  0.63450855  0.01365947  1
  H+  H65  1  0.61784954  0.61087145  0.17120500  1
  H+  H66  1  0.88388371  0.36205879  0.66526466  1
  H+  H67  1  0.15678097  0.43142623  0.19574961  1
  H+  H68  1  0.24665843  0.32275864  0.20368876  1
  H+  H69  1  0.51692255  0.39052189  0.33663232  1
  H+  H70  1  0.38823769  0.27700510  0.99153334  1
  H+  H71  1  0.11172683  0.39207006  0.67844314  1
  H+  H72  1  0.07705279  0.01282809  0.79875780  1
  H+  H73  1  0.72037596  0.11978531  0.16265319  1
  H+  H74  1  0.23980678  0.41442620  0.51758714  1
  H+  H75  1  0.64794879  0.77703353  0.18993867  1
  H+  H76  1  0.14245070  0.01908728  0.17501358  1
  H+  H77  1  0.28662184  0.39411171  0.83025172  1
  H+  H78  1  0.39347659  0.77656269  0.51207601  1
  H+  H79  1  0.37951574  0.03476786  0.50317579  1
  H+  H80  1  0.13021432  0.89151876  0.00748433  1
  H+  H81  1  0.71490756  0.09063589  0.52796754  1
  H+  H82  1  0.86673311  0.22621064  0.82945589  1
  H+  H83  1  0.22732329  0.37228011  0.66735936  1
  H+  H84  1  0.85522985  0.11577726  0.51511381  1
  H+  H85  1  0.35674218  0.22756816  0.50177998  1
  H+  H86  1  0.92723942  0.08261852  0.25334388  1
  H+  H87  1  0.19449235  0.51538841  0.54096704  1
  H+  H88  1  0.33476272  0.69057296  0.76883818  1
  H+  H89  1  0.78768986  0.88667627  0.48231973  1
  H+  H90  1  0.72668513  0.36026024  -0.00652358  1
  H+  H91  1  0.85735929  0.12474445  0.14257387  1
  H+  H92  1  0.63921931  0.86076230  0.66259352  1
  H+  H93  1  0.27987519  0.63469668  0.50545568  1
  H+  H94  1  0.27776289  0.13765261  0.16344545  1
  H+  H95  1  0.27878127  0.39433440  0.35402492  1
  H+  H96  1  0.22954914  0.62372337  0.33670832  1
  H+  H97  1  0.71214383  0.60539088  0.65518064  1
  H+  H98  1  0.72614258  0.85813363  0.66802755  1
  H+  H99  1  0.39121028  0.52021536  0.66382781  1
  H+  H100  1  0.36930660  0.14478219  0.50300282  1
  H+  H101  1  0.34102061  0.91383228  0.10922286  1
  H+  H102  1  0.88784262  0.27262558  0.22392281  1
  H+  H103  1  0.63327139  0.77563791  -0.00473533  1
  H+  H104  1  0.65550960  0.63269098  -0.02945012  1
  H+  H105  1  0.14152734  0.11602291  -0.00053406  1
  H+  H106  1  0.76123311  0.64778648  0.80612333  1
  H+  H107  1  0.90042422  0.85960924  0.31729917  1
  H+  H108  1  0.35892076  0.76165132  0.67786315  1
  H+  H109  1  0.12857194  -0.01832145  1.00300085  1
  H+  H110  1  0.91449071  0.09346643  1.04330344  1
  H+  H111  1  0.85086188  0.73241720  0.81527338  1
  H+  H112  1  0.60513848  0.13371577  0.00899327  1
  H+  H113  1  0.04223664  0.02732254  0.61785053  1
  H+  H114  1  0.97262165  0.84475851  0.84266545  1
  H+  H115  1  0.60930871  0.63803216  0.33659699  1
  H+  H116  1  0.64434713  0.86127848  0.17717680  1
  H+  H117  1  0.85142207  0.37440608  0.50294236  1
  H+  H118  1  0.85394353  0.12897321  -0.00738184  1
  H+  H119  1  0.66147839  0.32670432  0.57115402  1
  H+  H120  1  0.68492766  0.84090297  0.56136576  1
  H+  H121  1  0.75608598  0.64498302  0.13828570  1
  H+  H122  1  0.14207315  0.27854362  0.00127520  1
  H+  H123  1  0.25744272  0.89369743  0.67694291  1
  H+  H124  1  0.35393544  0.98099127  0.33216897  1
  H+  H125  1  0.71788732  0.86969191  -0.00616778  1
  H+  H126  1  0.60205666  0.46552282  0.67423759  1
  H+  H127  1  0.17642154  0.34793113  0.19481523  1
  H+  H128  1  0.52501701  0.13287686  0.49452465  1
  H+  H129  1  0.11416222  0.87946566  0.49655350  1
  H+  H130  1  0.51271734  0.14538715  0.83201288  1
  H+  H131  1  0.63667067  0.27182633  -0.00748934  1
  H+  H132  1  0.37198619  0.63582590  0.01161982  1
  H+  H133  1  0.52107443  0.63952060  0.33785154  1
  H+  H134  1  0.61154929  0.72890623  0.67145653  1
  H+  H135  1  0.38425730  0.53446547  0.83278366  1
  H+  H136  1  0.53192426  0.89679699  0.67336057  1
  H+  H137  1  0.13866341  0.76758152  0.51499229  1
  H+  H138  1  0.15007946  0.27450257  0.84765502  1
  H+  H139  1  0.86104396  0.37918472  0.00584468  1
  H+  H140  1  0.12002385  0.62949926  0.49503231  1
  H+  H141  1  0.60742658  0.10155288  0.84691331  1
  H+  H142  1  0.83315378  0.40793892  0.06722366  1
  H+  H143  1  0.13099260  0.88087732  0.66018798  1
  H+  H144  1  0.64796969  0.12756200  0.32339079  1
  H+  H145  1  0.65035435  0.04121666  0.32076697  1
  H+  H146  1  0.88999380  0.86416364  0.15933039  1
  H+  H147  1  0.02248588  0.39260623  0.67530505  1
  H+  H148  1  0.89322771  0.51665685  0.99973798  1
  H+  H149  1  0.09270480  0.47662808  0.83071469  1
  H+  H150  1  0.23255947  0.61263261  0.99911630  1
  H+  H151  1  0.37754734  0.27642084  0.17435548  1
  H+  H152  1  -0.00270843  0.39658725  0.15178676  1
  H+  H153  1  0.84652265  0.20045783  0.51368716  1
  H+  H154  1  0.71833397  0.35723057  0.66390706  1
  H+  H155  1  0.89002244  0.27597915  0.66822753  1
  H+  H156  1  0.85809568  0.71444393  0.33759249  1
  H+  H157  1  0.14773263  0.12042461  0.32584534  1
  H+  H158  1  0.46891705  0.85669418  -0.00128595  1
  H+  H159  1  0.11974219  0.63903236  0.01314491  1
  H+  H160  1  0.52170011  0.12858080  0.34288027  1
  H+  H161  1  0.38707308  0.03366737  0.84673604  1
  H+  H162  1  0.60342485  0.47674325  0.15822838  1
  H+  H163  1  0.74233439  0.62818616  -0.03317278  1
  H+  H164  1  0.66158326  0.83038356  0.90196175  1
  H+  H165  1  0.38948446  0.11748129  0.32943427  1
  H+  H166  1  0.12655939  0.48664957  0.34712189  1
  H+  H167  1  0.14021971  0.86572671  0.17085734  1
  H+  H168  1  0.37162375  0.49011364  0.50236654  1
  H+  H169  1  0.12801070  0.62928532  0.84753388  1
  H+  H170  1  0.57693074  0.67019594  0.73247221  1
  H+  H171  1  0.51676836  0.38678778  0.16333854  1
  H+  H172  1  0.59822766  -0.02976634  1.01266365  1
  H+  H173  1  0.34901667  0.64121872  0.11694784  1
  H+  H174  1  0.86120103  0.62795718  0.34090815  1
  H+  H175  1  0.86229819  0.88531079  0.68928227  1
  H+  H176  1  0.14940853  0.61995463  0.18015943  1
  H+  H177  1  0.11257472  1.01678669  0.81893487  1
  H+  H178  1  0.27688891  0.88598642  0.01544068  1
  H+  H179  1  0.85159642  0.36894057  0.16226183  1
  H+  H180  1  0.88795695  1.02269676  0.85445429  1
  H+  H181  1  0.36721823  0.72105230  0.02000324  1
  H+  H182  1  0.52116149  0.87408654  0.83436921  1
  H+  H183  1  0.85287202  0.46819218  0.67243466  1
  H+  H184  1  -0.02910110  0.83641847  0.30987242  1
  H+  H185  1  0.01880896  0.94429673  0.36398312  1
  H+  H186  1  0.03167413  0.13843482  0.33096938  1
  H+  H187  1  0.59923523  0.35128675  0.49278187  1
  H+  H188  1  0.33614750  0.16887542  0.40611122  1
  H+  H189  1  0.63396914  0.52413784  0.50979010  1
  H+  H190  1  0.07791373  0.17164671  0.77023783  1
  H+  H191  1  0.87056653  0.48320126  0.34975924  1
  H+  H192  1  0.70987329  0.10281289  0.99271172  1
  H+  H193  1  0.83161573  0.91704502  0.77931211  1
  H+  H194  1  0.76966581  0.38110959  0.15922462  1
  H+  H195  1  0.37991851  0.36859274  0.51169316  1
  H+  H196  1  0.47862924  0.86481160  0.50004455  1
  H+  H197  1  0.88925098  0.60682386  0.50732117  1
  H+  H198  1  0.72665381  0.86152467  0.84524221  1
  H+  H199  1  0.28016597  0.42183824  0.12679943  1
  H+  H200  1  0.11658937  0.64126602  0.34414964  1
  H+  H201  1  0.48028661  0.36343958  0.99247698  1
  H+  H202  1  0.27840791  0.13910397  0.34514203  1
  H+  H203  1  0.81642274  0.65937184  0.71693370  1
  H+  H204  1  0.72478673  0.61250732  0.32244898  1
  H+  H205  1  0.42394766  0.34418008  0.89785079  1
  H+  H206  1  0.13041931  0.76041096  0.84326222  1
  H+  H207  1  0.87573989  0.25333864  0.15595083  1
  H+  H208  1  0.22831435  1.10819376  0.51460117  1
  H+  H209  1  0.36916035  0.14314479  0.16340803  1
  H+  H210  1  1.00787681  0.54737298  0.86853874  1
  H+  H211  1  0.11201743  0.12925162  0.49230979  1
  H+  H212  1  0.27434530  0.66637037  0.67974309  1
  H+  H213  1  0.89070500  0.77003845  0.50600183  1
  H+  H214  1  0.85481270  0.71587322  0.66074078  1
  H+  H215  1  0.89338450  0.01700687  0.50485142  1
  H+  H216  1  0.37972260  0.85591667  1.00074234  1
  H+  H217  1  0.90949931  0.85443874  1.01381608  1
  H+  H218  1  0.22477234  0.22706752  0.88123197  1
  H+  H219  1  0.44372127  0.97784411  0.79241620  1
  H+  H220  1  0.86410992  0.88784435  0.83739785  1
  H+  H221  1  0.11446918  0.22969402  0.67447929  1
  H+  H222  1  0.52996036  0.39578741  0.82964411  1
  H+  H223  1  0.77923277  0.14482355  0.68078235  1
  H+  H224  1  0.38173885  0.36879431  0.17168614  1
  H+  H225  1  0.47432504  0.62441521  0.83219785  1
  H+  H226  1  0.88012050  0.10826606  0.68112067  1
  H+  H227  1  0.14709640  0.62141614  0.67013497  1
  H+  H228  1  0.23193465  0.36784371  1.00000566  1
  H+  H229  1  0.38644367  0.11274147  1.00035973  1
  H+  H230  1  0.14347349  0.77611838  1.00365166  1
  H+  H231  1  0.98026530  0.61573237  0.33364821  1
  H+  H232  1  0.13910946  0.52729724  0.67077536  1
  H+  H233  1  0.47584784  0.11336523  0.99767182  1
  H+  H234  1  0.77428153  0.38841316  0.82921849  1
  H+  H235  1  0.41663440  0.59022208  0.92673077  1
  H+  H236  1  0.86946819  0.99789421  0.00339936  1
  H+  H237  1  0.57551068  0.89675973  0.10539707  1
  H+  H238  1  0.40575945  0.33278202  0.27283341  1
  H+  H239  1  0.28024619  0.88636284  0.16718407  1
  H+  H240  1  0.11782382  0.22574387  0.34803470  1
  H+  H241  1  0.14127979  0.52622133  0.99417120  1
  H+  H242  1  0.38326242  0.84718560  0.18014576  1
  H+  H243  1  0.61515021  0.26173656  0.31850123  1
  H+  H244  1  0.86895683  0.13921498  0.83037599  1
  H+  H245  1  0.88681155  0.93329889  0.39853431  1
  H+  H246  1  0.12615516  0.86380179  0.32681342  1
  H+  H247  1  0.79171036  0.16157021  0.29881646  1
  H+  H248  1  0.14323010  0.36869832  0.34153808  1
  H+  H249  1  0.61266350  0.01414641  0.84638099  1
  H+  H250  1  0.92268945  0.57871094  0.27281951  1
  H+  H251  1  0.96930476  0.10974547  0.68260549  1
  H+  H252  1  0.46646609  0.36026583  0.66613249  1
  H+  H253  1  0.64602432  1.02880356  0.67496205  1
  H+  H254  1  0.77576086  0.63323410  0.49621366  1
  H+  H255  1  0.39311100  0.62281669  0.51539842  1
  H+  H256  1  0.60070354  0.88250994  0.00756718  1
  H+  H257  1  0.90201490  0.12568034  0.30426945  1
  H+  H258  1  0.52312333  0.86573438  0.16751763  1
  H+  H259  1  0.97760301  0.60520432  0.50884518  1
  H+  H260  1  0.87329499  0.46720802  0.83089397  1
  H+  H261  1  0.49106123  0.64323625  0.16676383  1
  H+  H262  1  0.36082835  0.21400098  0.66976051  1
  H+  H263  1  0.62293321  0.60487781  0.66137888  1
  H+  H264  1  1.00132273  0.86928524  0.99636161  1
  H+  H265  1  0.60416546  0.63729956  0.81923769  1
  H+  H266  1  0.38054137  0.53213022  0.32754748  1
  H+  H267  1  0.39908614  0.28933442  0.83623850  1
  H+  H268  1  0.41801617  0.08911437  0.26793749  1
  H+  H269  1  0.10697087  0.85668651  0.83792476  1
  H+  H270  1  0.52243032  0.63265409  -0.00442230  1
  H+  H271  1  -0.01294371  0.86166061  0.67869255  1
  H+  H272  1  0.64814304  0.78222032  0.50383080  1
  H+  H273  1  0.87396479  0.88257301  0.48954970  1
  H+  H274  1  0.49621844  0.08962561  0.65484324  1
  H+  H275  1  0.28934588  0.16962638  0.83107754  1
  H+  H276  1  0.11502040  0.12062444  0.15954451  1
  H+  H277  1  0.63396676  0.78453222  0.33369258  1
  H+  H278  1  -0.02892399  0.35730642  -0.01227198  1
  H+  H279  1  0.21210930  0.73608234  0.71125531  1
  H+  H280  1  -0.13122709  0.59541471  0.65829252  1
  H+  H281  1  0.89452676  0.60589427  0.98886919  1
  H+  H282  1  0.37502530  0.39105874  -0.00067492  1
  H+  H283  1  0.39749807  0.01545558  0.65750110  1
  H+  H284  1  -0.02281058  0.10341152  0.16058679  1
  H+  H285  1  0.11242203  0.72880509  0.34429467  1
  H+  H286  1  0.45151365  0.94034694  0.63223290  1
  H+  H287  1  0.36979686  0.64460094  0.82424427  1
  H+  H288  1  0.60727907  0.37912661  1.00555502  1
  H+  H289  1  0.35994119  0.64747800  0.34739263  1
  H+  H290  1  0.58366493  0.41507005  0.76835068  1
  H+  H291  1  0.94389374  0.56283121  0.90849506  1
  H+  H292  1  0.82568785  0.40961749  0.73264631  1
  H+  H293  1  0.42384783  0.58660983  0.59928409  1
  H+  H294  1  0.07819902  0.92405634  0.40578848  1
  H+  H295  1  0.83995161  0.17326712  0.74005803  1
  H+  H296  1  0.36794121  0.39616352  0.34964434  1
  H+  H297  1  0.42834327  0.07528850  0.56538088  1
  H+  H298  1  0.36623287  -0.02518390  1.01419132  1
  H+  H299  1  0.65557525  0.57911726  0.57008160  1
  H+  H300  1  1.01977907  0.14085684  0.83201084  1
  H+  H301  1  0.16309670  0.83546127  0.23275222  1
  H+  H302  1  0.89410638  0.51391139  0.18213130  1
  H+  H303  1  0.09396955  0.92253228  0.09839543  1
  H+  H304  1  0.07495493  0.42042787  0.77122320  1
  H+  H305  1  0.87895021  0.35503680  0.83769623  1
  H+  H306  1  0.92079617  0.08499242  0.91213644  1
  H+  H307  1  0.82632141  0.91065897  0.08911652  1
  H+  H308  1  0.83148764  0.65736693  0.43543844  1
  H+  H309  1  0.48342444  0.62244234  0.51224726  1
  H+  H310  1  0.39727965  0.59080948  0.26768218  1
  H+  H311  1  0.84873751  0.72977737  0.13738648  1
  H+  H312  1  0.33752743  0.43075490  0.44284534  1
  H+  H313  1  0.80541840  0.09335466  0.39420657  1
  H+  H314  1  0.16442751  0.83449274  0.57272560  1
  H+  H315  1  0.66606068  0.08324717  0.61375640  1
  H+  H316  1  0.17531953  0.57670225  0.58065958  1
  H+  H317  1  0.17541007  0.32768309  0.28962114  1
  H+  H318  1  0.41054574  0.08644278  0.90936516  1
  H+  H319  1  0.10114776  0.13349443  0.67320010  1
  H+  H320  1  0.18434113  0.10899114  0.93963267  1
  H+  H321  1  0.40745281  0.33639093  0.60666557  1
  H+  H322  1  0.11232327  0.39130641  0.00878948  1
  H+  H323  1  0.14535524  0.58692075  0.90705158  1
  H+  H324  1  0.09331427  0.92209825  0.72629746  1
  H+  H325  1  0.57720447  0.16432771  0.73583052  1
  H+  H326  1  0.66692361  0.33404483  0.89915301  1
  H+  H327  1  0.61029646  0.14350394  0.15665143  1
  H+  H328  1  0.34260937  0.88529489  0.67491718  1
  H+  H329  1  0.58198609  0.41318183  0.39127588  1
  H+  H330  1  0.57699511  0.16959156  0.06610514  1
  H+  H331  1  0.66174859  0.58794425  0.22489933  1
  H+  H332  1  0.46273560  0.35602052  0.50964570  1
  H+  H333  1  0.91391175  0.82591236  0.21720947  1
  H+  H334  1  0.57739280  0.66410997  0.43523967  1
  H+  H335  1  0.67321136  0.84634770  0.27735295  1
  H+  H336  1  0.12553672  0.70515094  0.74676050  1
  H+  H337  1  0.09204039  0.66633402  0.10781815  1
  H+  H338  1  0.14673686  0.79571061  0.66408297  1
  H+  H339  1  0.58166863  0.91006297  0.73697704  1
  H+  H340  1  0.17027691  0.58776398  0.27634462  1
  H+  H341  1  0.08074884  0.15550199  0.43374949  1
  H+  H342  1  0.85926939  0.97403281  0.69122699  1
  H+  H343  1  0.09067810  0.66353461  0.43809574  1
  H+  H344  1  0.65497921  0.32663283  0.22333568  1
  H+  H345  1  0.34430645  0.16158467  0.72798291  1
  H+  H346  1  0.61555241  0.21834275  0.49725755  1
  H+  H347  1  0.11967603  0.97278748  0.49790594  1
  H+  H348  1  0.90606706  0.32477401  0.57403466  1
  H+  H349  1  0.91034469  0.57029123  0.60519728  1
  H+  H350  1  0.22643861  0.59807475  0.18354260  1
  H+  H351  1  0.85911688  0.46774545  0.50185090  1
  H+  H352  1  0.63770559  0.06909064  0.94091194  1
  H+  H353  1  0.85476762  0.21916023  -0.00743845  1
  H+  H354  1  0.58375246  0.16154660  0.40104336  1
  H+  H355  1  0.35011573  0.92822219  0.76649616  1
  H+  H356  1  0.56070400  0.70540193  0.11958563  1
  H+  H357  1  0.31440107  0.92665522  0.39209314  1
  H+  H358  1  0.82426838  0.15277977  0.08252313  1
  H+  H359  1  0.06963040  0.42608211  0.05874667  1
  H+  H360  1  0.07135048  0.41502889  0.43418956  1
  H+  H361  1  0.57406732  0.40585854  0.06449324  1
  H+  H362  1  0.25865123  0.98028055  0.45370265  1
  H+  H363  1  0.83759679  0.41822852  0.40712823  1
  H+  H364  1  0.91853478  0.82968601  0.90331152  1
  H+  H365  1  0.35745344  0.43420312  0.05753302  1
  H+  H366  1  0.09778447  0.99602945  0.65667170  1
  H+  H367  1  0.18540265  0.32954248  0.90952521  1
  H+  H368  1  0.58215361  0.63890946  0.05093109  1
  H+  H369  1  0.33946008  0.17380067  0.06912342  1
  H+  H370  1  0.15294368  0.07026549  0.56693565  1
  H+  H371  1  0.17367372  0.83617962  0.94219389  1
  H+  H372  1  0.66902143  0.10053726  0.22501774  1
  H+  H373  1  0.67045576  0.59907602  0.87938530  1
  H+  H374  1  0.43228885  0.85981105  0.59173999  1
  H+  H375  1  0.41161667  0.83131441  0.27764345  1
  H+  H376  1  0.91485821  0.81499261  0.72796746  1
  H+  H377  1  0.33483945  0.66864833  0.44357624  1
  H+  H378  1  0.08842621  0.16464398  0.06563873  1
  H+  H379  1  0.15300272  0.15184721  0.84853004  1
  H+  H380  1  0.51911502  0.30161981  0.45099529  1
  H+  H381  1  0.38324234  0.75734743  0.18635976  1
  H+  H382  1  0.17311851  0.36100166  0.60854687  1
  H+  H383  1  0.80394635  0.11374353  0.42400011  1
  O2-  O384  1  0.08580568  0.15236420  0.14378364  1
  O2-  O385  1  0.08319889  0.16084040  0.47848144  1
  O2-  O386  1  0.07933867  0.17440980  0.81574519  1
  O2-  O387  1  0.04125515  0.44419460  0.12729946  1
  O2-  O388  1  0.05942802  0.40802844  0.47914816  1
  O2-  O389  1  0.06982765  0.41698346  0.81620206  1
  O2-  O390  1  0.09538498  0.66686472  0.15328975  1
  O2-  O391  1  0.09012775  0.66040234  0.48383483  1
  O2-  O392  1  0.10044710  0.70263168  0.81614216  1
  O2-  O393  1  0.08996294  0.91986698  0.14383704  1
  O2-  O394  1  0.08981452  0.91390621  0.47864734  1
  O2-  O395  1  0.05996978  0.85501661  0.80935524  1
  O2-  O396  1  0.33819506  0.17343436  0.14883644  1
  O2-  O397  1  0.33375152  0.16827048  0.48533881  1
  O2-  O398  1  0.34642463  0.18666476  0.81297945  1
  O2-  O399  1  0.33844047  0.44228910  0.14121960  1
  O2-  O400  1  0.33544957  0.42927544  0.48844179  1
  O2-  O401  1  0.34443828  0.43263402  0.81137999  1
  O2-  O402  1  0.34250578  0.63892622  0.16221501  1
  O2-  O403  1  0.33946234  0.66737845  0.48900790  1
  O2-  O404  1  0.33973342  0.68018976  0.81404772  1
  O2-  O405  1  0.34173979  0.91383363  0.15473998  1
  O2-  O406  1  0.29080907  0.95161974  0.46435608  1
  O2-  O407  1  0.38431101  0.94287243  0.80582243  1
  O2-  O408  1  0.57404650  0.16914411  0.14140004  1
  O2-  O409  1  0.58540283  0.15947203  0.47973003  1
  O2-  O410  1  0.57104093  0.16798472  0.81406024  1
  O2-  O411  1  0.57512351  0.41516497  0.14561349  1
  O2-  O412  1  0.55396529  0.35833693  0.46908411  1
  O2-  O413  1  0.59013511  0.42326686  0.81344113  1
  O2-  O414  1  0.55376982  0.66791769  0.15365648  1
  O2-  O415  1  0.57693347  0.66515930  0.48073989  1
  O2-  O416  1  0.57283448  0.66988009  0.80782992  1
  O2-  O417  1  0.58029428  0.88687956  0.14921021  1
  O2-  O418  1  0.57079438  0.90013752  0.45185985  1
  O2-  O419  1  0.57863973  0.90772126  0.81578557  1
  O2-  O420  1  0.82686434  0.15471456  0.12796317  1
  O2-  O421  1  0.81551765  0.13841782  0.50486573  1
  O2-  O422  1  0.83922473  0.16716887  0.81193375  1
  O2-  O423  1  0.83132507  0.40736673  0.14646212  1
  O2-  O424  1  0.82414699  0.40752143  0.48662922  1
  O2-  O425  1  0.83248364  0.41123061  0.81098563  1
  O2-  O426  1  0.80871520  0.67814907  0.11398299  1
  O2-  O427  1  0.83517084  0.65820715  0.48086006  1
  O2-  O428  1  0.82120263  0.67986051  0.79016626  1
  O2-  O429  1  0.83404201  0.91228742  0.13410892  1
  O2-  O430  1  0.84887752  0.91477978  0.46846055  1
  O2-  O431  1  0.83225120  0.91786098  0.82527459  1
  O2-  O432  1  0.17221710  0.08042035  0.18921370  1
  O2-  O433  1  0.16566104  0.07208628  0.52227817  1
  O2-  O434  1  0.20571992  0.16586216  0.87281784  1
  O2-  O435  1  0.18597910  0.30274422  0.21166626  1
  O2-  O436  1  0.19264369  0.41560116  0.54089460  1
  O2-  O437  1  0.20276346  0.31827801  0.86913311  1
  O2-  O438  1  0.16826100  0.58070545  0.19860340  1
  O2-  O439  1  0.18127018  0.56310153  0.53695027  1
  O2-  O440  1  0.11916556  0.57471175  0.86578572  1
  O2-  O441  1  0.17018404  0.83604428  0.18786392  1
  O2-  O442  1  0.16400062  0.82887244  0.52658902  1
  O2-  O443  1  0.16879814  0.83923038  0.87480060  1
  O2-  O444  1  0.41799495  0.08818018  0.18978525  1
  O2-  O445  1  0.42095411  0.09017805  0.52248766  1
  O2-  O446  1  0.41009040  0.09193334  0.86368014  1
  O2-  O447  1  0.40424198  0.33562625  0.19254210  1
  O2-  O448  1  0.40483235  0.33329977  0.52749350  1
  O2-  O449  1  0.42678546  0.34990311  0.85243993  1
  O2-  O450  1  0.38962422  0.59465044  0.18556895  1
  O2-  O451  1  0.42395379  0.59257167  0.53149414  1
  O2-  O452  1  0.41232273  0.59639802  0.84646933  1
  O2-  O453  1  0.41246400  0.81809170  0.19918723  1
  O2-  O454  1  0.42387424  0.83833769  0.52307902  1
  O2-  O455  1  0.40979231  0.82406002  0.86415919  1
  O2-  O456  1  0.66333771  0.10184016  0.18008331  1
  O2-  O457  1  0.65510797  0.06758729  0.54456220  1
  O2-  O458  1  0.62465751  0.06539394  0.87025281  1
  O2-  O459  1  0.66388762  0.33350465  0.17760745  1
  O2-  O460  1  0.66175833  0.32531436  0.52548939  1
  O2-  O461  1  0.66723151  0.33413834  0.85353768  1
  O2-  O462  1  0.65337740  0.58447539  0.17979260  1
  O2-  O463  1  0.66208452  0.58320675  0.52420826  1
  O2-  O464  1  0.65884051  0.59355171  0.83360114  1
  O2-  O465  1  0.68299387  0.83966167  0.19443146  1
  O2-  O466  1  0.68867321  0.84146126  0.51668058  1
  O2-  O467  1  0.66405250  0.82993533  0.85643831  1
  O2-  O468  1  0.91595287  0.07709798  0.17327851  1
  O2-  O469  1  0.91892456  0.07403793  0.52490437  1
  O2-  O470  1  0.92077710  0.08412746  0.86753905  1
  O2-  O471  1  0.89967850  0.30373149  0.18473934  1
  O2-  O472  1  0.89712178  0.31845173  0.52882937  1
  O2-  O473  1  0.91164273  0.32863848  0.85544061  1
  O2-  O474  1  0.92519282  0.57185187  0.20066019  1
  O2-  O475  1  0.91724376  0.57461690  0.52307067  1
  O2-  O476  1  0.95671131  0.55475765  0.86541522  1
  O2-  O477  1  0.92075916  0.83324306  0.17230886  1
  O2-  O478  1  0.91858639  0.83015249  0.52034528  1
  O2-  O479  1  0.91448236  0.83110864  0.85851824  1
  O2-  O480  1  0.17893625  0.08937382  0.31279605  1
  O2-  O481  1  0.10033706  0.05035631  0.63368351  1
  O2-  O482  1  0.17493249  0.08943262  0.98298629  1
  O2-  O483  1  0.17434181  0.33597707  0.33389496  1
  O2-  O484  1  0.16749562  0.34218298  0.65193634  1
  O2-  O485  1  0.17067552  0.33962793  0.98735828  1
  O2-  O486  1  0.16854907  0.58947944  0.32188946  1
  O2-  O487  1  0.17340042  0.58784333  0.65423031  1
  O2-  O488  1  0.17364055  0.58870013  0.98268132  1
  O2-  O489  1  0.15540277  0.83340896  0.31264427  1
  O2-  O490  1  0.16863235  0.85231356  0.64399128  1
  O2-  O491  1  0.17628207  0.83705212  0.98979929  1
  O2-  O492  1  0.41499771  0.08325292  0.31333606  1
  O2-  O493  1  0.44863652  0.04156635  0.63096338  1
  O2-  O494  1  0.41369868  0.07986646  0.98449896  1
  O2-  O495  1  0.40998246  0.33472696  0.31803052  1
  O2-  O496  1  0.40608988  0.33769857  0.65189186  1
  O2-  O497  1  0.41865534  0.33696535  0.97562647  1
  O2-  O498  1  0.40681013  0.59228796  0.31254688  1
  O2-  O499  1  0.42439531  0.58342129  0.64679842  1
  O2-  O500  1  0.42165420  0.58755446  0.97169837  1
  O2-  O501  1  0.41200469  0.83742041  0.32277141  1
  O2-  O502  1  0.43597417  0.87895086  0.63644880  1
  O2-  O503  1  0.40743386  0.82362843  0.98384197  1
  O2-  O504  1  0.67918705  0.10076794  0.30419854  1
  O2-  O505  1  0.67239556  0.08907565  0.66038489  1
  O2-  O506  1  0.64651657  0.07211336  0.98674393  1
  O2-  O507  1  0.63489659  0.31466722  0.29396927  1
  O2-  O508  1  0.65743251  0.32788261  0.64842293  1
  O2-  O509  1  0.66713298  0.33213483  0.97666994  1
  O2-  O510  1  0.66567094  0.58730087  0.30493531  1
  O2-  O511  1  0.64903207  0.57190586  0.64435508  1
  O2-  O512  1  0.68415143  0.60617147  0.94895687  1
  O2-  O513  1  0.66331548  0.84551429  0.32159032  1
  O2-  O514  1  0.66742866  0.82768436  0.64932185  1
  O2-  O515  1  0.65655112  0.83493774  0.97948788  1
  O2-  O516  1  0.93146792  0.09175150  0.29820702  1
  O2-  O517  1  0.90679015  0.07126723  0.67828967  1
  O2-  O518  1  0.91759548  0.07861532  1.00102376  1
  O2-  O519  1  0.93755942  0.36535128  0.31903447  1
  O2-  O520  1  0.91904182  0.33628057  0.65099823  1
  O2-  O521  1  0.90977114  0.32550933  0.97478805  1
  O2-  O522  1  0.91989542  0.58405280  0.31880943  1
  O2-  O523  1  0.90162626  0.56563509  0.64974724  1
  O2-  O524  1  0.92864061  0.57612972  0.98295145  1
  O2-  O525  1  0.91121613  0.81521861  0.29751176  1
  O2-  O526  1  0.92049596  0.82702195  0.68448230  1
  O2-  O527  1  0.93804540  0.83662075  0.98440732  1
  O2-  O528  1  0.08952523  0.16918556  0.02031553  1
  O2-  O529  1  0.08932330  0.16206554  0.35074445  1
  O2-  O530  1  0.08416655  0.17228151  0.69393974  1
  O2-  O531  1  0.07926182  0.42162502  0.01423099  1
  O2-  O532  1  0.09518110  0.42488702  0.36031662  1
  O2-  O533  1  0.08318324  0.42514813  0.69093655  1
  O2-  O534  1  0.08915799  0.66821756  0.02951785  1
  O2-  O535  1  0.08564890  0.66985338  0.36171277  1
  O2-  O536  1  0.15025734  0.71106453  0.70428313  1
  O2-  O537  1  0.09804004  0.92224213  0.02009868  1
  O2-  O538  1  0.06777297  0.93286034  0.36183269  1
  O2-  O539  1  0.08492533  0.91759529  0.68219106  1
  O2-  O540  1  0.33949123  0.17231046  0.02373958  1
  O2-  O541  1  0.33899908  0.17075987  0.36064392  1
  O2-  O542  1  0.34868477  0.15709327  0.68366285  1
  O2-  O543  1  0.34681981  0.42520971  0.01338420  1
  O2-  O544  1  0.34112131  0.42954592  0.36500089  1
  O2-  O545  1  0.34094772  0.43180756  0.68887148  1
  O2-  O546  1  0.34207588  0.66074400  0.03487209  1
  O2-  O547  1  0.32947546  0.67535488  0.36620169  1
  O2-  O548  1  0.31697677  0.71621011  0.70463124  1
  O2-  O549  1  0.33823254  0.91481088  0.03021611  1
  O2-  O550  1  0.31904399  0.92004513  0.34758981  1
  O2-  O551  1  0.31604034  0.91375724  0.69701645  1
  O2-  O552  1  0.57742351  0.16847040  0.02019761  1
  O2-  O553  1  0.58270410  0.16353365  0.35556004  1
  O2-  O554  1  0.58378818  0.16406641  0.69073460  1
  O2-  O555  1  0.57160338  0.40379275  0.01951710  1
  O2-  O556  1  0.57954268  0.42135318  0.34712670  1
  O2-  O557  1  0.57180123  0.40615448  0.69098154  1
  O2-  O558  1  0.58344577  0.66378814  0.01129880  1
  O2-  O559  1  0.57934593  0.66599814  0.35582592  1
  O2-  O560  1  0.57674635  0.66691266  0.68660417  1
  O2-  O561  1  0.56756186  0.90810563  0.02542859  1
  O2-  O562  1  0.58902274  0.93627958  0.35129472  1
  O2-  O563  1  0.58911230  0.91565785  0.69193530  1
  O2-  O564  1  0.82085797  0.15729492  0.00543049  1
  O2-  O565  1  0.85499760  0.19353925  0.29103851  1
  O2-  O566  1  0.84069337  0.17612384  0.69371165  1
  O2-  O567  1  0.83252127  0.41089135  0.02175829  1
  O2-  O568  1  0.84540025  0.42188114  0.36229623  1
  O2-  O569  1  0.82208300  0.40611190  0.68731602  1
  O2-  O570  1  0.84173520  0.66044126  0.00024907  1
  O2-  O571  1  0.82810153  0.65604003  0.35583687  1
  O2-  O572  1  0.81570663  0.65441726  0.67122812  1
  O2-  O573  1  0.82397401  0.92280716  0.00962654  1
  O2-  O574  1  0.91859551  0.94555587  0.35846790  1
  O2-  O575  1  0.82673661  0.91025557  0.70302948  1
