# generated using pymatgen
data_H2O
_symmetry_space_group_name_H-M   'P 1'
_cell_length_a   17.99922308
_cell_length_b   17.99708960
_cell_length_c   22.01407658
_cell_angle_alpha   90.00207177
_cell_angle_beta   89.98154103
_cell_angle_gamma   120.01172390
_symmetry_Int_Tables_number   1
_chemical_formula_structural   H2O
_chemical_formula_sum   'H384 O192'
_cell_volume   6174.98343999
_cell_formula_units_Z   192
loop_
 _symmetry_equiv_pos_site_id
 _symmetry_equiv_pos_as_xyz
  1  'x, y, z'
loop_
 _atom_type_symbol
 _atom_type_oxidation_number
  H+  1.0
  O2-  -2.0
loop_
 _atom_site_type_symbol
 _atom_site_label
 _atom_site_symmetry_multiplicity
 _atom_site_fract_x
 _atom_site_fract_y
 _atom_site_fract_z
 _atom_site_occupancy
  H+  H0  1  0.12748739  0.88396091  0.99830830  1
  H+  H1  1  0.39048874  0.03084853  0.33896796  1
  H+  H2  1  0.14306604  0.11296360  0.17735142  1
  H+  H3  1  0.84638661  0.26064431  0.66516051  1
  H+  H4  1  -0.05306947  0.09506450  -0.00223950  1
  H+  H5  1  0.26532193  0.63749619  0.48488449  1
  H+  H6  1  0.85944822  0.89369343  0.83021236  1
  H+  H7  1  0.97508376  0.73914153  0.28131358  1
  H+  H8  1  0.77947694  0.13735620  0.46600844  1
  H+  H9  1  0.51904403  0.90208137  0.83461825  1
  H+  H10  1  0.21839428  0.85089544  0.17145981  1
  H+  H11  1  0.08228282  0.15337357  0.10463311  1
  H+  H12  1  0.48374656  0.35782576  0.50118779  1
  H+  H13  1  0.64384997  0.61329240  0.83539886  1
  H+  H14  1  0.66347719  0.08808491  0.93216044  1
  H+  H15  1  0.38607906  0.02866037  0.83750659  1
  H+  H16  1  0.40123531  0.81326683  0.83070065  1
  H+  H17  1  0.22818128  0.86259639  -0.01305693  1
  H+  H18  1  0.97151590  0.60609430  0.50496173  1
  H+  H19  1  0.14196630  0.01157539  0.51150468  1
  H+  H20  1  0.47376074  0.36260476  0.33096285  1
  H+  H21  1  0.36775362  0.60727816  0.65941546  1
  H+  H22  1  0.32609366  0.16969433  0.73522943  1
  H+  H23  1  0.21111062  0.61331827  -0.01991791  1
  H+  H24  1  0.39331368  0.65543004  0.34062811  1
  H+  H25  1  0.08074984  0.67012426  0.09461219  1
  H+  H26  1  0.13752206  0.09361176  0.33092743  1
  H+  H27  1  0.51627816  0.88878110  -0.00171677  1
  H+  H28  1  0.77263802  0.89669501  0.15641239  1
  H+  H29  1  0.26274445  0.38504567  0.66032818  1
  H+  H30  1  0.23702738  0.85246323  0.31827385  1
  H+  H31  1  0.72240316  0.86335170  0.83569407  1
  H+  H32  1  0.46115332  0.61474747  0.51541358  1
  H+  H33  1  0.32677687  0.90174222  0.38606481  1
  H+  H34  1  0.77699834  0.89352828  0.67746039  1
  H+  H35  1  0.67914912  0.55426319  0.99532390  1
  H+  H36  1  0.39019806  0.57381219  0.59353713  1
  H+  H37  1  0.86495582  0.47693291  0.83174153  1
  H+  H38  1  0.50711272  0.61183996  0.81256331  1
  H+  H39  1  0.54064974  0.84872211  0.12494475  1
  H+  H40  1  0.10913538  0.38622709  0.81903010  1
  H+  H41  1  0.32450747  0.93806638  0.47050433  1
  H+  H42  1  0.80733257  0.10361216  0.14587103  1
  H+  H43  1  0.23257451  0.60983667  0.64869212  1
  H+  H44  1  0.21783130  0.11020698  0.66093197  1
  H+  H45  1  0.37773327  0.89360333  0.32956255  1
  H+  H46  1  0.27868257  0.89536304  0.83319655  1
  H+  H47  1  0.11333566  0.72126940  0.82729489  1
  H+  H48  1  0.51098928  0.13540346  0.15154714  1
  H+  H49  1  0.63637164  0.11599874  0.84194667  1
  H+  H50  1  0.35436476  0.13916176  0.14003476  1
  H+  H51  1  0.60890120  0.62552120  0.31207827  1
  H+  H52  1  0.14778445  0.36072219  0.33961134  1
  H+  H53  1  0.62399080  0.39310836  0.49470715  1
  H+  H54  1  0.13402620  0.86108042  0.83371286  1
  H+  H55  1  0.87403052  0.39177433  0.15253119  1
  H+  H56  1  0.65518439  0.12047721  0.50852137  1
  H+  H57  1  0.24326194  0.59429138  0.33214767  1
  H+  H58  1  0.35257167  0.04768517  0.21762934  1
  H+  H59  1  0.12846851  0.85970146  0.51362194  1
  H+  H60  1  0.35907598  0.50230293  0.65562137  1
  H+  H61  1  0.61968945  0.25505403  0.17530876  1
  H+  H62  1  0.09668416  0.46372789  0.15918088  1
  H+  H63  1  0.86392496  0.63931460  0.14914408  1
  H+  H64  1  0.35831961  0.37309442  0.81226566  1
  H+  H65  1  0.38042213  0.51145761  0.15644621  1
  H+  H66  1  0.09876229  0.63064574  0.15557865  1
  H+  H67  1  0.89408991  0.61685608  0.65917040  1
  H+  H68  1  0.58408829  0.41842326  0.40126870  1
  H+  H69  1  0.11416580  0.71904411  0.65935963  1
  H+  H70  1  0.87819576  0.77152607  0.17735890  1
  H+  H71  1  0.70942651  0.07636313  0.59333746  1
  H+  H72  1  0.09395743  0.41817428  0.41086979  1
  H+  H73  1  0.61672759  0.22466798  0.67930590  1
  H+  H74  1  -0.00731875  0.88774736  0.35641690  1
  H+  H75  1  0.85105462  0.09081491  0.65127964  1
  H+  H76  1  -0.02852712  0.35320100  0.82957949  1
  H+  H77  1  0.64262433  0.36892965  0.83749089  1
  H+  H78  1  0.36272870  0.47732826  0.32241654  1
  H+  H79  1  -0.02394633  0.35026443  0.16824099  1
  H+  H80  1  0.10320217  0.47697162  0.00023996  1
  H+  H81  1  0.63529367  0.34637028  0.66291234  1
  H+  H82  1  0.34664975  0.22545592  0.99249740  1
  H+  H83  1  0.88133651  0.74129560  0.67402885  1
  H+  H84  1  0.36676500  0.38510155  0.33129792  1
  H+  H85  1  0.91083254  0.59106229  0.90555676  1
  H+  H86  1  0.87071564  0.47806639  0.15868637  1
  H+  H87  1  1.07457291  0.92056404  0.73396316  1
  H+  H88  1  0.88022766  0.60127760  0.50567738  1
  H+  H89  1  0.61611256  0.35438008  0.17214393  1
  H+  H90  1  0.63391092  0.48218123  0.66603420  1
  H+  H91  1  0.66323978  0.60556696  0.46661873  1
  H+  H92  1  0.78241840  0.64538721  0.82703192  1
  H+  H93  1  0.47090595  0.11532601  0.67440009  1
  H+  H94  1  0.86476909  0.48075716  0.67388704  1
  H+  H95  1  0.14032783  0.75814214  0.32729123  1
  H+  H96  1  0.57583101  0.43377525  0.01389817  1
  H+  H97  1  0.09889849  0.50075964  0.33202235  1
  H+  H98  1  0.77846176  0.64423430  0.14019213  1
  H+  H99  1  0.42056682  0.84036730  0.92345580  1
  H+  H100  1  0.63483772  0.02448913  0.84101214  1
  H+  H101  1  0.72127603  0.34908983  0.33478785  1
  H+  H102  1  1.01915148  0.88979774  0.82843194  1
  H+  H103  1  0.65702763  0.58580963  0.64250210  1
  H+  H104  1  0.87670965  0.84613378  0.28584415  1
  H+  H105  1  0.86702556  0.11062970  0.99977964  1
  H+  H106  1  0.12981268  0.60724133  0.83258877  1
  H+  H107  1  0.61457940  0.89365073  0.49309870  1
  H+  H108  1  0.72998482  0.42454115  0.29506668  1
  H+  H109  1  0.84692929  0.95936456  0.48615109  1
  H+  H110  1  0.23069711  0.11390717  0.83195739  1
  H+  H111  1  0.13605343  0.77367238  0.99032793  1
  H+  H112  1  0.76815179  0.62992103  0.50127162  1
  H+  H113  1  0.49102285  0.88687622  0.32759909  1
  H+  H114  1  0.53118442  0.26484063  0.71541290  1
  H+  H115  1  0.14332050  0.60894105  0.64160094  1
  H+  H116  1  0.50796317  0.89908913  0.16549323  1
  H+  H117  1  0.37597893  0.72683014  0.67141640  1
  H+  H118  1  0.32126055  0.17165886  0.05511134  1
  H+  H119  1  0.44464510  0.34616184  0.98920239  1
  H+  H120  1  0.44129938  0.74330965  0.13047714  1
  H+  H121  1  0.86529546  0.98095988  0.67612086  1
  H+  H122  1  0.59128445  0.46852391  0.65063179  1
  H+  H123  1  0.86347859  0.02051742  0.84673487  1
  H+  H124  1  1.04212361  0.37787708  0.34694017  1
  H+  H125  1  0.87022043  0.49369007  0.30477635  1
  H+  H126  1  0.64116956  0.62750424  0.16289361  1
  H+  H127  1  0.41634871  0.32865608  0.23344808  1
  H+  H128  1  0.38934810  0.86491453  0.51739506  1
  H+  H129  1  1.01992096  0.88713935  0.50298727  1
  H+  H130  1  0.83324676  0.89355568  0.39520162  1
  H+  H131  1  0.88649687  0.86926659  0.66304142  1
  H+  H132  1  0.13178914  0.27414550  0.64515700  1
  H+  H133  1  0.52433118  0.89134521  0.49108143  1
  H+  H134  1  0.37639750  0.58887665  0.82653358  1
  H+  H135  1  0.64189889  0.39993968  0.01265742  1
  H+  H136  1  0.97174477  0.35243663  0.98898797  1
  H+  H137  1  0.39917700  0.11676314  0.52182792  1
  H+  H138  1  0.42581121  0.75640142  0.10261912  1
  H+  H139  1  0.36985898  -0.01402269  0.52873145  1
  H+  H140  1  0.37047431  0.61238677  0.50507752  1
  H+  H141  1  0.86825566  0.37962515  0.51757735  1
  H+  H142  1  0.35510459  0.72558167  -0.00815803  1
  H+  H143  1  0.36743561  0.22469432  0.82584887  1
  H+  H144  1  0.85841647  0.22645217  0.82985458  1
  H+  H145  1  0.20101418  0.35806206  0.50011386  1
  H+  H146  1  0.46125355  0.60824021  0.15713700  1
  H+  H147  1  0.22550327  0.10445641  0.98632879  1
  H+  H148  1  0.38138749  0.27526230  0.33297193  1
  H+  H149  1  0.12163682  0.21068208  0.34507378  1
  H+  H150  1  0.16570561  0.57963435  0.55269513  1
  H+  H151  1  0.11446851  0.36408527  0.49778150  1
  H+  H152  1  0.38197397  0.11556548  0.99007509  1
  H+  H153  1  0.99691732  0.38014407  0.64308462  1
  H+  H154  1  0.36038088  0.97747573  -0.00071594  1
  H+  H155  1  0.70259404  0.11475269  0.16564633  1
  H+  H156  1  0.85455756  0.10711053  0.36949762  1
  H+  H157  1  0.10435811  0.88739829  0.67600855  1
  H+  H158  1  0.86730811  0.09406249  0.49657254  1
  H+  H159  1  0.90429983  0.28925143  0.32570570  1
  H+  H160  1  0.21005522  0.86464855  0.67242388  1
  H+  H161  1  0.61621821  0.23015225  0.83452628  1
  H+  H162  1  0.01286025  0.14332932  0.65351895  1
  H+  H163  1  0.12916158  0.01697823  0.66150217  1
  H+  H164  1  0.62970775  1.02753577  -0.00939497  1
  H+  H165  1  0.01613112  0.49012489  0.30387281  1
  H+  H166  1  0.36167532  0.14605910  0.35579779  1
  H+  H167  1  0.11445538  0.38417174  0.66093526  1
  H+  H168  1  0.38066370  0.61407912  0.97108855  1
  H+  H169  1  0.22204314  0.35798347  0.18255329  1
  H+  H170  1  0.85247147  0.12687320  0.84097430  1
  H+  H171  1  0.71549407  0.60770090  0.32079166  1
  H+  H172  1  0.36875688  0.22292558  0.50466557  1
  H+  H173  1  0.10684220  0.72413141  0.49811373  1
  H+  H174  1  0.67180303  0.33409753  0.56932936  1
  H+  H175  1  0.99512496  0.37598253  0.54752736  1
  H+  H176  1  0.59683510  0.12907750  0.15322997  1
  H+  H177  1  0.52849594  0.38560702  0.83269433  1
  H+  H178  1  0.03451847  0.88526762  0.01208422  1
  H+  H179  1  0.12013387  0.47671640  0.66067998  1
  H+  H180  1  0.83930845  0.92439573  0.10115424  1
  H+  H181  1  0.52293036  0.37368242  0.16146359  1
  H+  H182  1  0.63341559  0.77230589  0.31325617  1
  H+  H183  1  0.63436127  0.02770091  0.33834660  1
  H+  H184  1  0.47266314  0.11767315  0.98997841  1
  H+  H185  1  0.78109214  0.41532306  1.00486448  1
  H+  H186  1  0.11252656  -0.02624258  0.82403487  1
  H+  H187  1  0.63418945  0.77543750  0.83102904  1
  H+  H188  1  0.65545928  0.75743591  1.01148027  1
  H+  H189  1  0.91046082  0.11949885  0.18920466  1
  H+  H190  1  0.63582056  0.78536171  0.52460852  1
  H+  H191  1  0.52508849  0.14129340  0.83288112  1
  H+  H192  1  0.89471872  1.00967623  0.33607575  1
  H+  H193  1  0.38605835  0.77529947  0.50647662  1
  H+  H194  1  0.38573139  0.86026391  -0.01431018  1
  H+  H195  1  0.24501449  0.63240347  0.31665243  1
  H+  H196  1  0.47012095  0.60039151  0.30255729  1
  H+  H197  1  0.63926381  0.79468551  0.65980453  1
  H+  H198  1  -0.02649418  0.61943273  0.16543384  1
  H+  H199  1  0.38258193  0.11552507  0.66724076  1
  H+  H200  1  0.61146129  0.38894408  0.34062528  1
  H+  H201  1  0.36721401  0.46553239  0.81658203  1
  H+  H202  1  0.84200760  0.44205666  1.06400276  1
  H+  H203  1  0.88259111  0.26579804  0.17280366  1
  H+  H204  1  0.21721724  0.86149220  0.52596265  1
  H+  H205  1  0.64726669  1.02940532  0.49758946  1
  H+  H206  1  0.19131638  0.58649129  0.17863533  1
  H+  H207  1  0.89394768  0.02435562  0.17915417  1
  H+  H208  1  1.07498521  0.21150930  0.49338636  1
  H+  H209  1  0.62867437  0.12430845  0.35537593  1
  H+  H210  1  0.72552574  0.86472453  0.50462419  1
  H+  H211  1  0.31832954  0.39429873  0.55822230  1
  H+  H212  1  0.61873186  0.48108800  0.49408660  1
  H+  H213  1  0.62871327  0.51628244  0.31970394  1
  H+  H214  1  0.86014254  0.51157756  0.33251728  1
  H+  H215  1  0.59888779  0.73236529  0.16051371  1
  H+  H216  1  0.35925872  0.37033715  0.15999991  1
  H+  H217  1  0.73325552  0.36526053  0.66348475  1
  H+  H218  1  0.01835623  0.06171104  0.89820009  1
  H+  H219  1  0.64119702  0.88089069  0.17336373  1
  H+  H220  1  0.35825949  0.38519271  0.98648000  1
  H+  H221  1  0.22251775  0.37013406  0.98449946  1
  H+  H222  1  0.13472909  0.27025672  0.17869318  1
  H+  H223  1  0.33801421  0.96424169  0.14359549  1
  H+  H224  1  0.31407146  0.67653891  0.14402473  1
  H+  H225  1  0.12551804  0.52065309  0.49304600  1
  H+  H226  1  0.10134924  0.63747311  -0.00149119  1
  H+  H227  1  0.62482995  0.90134207  0.68275632  1
  H+  H228  1  0.67878857  1.02195951  0.65486332  1
  H+  H229  1  0.01513232  0.88644043  0.18064889  1
  H+  H230  1  0.87688425  0.85844003  0.17831676  1
  H+  H231  1  0.11098387  0.38252916  0.15990869  1
  H+  H232  1  0.52943053  0.13357104  0.36341337  1
  H+  H233  1  0.39376945  0.35458224  0.50845958  1
  H+  H234  1  0.36156865  0.89110027  0.15816348  1
  H+  H235  1  0.61407236  0.67424973  0.65286927  1
  H+  H236  1  0.73234398  0.35910049  0.51144373  1
  H+  H237  1  0.60853562  0.14075062  -0.00058481  1
  H+  H238  1  0.13809623  0.10523890  0.85044866  1
  H+  H239  1  0.07212001  0.91155176  0.44104070  1
  H+  H240  1  0.26511071  0.13399620  0.15651829  1
  H+  H241  1  0.88345831  0.76860564  0.51197600  1
  H+  H242  1  0.37416483  0.90432679  0.83612141  1
  H+  H243  1  0.40326318  0.74806651  0.34394922  1
  H+  H244  1  0.85863926  0.87627447  0.49086100  1
  H+  H245  1  0.62313266  0.23075466  0.50632962  1
  H+  H246  1  0.64140748  0.28075144  -0.00926925  1
  H+  H247  1  0.36187902  0.13429430  0.82005230  1
  H+  H248  1  0.01922083  0.65143106  0.00700450  1
  H+  H249  1  0.09766788  0.13636502  0.64957566  1
  H+  H250  1  0.84213588  0.35586309  0.35184863  1
  H+  H251  1  0.12334100  0.51341607  0.83001150  1
  H+  H252  1  0.02428832  0.63430212  0.83324850  1
  H+  H253  1  0.88773421  0.61791707  0.84331831  1
  H+  H254  1  0.59206823  0.68302699  0.10006939  1
  H+  H255  1  0.38567588  0.52866371  0.97438014  1
  H+  H256  1  0.09286521  0.10399733  0.00529882  1
  H+  H257  1  0.12783219  0.98042741  -0.00522361  1
  H+  H258  1  0.13675502  0.02034770  0.17896327  1
  H+  H259  1  0.49032715  0.86117634  0.66471673  1
  H+  H260  1  0.79254494  0.65936008  0.66924453  1
  H+  H261  1  0.77029265  0.16838995  0.67356829  1
  H+  H262  1  0.76075814  0.13426985  0.83430387  1
  H+  H263  1  0.60386053  0.63574809  0.51667092  1
  H+  H264  1  0.22187063  0.36746292  0.83161525  1
  H+  H265  1  0.32465905  0.59623233  0.14761051  1
  H+  H266  1  0.61990818  0.89623288  0.33861631  1
  H+  H267  1  0.24078414  0.10484996  0.51595478  1
  H+  H268  1  0.03102145  0.12392700  0.34560356  1
  H+  H269  1  0.25260292  0.60965627  0.82201629  1
  H+  H270  1  0.61955980  0.02360562  0.16172340  1
  H+  H271  1  1.02195626  0.13764686  0.86525470  1
  H+  H272  1  0.99112444  0.67647294  0.32184999  1
  H+  H273  1  0.29466326  0.35948101  0.10669761  1
  H+  H274  1  0.07948378  0.62328718  0.34308690  1
  H+  H275  1  0.88929359  0.78692864  0.84591174  1
  H+  H276  1  0.13300012  0.36613921  -0.01483587  1
  H+  H277  1  0.60679090  0.89425034  0.83081613  1
  H+  H278  1  0.16582737  0.34431956  0.89269590  1
  H+  H279  1  0.10099390  0.88212231  0.17635429  1
  H+  H280  1  0.76319065  0.14205919  0.00615711  1
  H+  H281  1  0.85833525  0.66923765  0.33750481  1
  H+  H282  1  0.12767123  0.76162253  0.17172430  1
  H+  H283  1  0.03377039  0.13480343  0.16744798  1
  H+  H284  1  0.72354985  0.11177409  0.35196814  1
  H+  H285  1  0.02957375  0.62831507  0.65175870  1
  H+  H286  1  0.38448871  0.26907153  0.17316490  1
  H+  H287  1  0.34565515  0.68737410  0.83429644  1
  H+  H288  1  0.08012305  0.41679293  0.05931880  1
  H+  H289  1  0.12100053  0.55875850  0.23392660  1
  H+  H290  1  0.34468044  0.67651238  0.43533356  1
  H+  H291  1  0.42205524  0.27985694  0.67846800  1
  H+  H292  1  0.26820724  0.13326177  0.34905126  1
  H+  H293  1  0.43473390  0.86756721  0.26471105  1
  H+  H294  1  0.63066650  0.86347798  0.98875671  1
  H+  H295  1  0.46820072  0.27758616  0.87884876  1
  H+  H296  1  0.59801454  0.41318628  0.10822234  1
  H+  H297  1  0.71533449  0.73760007  0.05319259  1
  H+  H298  1  0.80784293  0.36322500  0.41642474  1
  H+  H299  1  0.26654674  0.37933652  0.33211404  1
  H+  H300  1  0.43670900  0.10912370  0.29319016  1
  H+  H301  1  0.56831729  0.64932504  0.36660042  1
  H+  H302  1  0.58133483  0.68255357  0.46606614  1
  H+  H303  1  0.41552070  0.57540171  0.88831338  1
  H+  H304  1  0.07864776  0.67398526  0.40422181  1
  H+  H305  1  0.84684027  0.68015866  0.77080462  1
  H+  H306  1  0.57513906  0.92720593  0.05781556  1
  H+  H307  1  0.01473956  0.03785584  0.04148305  1
  H+  H308  1  0.86673223  0.46508533  0.50059193  1
  H+  H309  1  0.57833967  0.17130375  0.05800845  1
  H+  H310  1  0.32717873  0.91162415  0.05588042  1
  H+  H311  1  0.12348375  0.21512739  0.74952745  1
  H+  H312  1  0.14775018  0.57661276  0.92419567  1
  H+  H313  1  0.91537504  0.85622621  0.90254298  1
  H+  H314  1  0.91138078  0.57686039  0.59899779  1
  H+  H315  1  0.57224700  0.68348728  0.71347750  1
  H+  H316  1  0.59097077  0.93412814  0.73842612  1
  H+  H317  1  0.33216719  0.16127721  0.44775962  1
  H+  H318  1  0.88468154  0.35727369  0.83550171  1
  H+  H319  1  0.67236381  0.84725628  0.22943643  1
  H+  H320  1  0.42145851  0.01860052  0.21641466  1
  H+  H321  1  0.81516744  0.16690082  0.09320320  1
  H+  H322  1  0.16875035  0.81471526  0.25559372  1
  H+  H323  1  0.54780339  0.35473731  0.74123447  1
  H+  H324  1  0.65875928  0.83038558  0.93074877  1
  H+  H325  1  0.16295908  0.83304216  0.89377516  1
  H+  H326  1  0.35302714  0.46843524  0.51132648  1
  H+  H327  1  0.82565300  0.73313820  0.35244881  1
  H+  H328  1  0.15110078  0.83276751  0.61192992  1
  H+  H329  1  0.86466664  0.39282644  0.67160626  1
  H+  H330  1  0.73149271  0.36731292  0.83922750  1
  H+  H331  1  0.79232904  0.03270673  0.53880017  1
  H+  H332  1  0.83790038  0.42102155  0.77038600  1
  H+  H333  1  0.97818925  0.87450207  0.66043399  1
  H+  H334  1  0.16689691  0.32756023  0.27603663  1
  H+  H335  1  0.67427343  0.58608371  0.89505493  1
  H+  H336  1  0.88450234  0.07441887  0.91075850  1
  H+  H337  1  0.41365226  0.09000811  0.89572712  1
  H+  H338  1  0.72530421  0.85494424  0.32251848  1
  H+  H339  1  0.68096189  0.86342519  0.60616613  1
  H+  H340  1  0.31551304  0.65373879  0.04484889  1
  H+  H341  1  0.59243102  0.16430534  0.42280850  1
  H+  H342  1  0.32947278  0.41305114  0.71696059  1
  H+  H343  1  0.58261111  0.17360228  0.74352172  1
  H+  H344  1  0.41265707  0.31715248  0.91404954  1
  H+  H345  1  0.89325924  0.07069457  0.59780376  1
  H+  H346  1  0.40043508  0.57026496  0.24980916  1
  H+  H347  1  0.09140558  0.95281461  0.34561090  1
  H+  H348  1  0.12534621  0.21712983  0.78362064  1
  H+  H349  1  0.66271054  0.63319350  0.99200987  1
  H+  H350  1  0.92136267  0.07611399  0.28272414  1
  H+  H351  1  0.87490417  0.54487614  1.00560353  1
  H+  H352  1  0.61556203  0.47701613  0.82155132  1
  H+  H353  1  0.67239386  0.34254245  0.93251373  1
  H+  H354  1  0.17017182  0.06848762  0.92472578  1
  H+  H355  1  0.01307464  0.40381479  0.46416661  1
  H+  H356  1  0.67250112  0.58890302  0.21406228  1
  H+  H357  1  0.55705158  0.58450193  0.76789910  1
  H+  H358  1  0.42724633  0.09147696  0.58465160  1
  H+  H359  1  0.06659516  0.14842325  0.44277121  1
  H+  H360  1  0.53549099  0.13893333  0.51175014  1
  H+  H361  1  0.43399034  0.82742934  0.60404617  1
  H+  H362  1  0.91291948  0.77425025  0.99665663  1
  H+  H363  1  0.34331451  0.97313840  0.68090004  1
  H+  H364  1  0.58911494  0.92176830  0.40055171  1
  H+  H365  1  0.68413983  0.63118651  0.58017473  1
  H+  H366  1  0.31830166  0.91761334  0.74051095  1
  H+  H367  1  0.07644598  0.41094925  0.75784109  1
  H+  H368  1  0.17067580  0.07133409  0.57931866  1
  H+  H369  1  0.17210468  0.06723788  0.27331766  1
  H+  H370  1  0.91106347  0.83300994  0.56909314  1
  H+  H371  1  0.65927700  0.32321679  0.23565142  1
  H+  H372  1  0.36278712  0.44055928  0.04459714  1
  H+  H373  1  0.92553345  0.33695301  0.26233058  1
  H+  H374  1  0.91388870  0.31889687  0.92957094  1
  H+  H375  1  0.39833497  0.81425625  0.18742408  1
  H+  H376  1  0.10924523  0.63591513  0.49082892  1
  H+  H377  1  0.82538219  0.66176532  0.44192589  1
  H+  H378  1  0.86112008  0.65435982  0.05209832  1
  H+  H379  1  0.33060224  0.66006978  0.72846137  1
  H+  H380  1  0.83176483  0.92332052  0.76994401  1
  H+  H381  1  0.92151417  0.61070968  0.22545266  1
  H+  H382  1  0.85773868  0.22940606  0.00473108  1
  H+  H383  1  0.15735171  0.33733513  0.58835244  1
  O2-  O384  1  0.09185062  0.16766664  0.14886170  1
  O2-  O385  1  0.04085717  0.15074297  0.48147832  1
  O2-  O386  1  0.05952581  0.11888602  0.88345721  1
  O2-  O387  1  0.07658919  0.40576506  0.14118979  1
  O2-  O388  1  0.07329164  0.42363704  0.47254863  1
  O2-  O389  1  0.07300767  0.41130609  0.80288244  1
  O2-  O390  1  0.07766681  0.66920925  0.14038994  1
  O2-  O391  1  0.07789681  0.66690454  0.47754512  1
  O2-  O392  1  0.08304681  0.65944960  0.81654440  1
  O2-  O393  1  0.07575833  0.91820813  0.16703905  1
  O2-  O394  1  0.08005562  0.91606209  0.48661571  1
  O2-  O395  1  0.07762093  0.91314402  0.80959879  1
  O2-  O396  1  0.32424131  0.17137103  0.13693907  1
  O2-  O397  1  0.33561798  0.15897193  0.49274923  1
  O2-  O398  1  0.33245841  0.16661288  0.80561442  1
  O2-  O399  1  0.32320141  0.39409069  0.14257434  1
  O2-  O400  1  0.32488520  0.40475173  0.51447749  1
  O2-  O401  1  0.33464785  0.40755651  0.79653393  1
  O2-  O402  1  0.28358574  0.61557806  0.13439667  1
  O2-  O403  1  0.32950677  0.66985910  0.47948645  1
  O2-  O404  1  0.31569422  0.63686461  0.80850342  1
  O2-  O405  1  0.31654069  0.90321687  0.13649230  1
  O2-  O406  1  0.33175420  0.92538054  0.51224620  1
  O2-  O407  1  0.33923013  0.93095635  0.81934235  1
  O2-  O408  1  0.57102323  0.16586107  0.13859701  1
  O2-  O409  1  0.59447054  0.16825318  0.49366934  1
  O2-  O410  1  0.58687651  0.16909086  0.82042798  1
  O2-  O411  1  0.58515445  0.39773744  0.15259217  1
  O2-  O412  1  0.59256973  0.42080298  0.47730338  1
  O2-  O413  1  0.58433078  0.41501047  0.80988607  1
  O2-  O414  1  0.56885151  0.67409526  0.14262716  1
  O2-  O415  1  0.57437538  0.67222305  0.50967931  1
  O2-  O416  1  0.56512859  0.63389119  0.79153685  1
  O2-  O417  1  0.56373815  0.90601560  0.14246331  1
  O2-  O418  1  0.58462426  0.92253485  0.47489028  1
  O2-  O419  1  0.58237280  0.93005520  0.81730540  1
  O2-  O420  1  0.81031046  0.15868655  0.14020972  1
  O2-  O421  1  0.83561061  0.15814708  0.44360651  1
  O2-  O422  1  0.82415657  0.16142237  0.82110574  1
  O2-  O423  1  0.84561768  0.42264567  0.13705057  1
  O2-  O424  1  0.83810237  0.40188847  0.49233650  1
  O2-  O425  1  0.83559751  0.41692790  0.81570015  1
  O2-  O426  1  0.84056272  0.67255328  0.12815439  1
  O2-  O427  1  0.82984752  0.65941748  0.48674348  1
  O2-  O428  1  0.84455889  0.67918195  0.81596646  1
  O2-  O429  1  0.83563226  0.92561007  0.14538147  1
  O2-  O430  1  0.82625998  0.90063704  0.46928524  1
  O2-  O431  1  0.82587312  0.92105964  0.81537906  1
  O2-  O432  1  0.17479381  0.08320241  0.19010206  1
  O2-  O433  1  0.17795006  0.07104366  0.53045153  1
  O2-  O434  1  0.17280304  0.07604258  0.85037990  1
  O2-  O435  1  0.16187838  0.32899011  0.19721847  1
  O2-  O436  1  0.14112155  0.33048350  0.51424339  1
  O2-  O437  1  0.16382119  0.34770005  0.84719079  1
  O2-  O438  1  0.12999173  0.56426004  0.18912457  1
  O2-  O439  1  0.16077914  0.58333534  0.50758383  1
  O2-  O440  1  0.15841910  0.57323746  0.84659017  1
  O2-  O441  1  0.16116462  0.81999890  0.19251024  1
  O2-  O442  1  0.15419610  0.82638145  0.53118796  1
  O2-  O443  1  0.16709704  0.83378711  0.84876617  1
  O2-  O444  1  0.41114625  0.06525647  0.20453302  1
  O2-  O445  1  0.43054809  0.08856655  0.53847455  1
  O2-  O446  1  0.41667986  0.09186287  0.85047317  1
  O2-  O447  1  0.41720978  0.32974418  0.18801809  1
  O2-  O448  1  0.42349537  0.32178113  0.51528330  1
  O2-  O449  1  0.43802179  0.30748778  0.86609669  1
  O2-  O450  1  0.40018980  0.57044181  0.17092650  1
  O2-  O451  1  0.39817260  0.57988893  0.52262495  1
  O2-  O452  1  0.41371267  0.56662137  0.84185127  1
  O2-  O453  1  0.42518213  0.87608547  0.19381116  1
  O2-  O454  1  0.42319571  0.83554698  0.52119105  1
  O2-  O455  1  0.42948040  0.86282408  0.85737650  1
  O2-  O456  1  0.64129362  0.08155416  0.17799852  1
  O2-  O457  1  0.68822313  0.08942928  0.51084558  1
  O2-  O458  1  0.66805190  0.08665765  0.85666641  1
  O2-  O459  1  0.64886664  0.31642250  0.19063890  1
  O2-  O460  1  0.67069382  0.33326499  0.52357927  1
  O2-  O461  1  0.67074514  0.33766357  0.85479021  1
  O2-  O462  1  0.67798803  0.60239142  0.17039806  1
  O2-  O463  1  0.65874181  0.58852116  0.50906307  1
  O2-  O464  1  0.67484613  0.58397286  0.84897427  1
  O2-  O465  1  0.67231409  0.84999079  0.18391316  1
  O2-  O466  1  0.67041039  0.84907966  0.52574020  1
  O2-  O467  1  0.66067455  0.83221042  0.84959901  1
  O2-  O468  1  0.93095959  0.08048547  0.20061368  1
  O2-  O469  1  0.84907192  0.04522379  0.52494323  1
  O2-  O470  1  0.88801009  0.07956396  0.86444659  1
  O2-  O471  1  0.91791961  0.32518816  0.18787222  1
  O2-  O472  1  0.93445478  0.34369963  0.56108554  1
  O2-  O473  1  0.91170169  0.32240853  0.84707705  1
  O2-  O474  1  0.91436338  0.59035697  0.18308092  1
  O2-  O475  1  0.91118720  0.57130506  0.51988691  1
  O2-  O476  1  0.91220804  0.58353510  0.86108235  1
  O2-  O477  1  0.89942429  0.82611997  0.20061248  1
  O2-  O478  1  0.91199813  0.83057358  0.52338849  1
  O2-  O479  1  0.91809983  0.84914613  0.85592590  1
  O2-  O480  1  0.16900504  0.06287296  0.31831822  1
  O2-  O481  1  0.16045730  0.07611669  0.64115042  1
  O2-  O482  1  0.16515139  0.06720521  0.97054094  1
  O2-  O483  1  0.17713377  0.32986561  0.32095006  1
  O2-  O484  1  0.16534276  0.33742884  0.63376024  1
  O2-  O485  1  0.16350215  0.33709714  0.96897798  1
  O2-  O486  1  0.07633774  0.53412451  0.30925838  1
  O2-  O487  1  0.17394724  0.57570897  0.63142693  1
  O2-  O488  1  0.14877088  0.58245398  0.96963738  1
  O2-  O489  1  0.17527837  0.81655072  0.30437999  1
  O2-  O490  1  0.14825277  0.83286532  0.65699331  1
  O2-  O491  1  0.16628850  0.83400855  0.97383652  1
  O2-  O492  1  0.42483991  0.09487911  0.33643837  1
  O2-  O493  1  0.41214690  0.08365726  0.65543629  1
  O2-  O494  1  0.41147733  0.08416435  0.97601567  1
  O2-  O495  1  0.41359352  0.33388201  0.31394814  1
  O2-  O496  1  0.35979560  0.25454951  0.66792729  1
  O2-  O497  1  0.39081834  0.32213945  0.96696031  1
  O2-  O498  1  0.40678565  0.56959161  0.29501908  1
  O2-  O499  1  0.38984020  0.56916336  0.63983667  1
  O2-  O500  1  0.41488900  0.58778362  0.95754820  1
  O2-  O501  1  0.43100713  0.85844570  0.31096096  1
  O2-  O502  1  0.43292895  0.81867524  0.64838617  1
  O2-  O503  1  0.41617356  0.83047050  0.97103531  1
  O2-  O504  1  0.66605650  0.09259674  0.33277708  1
  O2-  O505  1  0.73032495  0.06563479  0.63206870  1
  O2-  O506  1  0.66057171  0.08934661  0.97782809  1
  O2-  O507  1  0.68715522  0.36581065  0.30601023  1
  O2-  O508  1  0.67490366  0.32984626  0.64451849  1
  O2-  O509  1  0.67316779  0.34230219  0.97805409  1
  O2-  O510  1  0.65823402  0.57454512  0.30053977  1
  O2-  O511  1  0.68910187  0.64356627  0.62514848  1
  O2-  O512  1  0.67136551  0.59195250  0.96724390  1
  O2-  O513  1  0.66677793  0.83539329  0.30643274  1
  O2-  O514  1  0.68029784  0.85821665  0.65110593  1
  O2-  O515  1  0.66152067  0.83365809  0.97572602  1
  O2-  O516  1  0.92051059  0.07198610  0.32763478  1
  O2-  O517  1  0.89822702  0.07943028  0.64263971  1
  O2-  O518  1  0.88842064  0.07353738  0.98236051  1
  O2-  O519  1  0.93168566  0.34656752  0.30794833  1
  O2-  O520  1  0.93602750  0.36224317  0.62634364  1
  O2-  O521  1  0.91155733  0.31729609  0.97450801  1
  O2-  O522  1  0.94716051  0.68031856  0.29644569  1
  O2-  O523  1  0.91581067  0.57895408  0.64429152  1
  O2-  O524  1  0.91320969  0.61117963  0.99024865  1
  O2-  O525  1  0.87607955  0.84608378  0.33133192  1
  O2-  O526  1  0.91726881  0.84053491  0.64539470  1
  O2-  O527  1  0.94048519  0.83520423  1.01036729  1
  O2-  O528  1  0.04759712  0.09946714  0.03342059  1
  O2-  O529  1  0.09297196  0.14931399  0.35590442  1
  O2-  O530  1  0.07553146  0.17467813  0.66023370  1
  O2-  O531  1  0.07785815  0.41644255  0.01434519  1
  O2-  O532  1  0.10128149  0.41285891  0.36220253  1
  O2-  O533  1  0.08392291  0.41551314  0.67511675  1
  O2-  O534  1  0.08088900  0.67428705  0.01852827  1
  O2-  O535  1  0.07790232  0.67521383  0.35768955  1
  O2-  O536  1  0.09293153  0.65798336  0.64971766  1
  O2-  O537  1  0.10144289  0.91976022  0.01580738  1
  O2-  O538  1  0.05060023  0.89809927  0.36589642  1
  O2-  O539  1  0.07720057  0.92335145  0.68819995  1
  O2-  O540  1  0.32304714  0.16535936  0.01049058  1
  O2-  O541  1  0.32719850  0.17332834  0.36578765  1
  O2-  O542  1  0.32258594  0.16521725  0.68843441  1
  O2-  O543  1  0.33776033  0.42473932  0.00414274  1
  O2-  O544  1  0.33423189  0.41694836  0.34176501  1
  O2-  O545  1  0.32543491  0.41955757  0.67223829  1
  O2-  O546  1  0.31939763  0.66204786  0.00062095  1
  O2-  O547  1  0.40099229  0.70129893  0.36865063  1
  O2-  O548  1  0.33586746  0.66350054  0.68355074  1
  O2-  O549  1  0.32955478  0.91521071  0.01081557  1
  O2-  O550  1  0.33539964  0.91628348  0.34301090  1
  O2-  O551  1  0.30624340  0.91426418  0.69620589  1
  O2-  O552  1  0.57894643  0.17304546  0.01284868  1
  O2-  O553  1  0.59044691  0.16006087  0.37623282  1
  O2-  O554  1  0.56644078  0.17864434  0.70098082  1
  O2-  O555  1  0.62447468  0.43778594  0.03597972  1
  O2-  O556  1  0.57736846  0.41505924  0.35546411  1
  O2-  O557  1  0.52779358  0.31651097  0.70502154  1
  O2-  O558  1  0.65689771  0.71026588  0.03734080  1
  O2-  O559  1  0.57647965  0.65725742  0.32285688  1
  O2-  O560  1  0.57828658  0.69702295  0.66981139  1
  O2-  O561  1  0.57757822  0.92355176  0.01325835  1
  O2-  O562  1  0.59096227  0.92694368  0.35464172  1
  O2-  O563  1  0.59474837  0.93377279  0.69305843  1
  O2-  O564  1  0.82194204  0.16959063  0.02454072  1
  O2-  O565  1  0.80393994  0.10773485  0.38745709  1
  O2-  O566  1  0.79814184  0.22576780  0.69233912  1
  O2-  O567  1  0.83856434  0.45746982  0.02047403  1
  O2-  O568  1  0.78926689  0.33820408  0.37520277  1
  O2-  O569  1  0.83460320  0.42033096  0.69028931  1
  O2-  O570  1  0.86768127  0.65767743  0.00656796  1
  O2-  O571  1  0.81119144  0.67277081  0.35872519  1
  O2-  O572  1  0.84936336  0.67966802  0.68776209  1
  O2-  O573  1  0.90955939  0.87752985  -0.03021189  1
  O2-  O574  1  0.83374888  0.89532311  0.34832635  1
  O2-  O575  1  0.83803212  0.92124321  0.69282220  1
