# generated using pymatgen
data_H2O
_symmetry_space_group_name_H-M   'P 1'
_cell_length_a   17.98758694
_cell_length_b   17.97240396
_cell_length_c   22.00625358
_cell_angle_alpha   89.97999813
_cell_angle_beta   90.02239067
_cell_angle_gamma   119.99654650
_symmetry_Int_Tables_number   1
_chemical_formula_structural   H2O
_chemical_formula_sum   'H384 O192'
_cell_volume   6161.27927578
_cell_formula_units_Z   192
loop_
 _symmetry_equiv_pos_site_id
 _symmetry_equiv_pos_as_xyz
  1  'x, y, z'
loop_
 _atom_type_symbol
 _atom_type_oxidation_number
  H+  1.0
  O2-  -2.0
loop_
 _atom_site_type_symbol
 _atom_site_label
 _atom_site_symmetry_multiplicity
 _atom_site_fract_x
 _atom_site_fract_y
 _atom_site_fract_z
 _atom_site_occupancy
  H+  H0  1  0.86620198  0.50394518  0.52020497  1
  H+  H1  1  0.46437015  0.66255710  0.86849352  1
  H+  H2  1  0.61307616  0.98286862  0.50019333  1
  H+  H3  1  0.27330848  0.64330565  0.49454438  1
  H+  H4  1  0.14655095  0.36320387  0.65924742  1
  H+  H5  1  0.73805090  0.11254150  0.51504274  1
  H+  H6  1  0.12035936  0.74424952  0.35316046  1
  H+  H7  1  0.23398003  0.38111108  0.85429589  1
  H+  H8  1  0.99226381  0.17500686  0.01465374  1
  H+  H9  1  0.63252623  0.52377135  0.33422605  1
  H+  H10  1  0.14428715  0.01692723  0.16972068  1
  H+  H11  1  0.35722708  0.64829855  0.34882703  1
  H+  H12  1  0.90084021  0.62718013  0.57367889  1
  H+  H13  1  0.84078749  -0.02813705  0.15992962  1
  H+  H14  1  0.57527775  0.65695194  0.05937743  1
  H+  H15  1  0.09851853  0.11675333  0.84357797  1
  H+  H16  1  0.15486912  0.62442774  0.65218587  1
  H+  H17  1  0.77918402  0.37861140  0.68661810  1
  H+  H18  1  0.61661106  0.47544800  0.67171369  1
  H+  H19  1  0.17816213  0.32890834  0.60261475  1
  H+  H20  1  0.64336636  0.09637583  0.67021268  1
  H+  H21  1  0.28403090  0.37211346  0.34455272  1
  H+  H22  1  0.39690234  0.36565996  0.51482069  1
  H+  H23  1  0.36290750  0.11302963  0.34375072  1
  H+  H24  1  0.62997881  0.38606470  0.17635933  1
  H+  H25  1  -0.05544790  0.59653300  0.75575892  1
  H+  H26  1  0.53253388  0.05058091  0.92377824  1
  H+  H27  1  0.28119816  0.39162913  0.67918423  1
  H+  H28  1  0.90046437  0.86854252  -0.02675601  1
  H+  H29  1  0.90063987  0.13052195  -0.01870376  1
  H+  H30  1  0.38557846  0.36931792  0.83726176  1
  H+  H31  1  0.28064799  0.91112211  0.32918803  1
  H+  H32  1  0.62523267  0.76823896  0.14663107  1
  H+  H33  1  0.11627773  0.22144740  0.14979126  1
  H+  H34  1  0.11081312  0.87409267  0.16266030  1
  H+  H35  1  0.49718406  0.88600427  -0.00919877  1
  H+  H36  1  0.80591726  0.15294790  0.09695130  1
  H+  H37  1  0.36584140  0.47605698  0.49848674  1
  H+  H38  1  0.12450686  0.61741346  0.34292270  1
  H+  H39  1  0.58281855  0.65527211  0.72120953  1
  H+  H40  1  0.15436039  0.12464642  0.49073458  1
  H+  H41  1  0.35847574  0.62981387  1.00919138  1
  H+  H42  1  0.71639980  0.61531293  0.18080915  1
  H+  H43  1  0.17258187  0.36089945  0.91315239  1
  H+  H44  1  0.37023449  0.73600002  0.49801204  1
  H+  H45  1  0.46334974  0.61281052  0.50844544  1
  H+  H46  1  0.08261040  0.68497471  0.44899979  1
  H+  H47  1  0.60602632  0.63350939  0.34610681  1
  H+  H48  1  0.22043107  0.83994759  0.00484658  1
  H+  H49  1  0.58739017  0.72411465  0.49489749  1
  H+  H50  1  0.37034539  0.36810973  0.34532512  1
  H+  H51  1  0.58158451  0.16676564  0.10285801  1
  H+  H52  1  0.03962485  0.14906418  0.48510121  1
  H+  H53  1  0.84690565  0.61524514  0.16776612  1
  H+  H54  1  0.14394813  1.02912413  0.63126668  1
  H+  H55  1  0.47077652  0.60722939  0.98782610  1
  H+  H56  1  0.51361187  0.63320063  0.15903801  1
  H+  H57  1  0.36220012  0.22757656  1.00909981  1
  H+  H58  1  0.91248028  0.05442017  0.51426076  1
  H+  H59  1  0.39312563  0.02388742  0.65942232  1
  H+  H60  1  0.37561422  0.13918689  0.66806689  1
  H+  H61  1  0.93475182  0.31472267  0.89407670  1
  H+  H62  1  0.13091070  0.60133653  0.80741988  1
  H+  H63  1  0.47611381  0.86320310  0.50639299  1
  H+  H64  1  0.39735960  0.81735633  0.92706081  1
  H+  H65  1  0.48006380  0.36973100  0.66540673  1
  H+  H66  1  0.10167140  0.25054277  0.84790594  1
  H+  H67  1  0.46607670  0.11724302  0.84304320  1
  H+  H68  1  0.88853558  0.62967102  0.33136690  1
  H+  H69  1  0.80358451  0.62819667  0.64313340  1
  H+  H70  1  0.97964953  0.34443429  0.82896603  1
  H+  H71  1  0.62232554  0.86644966  0.50580009  1
  H+  H72  1  0.86902738  0.37164055  0.16572310  1
  H+  H73  1  0.75733435  0.54639835  0.44239911  1
  H+  H74  1  0.85928877  0.40951360  0.52130769  1
  H+  H75  1  0.91252911  0.14261435  0.51086839  1
  H+  H76  1  0.86053273  0.60634480  0.76227149  1
  H+  H77  1  -0.01741237  0.37067348  0.15278511  1
  H+  H78  1  0.02643026  0.65855006  0.51048811  1
  H+  H79  1  0.82419955  0.89269540  0.73837855  1
  H+  H80  1  0.09831058  0.47724684  0.34482356  1
  H+  H81  1  0.84357361  0.33015914  0.83170177  1
  H+  H82  1  0.82985167  0.48978242  0.84761063  1
  H+  H83  1  0.88520856  0.78551462  0.17952807  1
  H+  H84  1  0.36191906  0.22509431  0.82022018  1
  H+  H85  1  0.23772861  0.10854753  0.32606341  1
  H+  H86  1  0.38936747  0.50945916  0.34062947  1
  H+  H87  1  0.31870339  0.63693015  0.16878991  1
  H+  H88  1  0.57684576  1.01001366  -0.03380862  1
  H+  H89  1  0.72985822  0.12158045  0.34402818  1
  H+  H90  1  0.35942043  0.73221856  0.32198742  1
  H+  H91  1  0.73797940  0.06917194  0.20468022  1
  H+  H92  1  0.47723293  0.87191014  0.32623672  1
  H+  H93  1  0.02153910  0.86974640  0.00112635  1
  H+  H94  1  0.14852239  0.41148677  0.25919793  1
  H+  H95  1  0.39616323  0.25767137  0.32944977  1
  H+  H96  1  0.03192882  0.39076891  0.67218924  1
  H+  H97  1  0.86732238  0.24193156  0.50483674  1
  H+  H98  1  0.27684907  0.51888842  0.23036382  1
  H+  H99  1  0.42339051  0.33489873  0.57576619  1
  H+  H100  1  0.27773541  -0.11064840  0.66983535  1
  H+  H101  1  0.14195453  0.51764363  0.82497068  1
  H+  H102  1  0.14463241  0.87462134  0.32890372  1
  H+  H103  1  0.48825570  0.35572209  0.18135194  1
  H+  H104  1  0.35552513  0.88121024  0.15859619  1
  H+  H105  1  0.88097936  0.51715538  0.19458775  1
  H+  H106  1  0.34865612  0.16074778  0.40014940  1
  H+  H107  1  0.52902637  0.11867554  0.67428279  1
  H+  H108  1  1.02599519  0.88964883  0.35081486  1
  H+  H109  1  0.60063946  0.71162578  0.81237562  1
  H+  H110  1  0.89148288  0.54446682  0.34543662  1
  H+  H111  1  0.12231328  0.39425076  0.82645306  1
  H+  H112  1  0.08764773  0.99534293  0.82006336  1
  H+  H113  1  0.05582123  0.65857489  0.64354433  1
  H+  H114  1  0.40623423  0.03079922  0.50681414  1
  H+  H115  1  0.60653311  0.37041616  0.83548858  1
  H+  H116  1  0.23760634  0.61616974  0.82100000  1
  H+  H117  1  0.13781563  0.23718221  0.67801714  1
  H+  H118  1  0.92758712  0.78529432  0.46950085  1
  H+  H119  1  0.11512419  0.88882787  0.62377142  1
  H+  H120  1  0.39126508  0.77233373  0.66002908  1
  H+  H121  1  0.61557746  0.39098986  0.35375353  1
  H+  H122  1  0.61728208  0.37225242  0.01616411  1
  H+  H123  1  0.37057506  0.47951987  -0.00146502  1
  H+  H124  1  0.77471366  0.75337945  0.54629636  1
  H+  H125  1  0.47542278  0.86946323  0.16351699  1
  H+  H126  1  0.35292029  -0.03194875  0.15918859  1
  H+  H127  1  1.02214452  0.62436339  0.99333766  1
  H+  H128  1  0.88852466  0.87464345  0.17203368  1
  H+  H129  1  0.62583065  0.14346358  0.35077770  1
  H+  H130  1  0.38343860  0.86022367  0.83376992  1
  H+  H131  1  0.40442709  0.58196713  0.93132782  1
  H+  H132  1  0.58435592  0.15585350  0.73460486  1
  H+  H133  1  0.15235086  0.31415738  0.34835729  1
  H+  H134  1  0.38059014  0.76884933  0.83194675  1
  H+  H135  1  0.76902266  0.86353896  0.66983144  1
  H+  H136  1  -0.08815029  0.81248592  0.45459950  1
  H+  H137  1  0.37728781  0.11395786  0.84176817  1
  H+  H138  1  0.88601165  0.36102588  0.28952451  1
  H+  H139  1  0.46954600  0.09931917  0.18054891  1
  H+  H140  1  0.62770283  0.76449690  0.34860706  1
  H+  H141  1  0.38197297  0.23283176  0.49407171  1
  H+  H142  1  0.01755202  0.49581092  0.45177480  1
  H+  H143  1  0.65211330  0.24857192  0.66638254  1
  H+  H144  1  0.38311000  0.10214137  0.17893895  1
  H+  H145  1  0.61192605  0.23895816  0.01252104  1
  H+  H146  1  0.23906007  0.35666331  0.51284260  1
  H+  H147  1  0.63033166  0.36595356  0.51937103  1
  H+  H148  1  0.65983647  0.26301866  0.49835889  1
  H+  H149  1  0.51779879  0.88014908  0.82345997  1
  H+  H150  1  0.14457624  0.90324230  0.49693787  1
  H+  H151  1  0.60139762  0.23355790  0.82986943  1
  H+  H152  1  0.63138772  0.00226113  0.82645990  1
  H+  H153  1  0.83235262  0.89529290  0.52146528  1
  H+  H154  1  0.86242190  0.23222255  0.33926404  1
  H+  H155  1  0.57847715  0.90548527  0.76342991  1
  H+  H156  1  0.63976297  0.50685378  0.84052068  1
  H+  H157  1  0.61819347  0.98272901  0.14351606  1
  H+  H158  1  0.23699829  0.37824266  0.00214475  1
  H+  H159  1  0.51852864  0.37298912  0.82744302  1
  H+  H160  1  0.73107684  0.34869676  0.19091538  1
  H+  H161  1  0.89743639  0.62904314  0.97407647  1
  H+  H162  1  0.31600895  0.89720373  0.06497720  1
  H+  H163  1  0.36662697  0.88753210  0.67234954  1
  H+  H164  1  0.72894531  0.37136821  0.34523391  1
  H+  H165  1  0.05446982  0.65203383  0.80742289  1
  H+  H166  1  0.81471134  0.52036861  0.85640329  1
  H+  H167  1  0.10398642  0.61168005  0.00569566  1
  H+  H168  1  0.93826254  0.27932646  0.98591623  1
  H+  H169  1  0.39216145  0.87736128  0.31778468  1
  H+  H170  1  0.88799502  0.87378746  0.33650582  1
  H+  H171  1  0.87917658  0.14787633  0.67866070  1
  H+  H172  1  0.50925290  0.62682710  0.80880249  1
  H+  H173  1  0.14521925  0.49607014  0.00083777  1
  H+  H174  1  0.27752461  0.13068868  0.16057109  1
  H+  H175  1  0.36187031  -0.02261095  0.82792902  1
  H+  H176  1  0.20775336  0.61000200  0.33278597  1
  H+  H177  1  0.28573391  0.13742949  0.66398884  1
  H+  H178  1  0.72644231  0.38504079  0.52711838  1
  H+  H179  1  0.15378466  0.78671677  0.51758955  1
  H+  H180  1  0.21775409  0.59217310  0.99795757  1
  H+  H181  1  0.22214638  0.85377583  0.17647214  1
  H+  H182  1  0.76970051  0.88747403  0.36176458  1
  H+  H183  1  0.14885577  0.27339182  0.50535012  1
  H+  H184  1  0.64290879  0.64463747  0.50789514  1
  H+  H185  1  0.34770871  0.73463877  0.15539677  1
  H+  H186  1  0.66322731  0.81804476  -0.10990485  1
  H+  H187  1  0.86009395  0.20404649  0.83055313  1
  H+  H188  1  0.85231435  0.47136143  0.71360108  1
  H+  H189  1  0.14281154  0.99245913  0.49164385  1
  H+  H190  1  0.76697961  0.64466833  0.33082651  1
  H+  H191  1  0.85273866  0.09798416  0.16857372  1
  H+  H192  1  0.39206635  0.27759806  0.66392047  1
  H+  H193  1  0.37163594  0.75841175  0.98801932  1
  H+  H194  1  0.95949491  0.38312429  0.51471322  1
  H+  H195  1  0.90249228  0.75874568  0.65212049  1
  H+  H196  1  0.39244123  0.52306864  0.66268756  1
  H+  H197  1  0.66060247  0.61291692  0.66046177  1
  H+  H198  1  0.86256972  0.72875695  -0.00509948  1
  H+  H199  1  0.12298084  0.73699247  0.00356986  1
  H+  H200  1  0.11714744  1.01439548  -0.01165377  1
  H+  H201  1  0.12211337  0.47908386  0.66879364  1
  H+  H202  1  0.51429191  0.62980043  0.34538562  1
  H+  H203  1  0.48444028  0.60900690  0.65441034  1
  H+  H204  1  0.88124536  0.62241974  0.50324637  1
  H+  H205  1  0.52653272  0.87963656  0.67098614  1
  H+  H206  1  0.61924275  -0.03343215  0.67421648  1
  H+  H207  1  0.28889790  0.89515440  0.48909756  1
  H+  H208  1  0.20128603  0.64442435  0.15726513  1
  H+  H209  1  0.65714524  0.12285836  0.51514683  1
  H+  H210  1  0.11844460  0.23474126  0.01845713  1
  H+  H211  1  1.02709631  0.65997759  0.35454788  1
  H+  H212  1  0.09871052  0.09963760  0.32776949  1
  H+  H213  1  0.36485804  0.63542919  0.50354298  1
  H+  H214  1  0.38016458  0.13510120  0.00162708  1
  H+  H215  1  0.29276714  0.14591743  0.48876768  1
  H+  H216  1  0.90113345  0.34322359  0.97727818  1
  H+  H217  1  0.08970289  0.50414865  0.13616226  1
  H+  H218  1  0.36975634  0.49420236  0.83454876  1
  H+  H219  1  0.91364177  0.34314225  0.57987236  1
  H+  H220  1  0.21704789  0.88064604  0.83115744  1
  H+  H221  1  0.77301709  0.88081228  0.13888443  1
  H+  H222  1  0.47147118  0.35923468  0.97756947  1
  H+  H223  1  0.13777832  0.89724158  0.82677325  1
  H+  H224  1  0.64245025  0.85846907  0.66284405  1
  H+  H225  1  0.72500908  0.63077218  0.49460058  1
  H+  H226  1  0.85716693  0.73692316  0.33620800  1
  H+  H227  1  0.97854987  0.85767494  0.63959224  1
  H+  H228  1  0.90561290  0.27073149  0.14798481  1
  H+  H229  1  0.38082364  0.38118112  0.16001181  1
  H+  H230  1  0.73020087  0.24507485  0.46896935  1
  H+  H231  1  0.60904203  0.12884858  0.15815268  1
  H+  H232  1  0.85118447  -0.04188091  0.82165375  1
  H+  H233  1  0.71476117  0.85953261  0.98266297  1
  H+  H234  1  0.07965480  0.91778575  0.56725083  1
  H+  H235  1  0.60773901  0.62566147  1.00277894  1
  H+  H236  1  0.59529236  0.14265500  -0.00181986  1
  H+  H237  1  0.13782202  0.75408806  0.65972148  1
  H+  H238  1  0.14701858  0.63414878  0.50831969  1
  H+  H239  1  0.17530866  0.07535581  0.22940827  1
  H+  H240  1  0.60981022  0.48184500  0.50832933  1
  H+  H241  1  0.23403736  0.35103377  0.13084923  1
  H+  H242  1  0.36024019  0.45748723  0.16616469  1
  H+  H243  1  0.75876178  0.86900199  0.82000139  1
  H+  H244  1  0.61977886  0.71713081  0.66366373  1
  H+  H245  1  0.91926790  0.82273573  0.91904315  1
  H+  H246  1  0.61012100  0.88827657  0.35275106  1
  H+  H247  1  0.48057612  0.35194393  0.33388252  1
  H+  H248  1  0.31930574  0.61259850  0.25931528  1
  H+  H249  1  0.60920088  0.89258959  0.12840995  1
  H+  H250  1  0.77534088  0.58170481  0.11800645  1
  H+  H251  1  0.16196204  0.86231562  0.69161682  1
  H+  H252  1  0.78401198  0.13558680  0.67836905  1
  H+  H253  1  0.69946340  0.34690056  1.04164280  1
  H+  H254  1  0.63399394  0.51557022  0.00020984  1
  H+  H255  1  -0.04313105  0.09571068  0.85891055  1
  H+  H256  1  0.69943546  0.84672941  0.49706968  1
  H+  H257  1  0.34089189  0.86378736  0.00415399  1
  H+  H258  1  1.02572940  0.04181564  0.37190874  1
  H+  H259  1  0.71894154  0.33197639  0.85548237  1
  H+  H260  1  0.95687649  0.09392029  0.31568038  1
  H+  H261  1  0.86517665  0.02048066  0.32945143  1
  H+  H262  1  0.72317655  0.60502408  0.99550344  1
  H+  H263  1  0.11662960  0.13353872  0.15859934  1
  H+  H264  1  0.73052917  0.09982464  0.83235326  1
  H+  H265  1  0.78440939  0.39823614  0.97818659  1
  H+  H266  1  0.96898958  0.86029854  0.82639061  1
  H+  H267  1  0.47827195  0.13295868  0.99486939  1
  H+  H268  1  0.38702694  0.86162229  0.49999020  1
  H+  H269  1  0.88206317  -0.00918347  0.93864611  1
  H+  H270  1  0.76553703  0.62383695  0.81340730  1
  H+  H271  1  0.63802069  0.26420141  0.18760664  1
  H+  H272  1  0.99573239  0.13132664  0.66879922  1
  H+  H273  1  0.19387372  0.85228964  0.57272339  1
  H+  H274  1  0.87531870  0.84630765  0.83201616  1
  H+  H275  1  0.83233675  0.94601049  0.05455027  1
  H+  H276  1  0.64262402  0.07250699  0.88197864  1
  H+  H277  1  0.12290489  0.83509192  0.00186584  1
  H+  H278  1  0.36372656  0.63415908  0.83186085  1
  H+  H279  1  0.60038776  0.62927191  0.16402107  1
  H+  H280  1  1.07704850  0.76271241  0.85197590  1
  H+  H281  1  0.42382310  0.84238758  0.22720846  1
  H+  H282  1  0.14961698  0.01932170  0.32847638  1
  H+  H283  1  0.86523838  0.08324239  0.85049020  1
  H+  H284  1  0.79266573  0.95748370  0.52169564  1
  H+  H285  1  0.13679463  0.29309827  0.31781941  1
  H+  H286  1  0.86202579  0.14375625  0.34472736  1
  H+  H287  1  0.63295573  0.85155285  0.83265966  1
  H+  H288  1  0.81113978  0.36567654  0.77759820  1
  H+  H289  1  0.85607230  0.81457801  0.58794645  1
  H+  H290  1  0.38896931  0.02732816  0.27512083  1
  H+  H291  1  0.36940061  0.39145161  0.68204443  1
  H+  H292  1  0.32409940  0.66416298  0.06479468  1
  H+  H293  1  0.81069784  0.63934262  0.41453220  1
  H+  H294  1  0.67121297  0.56758286  0.89856679  1
  H+  H295  1  0.08707951  0.64590742  0.73900899  1
  H+  H296  1  0.34516740  0.92804836  0.42766632  1
  H+  H297  1  0.92030868  0.31748162  0.24599788  1
  H+  H298  1  0.66776828  0.83245826  0.60008233  1
  H+  H299  1  0.13622497  0.54325456  0.49620171  1
  H+  H300  1  0.87490399  0.44793039  0.01002059  1
  H+  H301  1  0.65952613  0.84439036  0.19292034  1
  H+  H302  1  0.88266582  0.62858461  0.67534463  1
  H+  H303  1  0.58414016  0.41590557  0.73079074  1
  H+  H304  1  0.89725315  0.54711923  0.94690136  1
  H+  H305  1  0.34493158  0.41358904  0.44074860  1
  H+  H306  1  0.33728770  0.43223832  0.77669154  1
  H+  H307  1  0.83706955  0.42136785  0.12350951  1
  H+  H308  1  0.63623926  0.76221897  -0.01696681  1
  H+  H309  1  0.63393306  0.52372687  0.18235649  1
  H+  H310  1  0.33510693  0.66305965  0.76514106  1
  H+  H311  1  0.42374889  0.32375701  0.23766536  1
  H+  H312  1  0.82988736  0.14945120  0.76961860  1
  H+  H313  1  0.03640900  0.20690611  0.79391790  1
  H+  H314  1  0.34000939  0.16393094  0.76280123  1
  H+  H315  1  0.60578779  0.41763186  0.11497538  1
  H+  H316  1  0.18223813  0.38596205  0.20007196  1
  H+  H317  1  0.15115099  0.11876790  0.65218701  1
  H+  H318  1  0.09328775  0.43610628  0.09041577  1
  H+  H319  1  0.85474721  0.06183351  0.23614921  1
  H+  H320  1  0.33723120  0.92281024  0.76605881  1
  H+  H321  1  0.18576047  0.10266191  0.55321284  1
  H+  H322  1  0.05027468  0.43587151  0.42545060  1
  H+  H323  1  0.67345592  0.33449653  0.28262240  1
  H+  H324  1  0.39344747  0.57134308  0.28753365  1
  H+  H325  1  0.82817798  0.43891082  0.43032019  1
  H+  H326  1  0.52235908  0.39084525  0.50781074  1
  H+  H327  1  0.89560224  0.37040526  0.67536556  1
  H+  H328  1  0.62789491  0.23984000  0.34945397  1
  H+  H329  1  0.12823441  0.07648805  0.89675253  1
  H+  H330  1  0.40449867  0.32472266  0.89238518  1
  H+  H331  1  0.36863069  0.21918558  0.16427657  1
  H+  H332  1  0.41754045  0.83236683  0.60113433  1
  H+  H333  1  0.83708822  0.93555082  0.41436337  1
  H+  H334  1  0.66540510  0.32217141  0.91737602  1
  H+  H335  1  0.35179801  0.42198363  0.05905221  1
  H+  H336  1  0.52535330  0.35790295  0.04817095  1
  H+  H337  1  0.56519815  0.66166816  0.43695966  1
  H+  H338  1  0.57904176  0.92419552  0.43928408  1
  H+  H339  1  0.28307733  0.63660138  0.66840947  1
  H+  H340  1  0.91010230  0.58696821  0.24689395  1
  H+  H341  1  0.07755514  0.16418748  0.07208307  1
  H+  H342  1  0.66938234  0.31853401  0.61577990  1
  H+  H343  1  0.91754551  0.84914611  0.27426344  1
  H+  H344  1  0.06871693  0.94480298  0.75612107  1
  H+  H345  1  0.40609982  0.11826611  0.50823159  1
  H+  H346  1  0.53243970  0.22452622  0.78362608  1
  H+  H347  1  0.62427097  0.19275655  0.41481001  1
  H+  H348  1  0.09347963  0.41654076  0.76151031  1
  H+  H349  1  0.40781953  0.58242347  0.57042614  1
  H+  H350  1  0.86554672  0.41133524  0.37609141  1
  H+  H351  1  0.89299981  0.27994872  0.67156449  1
  H+  H352  1  0.41333461  0.09879782  0.93355407  1
  H+  H353  1  0.73507540  0.15396176  0.20120660  1
  H+  H354  1  0.09082698  0.91886625  0.40848390  1
  H+  H355  1  0.67582760  0.07434896  0.60904806  1
  H+  H356  1  0.17877386  0.58601160  0.59613759  1
  H+  H357  1  0.86152022  0.85724124  0.67763453  1
  H+  H358  1  0.17060762  0.83750990  0.27018323  1
  H+  H359  1  0.11013284  0.09918855  0.99243538  1
  H+  H360  1  0.01644091  0.38411581  0.33453830  1
  H+  H361  1  0.12008009  0.17580842  0.73574336  1
  H+  H362  1  0.02803395  0.88518284  0.16276342  1
  H+  H363  1  0.34153215  0.16872960  0.07137291  1
  H+  H364  1  0.65483945  0.58086581  0.27305745  1
  H+  H365  1  0.08529534  0.16108487  0.42088162  1
  H+  H366  1  0.38476292  0.36166186  0.98704038  1
  H+  H367  1  0.84421808  0.18495053  0.44350019  1
  H+  H368  1  0.67063861  0.08986319  0.28478946  1
  H+  H369  1  0.37294221  0.63787363  0.67115226  1
  H+  H370  1  0.15957637  0.35924252  0.09731460  1
  H+  H371  1  1.00081442  0.67810262  0.88569371  1
  H+  H372  1  0.13929548  0.76025282  0.18345100  1
  H+  H373  1  0.56731497  0.93618504  0.04238058  1
  H+  H374  1  0.89565057  0.17207826  0.07247655  1
  H+  H375  1  0.61405501  0.98010105  0.34961825  1
  H+  H376  1  0.43056350  0.08534020  0.60062148  1
  H+  H377  1  0.85422141  0.71175310  0.80782116  1
  H+  H378  1  0.58160031  0.42136745  0.41059021  1
  H+  H379  1  0.94468758  0.11465512  0.60736109  1
  H+  H380  1  0.68493879  0.59415855  0.59753843  1
  H+  H381  1  0.84515042  0.67335067  0.05550561  1
  H+  H382  1  0.07817753  0.90028331  0.06250712  1
  H+  H383  1  0.67043073  0.83105303  0.29555561  1
  O2-  O384  1  0.08112627  0.15812818  0.14454707  1
  O2-  O385  1  0.09682206  0.17136149  0.46490869  1
  O2-  O386  1  0.05915031  0.19330967  0.82974572  1
  O2-  O387  1  0.05943775  0.44374542  0.12226458  1
  O2-  O388  1  0.04016335  0.45938837  0.46563658  1
  O2-  O389  1  0.08882492  0.41858571  0.80691987  1
  O2-  O390  1  0.10029484  0.65794468  0.15792148  1
  O2-  O391  1  0.08595817  0.68220446  0.49462423  1
  O2-  O392  1  0.06643245  0.61436012  0.77817325  1
  O2-  O393  1  0.08608793  0.90858445  0.14520826  1
  O2-  O394  1  0.10790785  0.92854700  0.48601576  1
  O2-  O395  1  0.06608741  0.93556252  0.79974295  1
  O2-  O396  1  0.33950164  0.16010776  0.14684077  1
  O2-  O397  1  0.35440234  0.17424709  0.47578334  1
  O2-  O398  1  0.34012298  0.16456136  0.80793925  1
  O2-  O399  1  0.35460853  0.41209820  0.13903286  1
  O2-  O400  1  0.34610788  0.41594840  0.48590904  1
  O2-  O401  1  0.33736881  0.43290477  0.82217481  1
  O2-  O402  1  0.30701182  0.67475223  0.14181994  1
  O2-  O403  1  0.33785392  0.67140109  0.48502828  1
  O2-  O404  1  0.32672377  0.66218561  0.80988596  1
  O2-  O405  1  0.32132556  0.90763904  0.14405654  1
  O2-  O406  1  0.34835708  0.92123206  0.47204003  1
  O2-  O407  1  0.33452857  0.91804047  0.81134890  1
  O2-  O408  1  0.58312750  0.16400459  0.14855732  1
  O2-  O409  1  0.66816254  0.21754312  0.47507412  1
  O2-  O410  1  0.55642956  0.19100064  0.80107249  1
  O2-  O411  1  0.60214058  0.41824612  0.16002588  1
  O2-  O412  1  0.58417054  0.42415458  0.49088571  1
  O2-  O413  1  0.57911665  0.39849922  0.81336932  1
  O2-  O414  1  0.57239094  0.65952241  0.14404742  1
  O2-  O415  1  0.56230181  0.66262542  0.48254635  1
  O2-  O416  1  0.56780128  0.65519617  0.79191367  1
  O2-  O417  1  0.57989212  0.92697167  0.12488511  1
  O2-  O418  1  0.57951576  0.92214985  0.48493348  1
  O2-  O419  1  0.57952070  0.90987969  0.80921098  1
  O2-  O420  1  0.86366361  0.17075523  0.11156413  1
  O2-  O421  1  0.84309784  0.18197321  0.48865989  1
  O2-  O422  1  0.82335263  0.14274797  0.81554810  1
  O2-  O423  1  0.83469856  0.40278071  0.16539643  1
  O2-  O424  1  0.83250139  0.44296512  0.50503811  1
  O2-  O425  1  0.79414195  0.33535954  0.81746786  1
  O2-  O426  1  0.81044831  0.63333175  0.14206049  1
  O2-  O427  1  0.79244337  0.60643722  0.45433013  1
  O2-  O428  1  0.81691952  0.65719119  0.78652900  1
  O2-  O429  1  0.83563352  0.92183841  0.13671355  1
  O2-  O430  1  0.83060314  0.94427365  0.49814632  1
  O2-  O431  1  0.82046535  0.89940402  0.80328344  1
  O2-  O432  1  0.17557422  0.07780679  0.18412373  1
  O2-  O433  1  0.18754292  0.09834029  0.50784790  1
  O2-  O434  1  0.12374957  0.08034048  0.85114707  1
  O2-  O435  1  0.17322281  0.33451818  0.13549002  1
  O2-  O436  1  0.17941134  0.32745925  0.52860048  1
  O2-  O437  1  0.17279983  0.35325094  0.86825749  1
  O2-  O438  1  0.13954776  0.61134961  0.17162291  1
  O2-  O439  1  0.17700769  0.60024101  0.51466442  1
  O2-  O440  1  0.17003758  0.58240265  0.83142293  1
  O2-  O441  1  0.16321272  0.82254677  0.19494156  1
  O2-  O442  1  0.19290267  0.84878014  0.52763479  1
  O2-  O443  1  0.15986624  0.86371744  0.84780345  1
  O2-  O444  1  0.40928637  0.06794210  0.19449669  1
  O2-  O445  1  0.43563279  0.08872945  0.52515985  1
  O2-  O446  1  0.40801410  0.08463855  0.86184045  1
  O2-  O447  1  0.42636892  0.32620891  0.19210407  1
  O2-  O448  1  0.42797635  0.33590453  0.52962761  1
  O2-  O449  1  0.41003141  0.33181590  0.84753956  1
  O2-  O450  1  0.32931956  0.57843446  0.22794970  1
  O2-  O451  1  0.40258238  0.58462031  0.52441906  1
  O2-  O452  1  0.41344263  0.60738906  0.85938718  1
  O2-  O453  1  0.41749507  0.83832730  0.18201855  1
  O2-  O454  1  0.41389605  0.82880170  0.51811004  1
  O2-  O455  1  0.41409829  0.82939883  0.84765091  1
  O2-  O456  1  0.69699938  0.09225916  0.20733384  1
  O2-  O457  1  0.67663773  0.08273386  0.52832304  1
  O2-  O458  1  0.66393276  0.06703423  0.83966716  1
  O2-  O459  1  0.67061650  0.32273500  0.20610402  1
  O2-  O460  1  0.66514906  0.33966528  0.53276555  1
  O2-  O461  1  0.66099040  0.31878881  0.87286846  1
  O2-  O462  1  0.65543521  0.58460206  0.19515214  1
  O2-  O463  1  0.69132706  0.64027345  0.52640138  1
  O2-  O464  1  0.67757673  0.56676181  0.85427101  1
  O2-  O465  1  0.65878476  0.83262743  0.14966450  1
  O2-  O466  1  0.64584937  0.82797340  0.51938497  1
  O2-  O467  1  0.66356411  0.82037655  0.84365491  1
  O2-  O468  1  0.82141036  0.04890864  0.19728252  1
  O2-  O469  1  0.94721149  0.11626952  0.52426510  1
  O2-  O470  1  0.89571537  0.05314710  0.86567833  1
  O2-  O471  1  0.92514186  0.32465891  0.17153855  1
  O2-  O472  1  0.90330447  0.34446559  0.53469447  1
  O2-  O473  1  0.92380265  0.30496297  0.84862832  1
  O2-  O474  1  0.89398855  0.57608117  0.20327090  1
  O2-  O475  1  0.91594160  0.61165567  0.53333045  1
  O2-  O476  1  1.02660371  0.70340947  0.84616318  1
  O2-  O477  1  0.91629093  0.84520614  0.19321730  1
  O2-  O478  1  0.81854015  0.81380187  0.55439781  1
  O2-  O479  1  0.91103334  0.82106694  0.84444478  1
  O2-  O480  1  0.17832619  0.07728791  0.30894193  1
  O2-  O481  1  0.18134036  0.09285495  0.63038544  1
  O2-  O482  1  0.13695939  0.07115901  0.96998938  1
  O2-  O483  1  0.20038159  0.41940765  0.23927389  1
  O2-  O484  1  0.17856676  0.33293755  0.64875454  1
  O2-  O485  1  0.17373549  0.35185202  0.99347658  1
  O2-  O486  1  0.14462003  0.57799952  0.32942564  1
  O2-  O487  1  0.17897174  0.58622870  0.64124903  1
  O2-  O488  1  0.15612167  0.55360009  0.98862138  1
  O2-  O489  1  0.17874145  0.84764417  0.31560280  1
  O2-  O490  1  0.17254283  0.84445752  0.65223509  1
  O2-  O491  1  0.15456916  0.80350260  0.99110721  1
  O2-  O492  1  0.38738409  0.02903580  0.32050886  1
  O2-  O493  1  0.42891508  0.08536582  0.64658166  1
  O2-  O494  1  0.41676471  0.10331504  0.98005117  1
  O2-  O495  1  0.42179710  0.31924741  0.31610254  1
  O2-  O496  1  0.41797055  0.33859005  0.65009946  1
  O2-  O497  1  0.40899855  0.32475329  0.97183411  1
  O2-  O498  1  0.41450409  0.57114484  0.32938381  1
  O2-  O499  1  0.42169720  0.58187634  0.64357730  1
  O2-  O500  1  0.40843063  0.57609963  0.97732174  1
  O2-  O501  1  0.42009260  0.84363484  0.30597613  1
  O2-  O502  1  0.42176002  0.83392321  0.64611624  1
  O2-  O503  1  0.39643010  0.81889782  0.97235875  1
  O2-  O504  1  0.66775663  0.09110872  0.33010767  1
  O2-  O505  1  0.67725343  0.06964473  0.65399674  1
  O2-  O506  1  0.58873620  0.06541832  0.94021741  1
  O2-  O507  1  0.66992801  0.33531648  0.32832131  1
  O2-  O508  1  0.68577623  0.31075788  0.65681314  1
  O2-  O509  1  0.66924876  0.33854890  1.00320488  1
  O2-  O510  1  0.65964599  0.58400698  0.31842021  1
  O2-  O511  1  0.69041523  0.58460131  0.64134786  1
  O2-  O512  1  0.66145189  0.57434903  0.98352850  1
  O2-  O513  1  0.66240222  0.82898268  0.33939816  1
  O2-  O514  1  0.67509081  0.83168737  0.64475989  1
  O2-  O515  1  0.66141175  0.81833521  0.96190027  1
  O2-  O516  1  0.89570881  0.07763532  0.30883018  1
  O2-  O517  1  0.93739520  0.10860641  0.65199063  1
  O2-  O518  1  0.88805312  -0.03562090  0.97673075  1
  O2-  O519  1  0.90989762  0.32288053  0.29065547  1
  O2-  O520  1  0.92356705  0.34007553  0.65547333  1
  O2-  O521  1  0.94645918  0.33142554  0.96493371  1
  O2-  O522  1  0.92359140  0.60094813  0.32543922  1
  O2-  O523  1  0.88919228  0.57956470  0.73655729  1
  O2-  O524  1  0.93350300  0.60960191  0.95274445  1
  O2-  O525  1  0.91673754  0.84345461  0.31943352  1
  O2-  O526  1  0.91657474  0.82062144  0.65107741  1
  O2-  O527  1  0.91924078  0.82632386  0.96508381  1
  O2-  O528  1  0.07555429  0.17384187  0.02646822  1
  O2-  O529  1  0.04726392  0.09533758  0.34910350  1
  O2-  O530  1  0.10926542  0.17496193  0.69222257  1
  O2-  O531  1  0.14835549  0.39930829  0.03674979  1
  O2-  O532  1  0.06851104  0.41546992  0.35945393  1
  O2-  O533  1  0.09388493  0.41885531  0.68428541  1
  O2-  O534  1  0.07721158  0.64730105  0.01586763  1
  O2-  O535  1  0.08575589  0.68686954  0.37275144  1
  O2-  O536  1  0.11014857  0.68528821  0.66544494  1
  O2-  O537  1  0.08110771  0.89678341  0.01752383  1
  O2-  O538  1  0.08742610  0.91958606  0.36286955  1
  O2-  O539  1  0.08107767  0.91796580  0.61253955  1
  O2-  O540  1  0.34059917  0.16841382  0.02550676  1
  O2-  O541  1  0.34387351  0.15443423  0.35450783  1
  O2-  O542  1  0.34398548  0.16870498  0.68235871  1
  O2-  O543  1  0.34360908  0.41783696  0.01432444  1
  O2-  O544  1  0.34241138  0.40105113  0.36094832  1
  O2-  O545  1  0.34056451  0.42382558  0.69646555  1
  O2-  O546  1  0.32781658  0.66143201  0.01972894  1
  O2-  O547  1  0.32347990  0.66869781  0.32678537  1
  O2-  O548  1  0.34291474  0.66908716  0.68489994  1
  O2-  O549  1  0.30803181  0.89088768  0.02011678  1
  O2-  O550  1  0.34437652  0.93879474  0.34128084  1
  O2-  O551  1  0.33845130  0.92013389  0.68623708  1
  O2-  O552  1  0.57542854  0.17457108  0.02413332  1
  O2-  O553  1  0.60248798  0.18038087  0.37002810  1
  O2-  O554  1  0.58841384  0.14156500  0.69158708  1
  O2-  O555  1  0.57872565  0.40237572  0.03026422  1
  O2-  O556  1  0.58345017  0.42057908  0.36516094  1
  O2-  O557  1  0.57657441  0.41669890  0.68630096  1
  O2-  O558  1  0.57718058  0.65741224  0.01459858  1
  O2-  O559  1  0.57560984  0.66392532  0.36103629  1
  O2-  O560  1  0.59031675  0.65565988  0.67523375  1
  O2-  O561  1  0.55818058  0.93289026  -0.00193010  1
  O2-  O562  1  0.57891024  0.91936207  0.36319584  1
  O2-  O563  1  0.58608458  0.90479762  0.68809476  1
  O2-  O564  1  0.93627430  0.17725662  0.00900860  1
  O2-  O565  1  0.83464652  0.17626956  0.36140700  1
  O2-  O566  1  0.84259643  0.17109647  0.69614526  1
  O2-  O567  1  0.84743411  0.42635974  -0.02920169  1
  O2-  O568  1  0.82769703  0.43446416  0.38422284  1
  O2-  O569  1  0.83749596  0.41084490  0.70639475  1
  O2-  O570  1  0.83527500  0.66821379  0.01139802  1
  O2-  O571  1  0.82778022  0.67390679  0.34574035  1
  O2-  O572  1  0.86738342  0.65407418  0.63973639  1
  O2-  O573  1  0.81519049  0.95482260  0.01322117  1
  O2-  O574  1  0.83216825  0.92552491  0.36988266  1
  O2-  O575  1  0.82781189  0.88707173  0.69052161  1
