# generated using pymatgen
data_H2O
_symmetry_space_group_name_H-M   'P 1'
_cell_length_a   17.98273532
_cell_length_b   17.98635293
_cell_length_c   21.98551582
_cell_angle_alpha   89.98519606
_cell_angle_beta   90.01530236
_cell_angle_gamma   119.98198424
_symmetry_Int_Tables_number   1
_chemical_formula_structural   H2O
_chemical_formula_sum   'H384 O192'
_cell_volume   6159.49272615
_cell_formula_units_Z   192
loop_
 _symmetry_equiv_pos_site_id
 _symmetry_equiv_pos_as_xyz
  1  'x, y, z'
loop_
 _atom_type_symbol
 _atom_type_oxidation_number
  H+  1.0
  O2-  -2.0
loop_
 _atom_site_type_symbol
 _atom_site_label
 _atom_site_symmetry_multiplicity
 _atom_site_fract_x
 _atom_site_fract_y
 _atom_site_fract_z
 _atom_site_occupancy
  H+  H0  1  0.62681935  0.14820031  0.83004269  1
  H+  H1  1  0.41612035  0.79654291  0.65894768  1
  H+  H2  1  0.86543740  0.14583467  0.82316131  1
  H+  H3  1  0.86575257  1.00529479  0.82564474  1
  H+  H4  1  0.85708278  0.14318739  0.67461076  1
  H+  H5  1  0.53304120  0.61062975  0.43854899  1
  H+  H6  1  0.88771987  0.25816095  0.18204217  1
  H+  H7  1  0.08270874  0.85236976  -0.03904522  1
  H+  H8  1  0.72058529  0.36166269  0.50714602  1
  H+  H9  1  0.88830871  0.61362742  0.83248698  1
  H+  H10  1  0.39613773  0.86408410  0.83453303  1
  H+  H11  1  0.48160090  0.58416526  0.85084879  1
  H+  H12  1  0.00413001  0.38628893  0.34171047  1
  H+  H13  1  0.95580555  0.84782764  0.98921580  1
  H+  H14  1  0.88642330  0.77603917  0.83151774  1
  H+  H15  1  0.13636720  0.84783067  0.80802948  1
  H+  H16  1  0.84592401  0.14121307  0.35020293  1
  H+  H17  1  0.89001355  0.12822908  0.51330947  1
  H+  H18  1  0.07482229  0.66245970  0.43234243  1
  H+  H19  1  0.10984804  0.24594247  0.83148372  1
  H+  H20  1  0.14368567  0.61480556  0.33688812  1
  H+  H21  1  0.10626057  0.43709619  0.11594543  1
  H+  H22  1  -0.03447072  0.02870129  0.15191165  1
  H+  H23  1  0.01734538  0.64592435  0.16000476  1
  H+  H24  1  0.86933323  0.73668099  0.67214736  1
  H+  H25  1  0.38390116  0.23388439  0.34826228  1
  H+  H26  1  1.00355182  0.37412273  0.49494956  1
  H+  H27  1  0.62194361  0.93188248  0.33509521  1
  H+  H28  1  0.61907007  0.36032012  0.16994967  1
  H+  H29  1  0.71136410  0.61689307  0.99976416  1
  H+  H30  1  0.53082737  0.13361149  1.01065579  1
  H+  H31  1  0.36533725  0.23819283  0.50337853  1
  H+  H32  1  0.37068252  -0.02494278  0.31687488  1
  H+  H33  1  0.52564955  0.37706119  0.80824521  1
  H+  H34  1  0.83966786  0.42413185  0.59604408  1
  H+  H35  1  0.73210852  0.86083951  0.97956788  1
  H+  H36  1  0.15174432  0.57884334  0.93894694  1
  H+  H37  1  0.12734282  0.36355001  0.66334777  1
  H+  H38  1  0.72865175  0.36859538  0.31699015  1
  H+  H39  1  0.63756167  1.06328204  0.34197160  1
  H+  H40  1  0.37855990  0.76492394  0.16419734  1
  H+  H41  1  -0.02385339  0.12031790  0.66740472  1
  H+  H42  1  0.42870560  0.64660086  0.64456663  1
  H+  H43  1  0.13237524  1.04679184  0.49762822  1
  H+  H44  1  0.60564507  0.46863568  0.16551830  1
  H+  H45  1  0.60244587  0.61996643  0.34595352  1
  H+  H46  1  0.13073378  0.62107257  0.18548647  1
  H+  H47  1  0.97369507  0.60635644  0.83393924  1
  H+  H48  1  0.73114631  0.36936578  0.65125099  1
  H+  H49  1  0.52196009  0.87815924  0.15487472  1
  H+  H50  1  0.10380603  0.71409313  0.49709902  1
  H+  H51  1  1.02747916  0.88745520  0.50737956  1
  H+  H52  1  0.54261762  0.53542106  0.78591746  1
  H+  H53  1  0.62249300  0.97769463  0.00600624  1
  H+  H54  1  0.75258395  0.37207645  0.13326366  1
  H+  H55  1  0.23050336  0.86065138  0.31455593  1
  H+  H56  1  0.73347249  0.12290419  0.84464125  1
  H+  H57  1  0.64957186  0.78981936  0.66311307  1
  H+  H58  1  0.63787786  0.27075402  0.83767931  1
  H+  H59  1  0.64570370  0.88568723  0.83284881  1
  H+  H60  1  0.13119478  0.36840813  0.50878199  1
  H+  H61  1  0.37775407  0.89450534  1.01250911  1
  H+  H62  1  0.38527210  0.27552974  0.80407678  1
  H+  H63  1  0.16330302  0.43397650  0.02336058  1
  H+  H64  1  1.01705232  0.14735058  0.50595492  1
  H+  H65  1  0.35650956  0.46828369  0.33236429  1
  H+  H66  1  0.16652613  1.01487753  0.15155446  1
  H+  H67  1  0.13514562  0.17245191  0.20300110  1
  H+  H68  1  0.73692645  0.82576418  0.34890113  1
  H+  H69  1  0.27062144  0.12545244  0.66913804  1
  H+  H70  1  0.32014856  0.15960569  0.76379273  1
  H+  H71  1  0.42813023  0.08688644  0.75124806  1
  H+  H72  1  0.12862395  0.02623453  0.84264672  1
  H+  H73  1  0.89609325  0.53559801  0.65072210  1
  H+  H74  1  0.35357467  0.96172061  0.82217089  1
  H+  H75  1  0.88704288  0.07463873  0.27108625  1
  H+  H76  1  0.62534490  0.27597983  0.51263448  1
  H+  H77  1  0.27189306  0.86968961  0.80702357  1
  H+  H78  1  0.24945994  0.61051816  0.15618713  1
  H+  H79  1  0.34433863  0.17739871  0.40898815  1
  H+  H80  1  0.52563338  0.14199025  0.16478366  1
  H+  H81  1  0.38624263  0.63037642  0.98752939  1
  H+  H82  1  0.13503855  0.87862795  0.17343068  1
  H+  H83  1  0.14682413  0.19019004  0.17113738  1
  H+  H84  1  0.13543614  0.62660264  -0.00326236  1
  H+  H85  1  0.10847890  0.15119983  0.82699139  1
  H+  H86  1  0.51359750  0.76641349  0.32389886  1
  H+  H87  1  0.35494886  0.46623514  0.16442492  1
  H+  H88  1  0.35604746  0.09971599  0.51013354  1
  H+  H89  1  0.48932106  0.38797821  0.02121374  1
  H+  H90  1  0.85551607  0.37958073  0.33744578  1
  H+  H91  1  0.19293890  0.34705950  0.34714440  1
  H+  H92  1  0.38818440  0.98510369  0.48462552  1
  H+  H93  1  0.36338235  0.13206678  0.68503148  1
  H+  H94  1  0.37162553  0.26712496  0.66747254  1
  H+  H95  1  0.40261578  0.87739993  0.65210232  1
  H+  H96  1  0.88174375  0.27218797  0.84198469  1
  H+  H97  1  0.92092712  0.24840562  0.99699840  1
  H+  H98  1  0.88205022  0.90306865  0.50374679  1
  H+  H99  1  0.60554406  0.84230451  0.47781386  1
  H+  H100  1  0.10433858  0.73552661  0.16478351  1
  H+  H101  1  0.76188333  0.90671742  0.82780394  1
  H+  H102  1  0.89933570  1.01829093  -0.02186509  1
  H+  H103  1  0.87826487  0.27449467  0.33665576  1
  H+  H104  1  0.13365826  1.02068539  0.66122306  1
  H+  H105  1  0.85697923  0.50144572  0.14523549  1
  H+  H106  1  0.57143472  0.13478141  0.50000027  1
  H+  H107  1  0.37552358  0.26515880  1.01035187  1
  H+  H108  1  0.86552082  0.86836579  -0.02004755  1
  H+  H109  1  0.61488549  0.37180499  0.82462054  1
  H+  H110  1  0.54369372  0.65260896  0.66238930  1
  H+  H111  1  0.36224905  0.09980883  0.83883679  1
  H+  H112  1  0.77083230  0.64349601  0.50637169  1
  H+  H113  1  0.61092878  0.73570528  0.00244835  1
  H+  H114  1  0.37030485  0.98014948  0.68061141  1
  H+  H115  1  0.51617650  0.63325858  0.16231029  1
  H+  H116  1  0.10647091  0.48241649  0.17696833  1
  H+  H117  1  0.49151810  0.11933840  0.69552557  1
  H+  H118  1  0.39966177  1.02410960  -0.00469926  1
  H+  H119  1  0.92466335  0.88555522  0.33067832  1
  H+  H120  1  0.16203234  0.52062787  1.02773255  1
  H+  H121  1  0.11512846  0.19767902  0.04429647  1
  H+  H122  1  0.87403635  0.74867520  0.34628865  1
  H+  H123  1  0.81793173  0.52911908  0.19646086  1
  H+  H124  1  0.44411197  0.67368562  0.82270423  1
  H+  H125  1  0.11984278  0.72993209  0.33938969  1
  H+  H126  1  0.11103399  0.49337126  0.84325226  1
  H+  H127  1  0.74173078  0.88251432  0.50739117  1
  H+  H128  1  0.60146096  0.64172068  1.00813266  1
  H+  H129  1  0.52750354  0.91193986  0.33602340  1
  H+  H130  1  0.30351329  0.63719849  0.82511294  1
  H+  H131  1  0.09600218  0.49290487  0.49679015  1
  H+  H132  1  0.03218207  0.63912378  0.66483266  1
  H+  H133  1  0.13698701  0.51661716  0.65168514  1
  H+  H134  1  0.15862157  0.08239985  0.60206366  1
  H+  H135  1  0.33357626  0.15193668  0.07949566  1
  H+  H136  1  0.38072788  0.85352960  0.17445614  1
  H+  H137  1  0.61886146  0.25999990  0.16903827  1
  H+  H138  1  0.46260258  0.58763688  0.32914580  1
  H+  H139  1  0.38918067  1.11188368  0.18523917  1
  H+  H140  1  0.86881737  0.98781884  0.67649823  1
  H+  H141  1  0.97464691  1.01658196  0.36979502  1
  H+  H142  1  0.39118651  0.11187422  0.33558782  1
  H+  H143  1  0.07939339  0.41687546  0.73624621  1
  H+  H144  1  0.85537878  0.47686058  0.49053189  1
  H+  H145  1  0.64414841  0.52884016  0.50847957  1
  H+  H146  1  0.64586402  0.49405158  0.84712381  1
  H+  H147  1  0.11013435  -0.02029587  1.00069603  1
  H+  H148  1  1.00219739  0.78978302  0.92536720  1
  H+  H149  1  0.88361271  0.62103885  0.99019108  1
  H+  H150  1  0.64875604  0.87952733  0.66361896  1
  H+  H151  1  0.57397333  0.69196211  0.35445745  1
  H+  H152  1  0.37175600  0.59420733  0.17095445  1
  H+  H153  1  0.60957864  0.03823169  0.47509951  1
  H+  H154  1  0.09738948  0.61238192  0.82438453  1
  H+  H155  1  0.84241318  0.91315649  0.03676099  1
  H+  H156  1  0.62919182  0.60852525  0.17333228  1
  H+  H157  1  0.53690954  0.90655947  0.82294416  1
  H+  H158  1  0.97339966  0.11321898  0.20921370  1
  H+  H159  1  0.15906769  0.13929267  0.99111940  1
  H+  H160  1  0.48481677  0.63528824  0.99494326  1
  H+  H161  1  0.72978643  0.83193539  0.38174286  1
  H+  H162  1  0.12982701  0.27528314  0.66182036  1
  H+  H163  1  0.64486479  0.11269533  0.16846856  1
  H+  H164  1  0.33484910  0.32479680  0.01280238  1
  H+  H165  1  0.85501180  0.72702491  0.15898754  1
  H+  H166  1  0.95667269  0.86455926  0.17004749  1
  H+  H167  1  0.20600885  0.35969738  0.84497365  1
  H+  H168  1  0.88048682  0.26978142  0.66184731  1
  H+  H169  1  0.27132344  0.64755245  -0.00583535  1
  H+  H170  1  0.13379497  0.75861115  0.80595422  1
  H+  H171  1  0.54310081  0.90891522  0.66906939  1
  H+  H172  1  0.86332477  0.47132770  0.33466512  1
  H+  H173  1  0.07919799  0.19951628  0.34652286  1
  H+  H174  1  0.07026920  0.32576082  0.97852005  1
  H+  H175  1  0.22040250  0.59325217  0.61521408  1
  H+  H176  1  0.40531906  0.36718060  0.33365910  1
  H+  H177  1  0.19817334  0.33021108  1.01823438  1
  H+  H178  1  0.86999062  0.38491591  0.64741356  1
  H+  H179  1  0.84767503  0.72901784  -0.00649856  1
  H+  H180  1  0.94198522  0.11125451  0.33215093  1
  H+  H181  1  0.78890653  0.14607656  0.50174419  1
  H+  H182  1  0.23690036  0.10737345  0.22821413  1
  H+  H183  1  0.30173846  0.37304701  0.30671016  1
  H+  H184  1  0.70962034  0.36280635  1.00654870  1
  H+  H185  1  0.63797056  1.02148323  0.16460295  1
  H+  H186  1  0.10706931  0.37204027  0.83071160  1
  H+  H187  1  0.88205006  0.35381914  0.50637864  1
  H+  H188  1  0.61400205  0.16396871  0.35859183  1
  H+  H189  1  0.09863543  0.59576408  0.49801777  1
  H+  H190  1  0.73454143  0.62058966  0.66311626  1
  H+  H191  1  0.86340391  0.48211737  0.82943929  1
  H+  H192  1  0.26254090  0.14076265  0.82326298  1
  H+  H193  1  0.89189542  0.78154538  0.51915449  1
  H+  H194  1  0.53967593  0.39752449  0.33865545  1
  H+  H195  1  1.01334819  0.88827572  0.82824042  1
  H+  H196  1  0.14506915  0.77627814  0.66307294  1
  H+  H197  1  0.12960419  0.37756615  0.18845063  1
  H+  H198  1  0.02919861  0.12596017  0.00882899  1
  H+  H199  1  0.37637714  0.35556642  0.17992698  1
  H+  H200  1  0.39987313  0.11154965  0.99595599  1
  H+  H201  1  0.60924309  0.87868061  0.16535653  1
  H+  H202  1  0.01592967  0.37587480  0.82761965  1
  H+  H203  1  0.78137286  0.12612669  0.16273260  1
  H+  H204  1  0.26043804  0.12011531  0.32466005  1
  H+  H205  1  0.63237909  0.00000357  0.67300573  1
  H+  H206  1  0.61531861  0.59686421  0.82927157  1
  H+  H207  1  0.38161524  0.51518589  0.84816786  1
  H+  H208  1  0.77073316  0.88204784  0.21773084  1
  H+  H209  1  0.45149765  0.76578584  0.82045947  1
  H+  H210  1  0.64489632  0.03509076  0.84289346  1
  H+  H211  1  0.36475258  0.97951945  0.17613004  1
  H+  H212  1  0.96441820  0.61144336  0.50096083  1
  H+  H213  1  0.65915827  0.33435638  0.23202128  1
  H+  H214  1  0.39536059  0.78320396  0.98880039  1
  H+  H215  1  0.11849290  0.63391539  0.66272946  1
  H+  H216  1  0.34041331  0.91483764  0.25950919  1
  H+  H217  1  0.86909950  0.12163552  0.16889337  1
  H+  H218  1  0.62101912  0.22556773  0.67089248  1
  H+  H219  1  0.63763943  0.49854431  0.67652960  1
  H+  H220  1  0.06831252  0.97828452  0.14132798  1
  H+  H221  1  0.41910885  0.34201006  0.74963096  1
  H+  H222  1  0.13163776  0.52046475  0.33409341  1
  H+  H223  1  0.08564400  0.88819787  0.86440749  1
  H+  H224  1  0.60071131  0.24398430  0.34758075  1
  H+  H225  1  0.48799373  0.86881069  -0.00818198  1
  H+  H226  1  0.01987008  0.38761684  0.67620186  1
  H+  H227  1  0.17360244  0.03161147  0.31445786  1
  H+  H228  1  0.61458260  0.39254304  0.49569209  1
  H+  H229  1  0.19633722  0.58456548  0.84893742  1
  H+  H230  1  0.94607169  0.31248835  0.94157196  1
  H+  H231  1  0.84193179  0.14832695  0.07359035  1
  H+  H232  1  0.77952871  0.89769721  0.67626106  1
  H+  H233  1  0.28636957  0.13554648  1.01530262  1
  H+  H234  1  0.27009998  0.89245081  0.17246967  1
  H+  H235  1  0.89344595  0.87481160  0.67091669  1
  H+  H236  1  0.26417224  0.38465168  0.17850079  1
  H+  H237  1  0.64527740  0.37987348  0.31888067  1
  H+  H238  1  -0.01673610  0.12978104  0.83428738  1
  H+  H239  1  0.89622429  0.10361148  0.99403461  1
  H+  H240  1  0.59715479  0.93801106  0.76270971  1
  H+  H241  1  0.37860683  0.59905522  0.32849727  1
  H+  H242  1  0.16086981  0.33969197  0.56936229  1
  H+  H243  1  0.68022371  0.85232191  0.56525647  1
  H+  H244  1  0.11815223  0.88512745  0.67964255  1
  H+  H245  1  0.08933937  0.37904415  0.34567734  1
  H+  H246  1  0.34130733  0.68929808  0.54903279  1
  H+  H247  1  0.72306194  0.36458079  0.84115588  1
  H+  H248  1  0.89453703  0.03874878  0.51460898  1
  H+  H249  1  0.86501486  0.65889728  0.36472935  1
  H+  H250  1  0.35461730  0.22181488  0.17590678  1
  H+  H251  1  0.71893209  0.61131135  0.16916279  1
  H+  H252  1  0.12558582  0.94259352  0.52728718  1
  H+  H253  1  0.91244228  0.61249247  0.29285651  1
  H+  H254  1  0.27730376  0.62786368  0.34341939  1
  H+  H255  1  0.62678009  0.48904893  0.33909303  1
  H+  H256  1  0.64522748  0.86655835  0.98721045  1
  H+  H257  1  0.57843880  0.67339272  0.10515175  1
  H+  H258  1  0.11188819  0.14085602  0.67882561  1
  H+  H259  1  0.31220485  0.65980897  0.85549072  1
  H+  H260  1  0.48193076  0.11909622  0.33616213  1
  H+  H261  1  0.45367478  0.80291226  0.49856800  1
  H+  H262  1  0.72801771  0.14809688  0.35239210  1
  H+  H263  1  0.76267334  0.13960038  0.67112863  1
  H+  H264  1  0.47848256  0.37060687  0.51574172  1
  H+  H265  1  0.35563263  0.39071451  0.82281748  1
  H+  H266  1  0.64480344  0.11097680  1.00204903  1
  H+  H267  1  0.78223223  0.12452992  0.01371529  1
  H+  H268  1  0.88266139  0.25961397  0.50647496  1
  H+  H269  1  0.58140631  0.47433583  1.02108468  1
  H+  H270  1  0.73157303  0.62954172  0.32686613  1
  H+  H271  1  0.86306375  0.96934632  0.21666116  1
  H+  H272  1  0.87775182  0.61705462  0.50630053  1
  H+  H273  1  0.77741336  0.63090848  0.81976299  1
  H+  H274  1  0.03680175  0.63682341  0.33188919  1
  H+  H275  1  0.04523349  0.89597533  0.34420360  1
  H+  H276  1  0.26007779  0.38996104  0.68149110  1
  H+  H277  1  0.12899820  0.13189488  0.50938802  1
  H+  H278  1  0.62400403  0.22024406  0.01106021  1
  H+  H279  1  0.87169326  0.64801211  0.66667405  1
  H+  H280  1  0.62530940  0.76543520  0.18944746  1
  H+  H281  1  0.88624482  0.36182152  0.85198011  1
  H+  H282  1  0.26816463  0.37972444  0.49602384  1
  H+  H283  1  0.14610462  0.86613562  0.33151335  1
  H+  H284  1  0.63647988  0.39885753  0.67082843  1
  H+  H285  1  0.13347733  0.83959514  0.50586861  1
  H+  H286  1  0.85313938  0.63843139  0.14660462  1
  H+  H287  1  0.58491590  0.17302175  0.10237775  1
  H+  H288  1  0.67059950  0.09083039  0.60850048  1
  H+  H289  1  0.41600055  0.70758781  0.73538739  1
  H+  H290  1  0.60658585  0.42526927  0.73811923  1
  H+  H291  1  0.42624508  0.33508261  0.27190158  1
  H+  H292  1  0.56937271  0.79988327  0.38259779  1
  H+  H293  1  0.64305512  0.61875668  0.66560580  1
  H+  H294  1  0.83493010  0.66682295  0.75906475  1
  H+  H295  1  0.14239158  0.34410488  0.92863721  1
  H+  H296  1  0.15583196  0.83962167  0.23298869  1
  H+  H297  1  0.02542222  0.64437146  0.00684401  1
  H+  H298  1  0.67156173  0.59225669  0.26666370  1
  H+  H299  1  0.39274541  0.85595502  0.31572227  1
  H+  H300  1  0.92765826  0.55731631  0.24756487  1
  H+  H301  1  0.36630515  0.71461639  0.34003576  1
  H+  H302  1  0.51037470  0.00337606  0.48697762  1
  H+  H303  1  0.40736228  0.07402274  0.89047577  1
  H+  H304  1  0.72244721  0.54138230  0.89377777  1
  H+  H305  1  0.12843059  0.28806974  0.18781266  1
  H+  H306  1  0.93418296  0.83668333  0.27212929  1
  H+  H307  1  0.83308659  0.93781749  0.76468105  1
  H+  H308  1  0.46731406  0.35732694  0.17688742  1
  H+  H309  1  0.77991029  0.89679408  0.11099665  1
  H+  H310  1  0.10744317  0.23747682  0.49955569  1
  H+  H311  1  0.31962893  0.42485066  0.77203492  1
  H+  H312  1  0.87391610  0.85644759  0.20290540  1
  H+  H313  1  0.35307659  0.92395603  0.07349084  1
  H+  H314  1  0.23179297  0.86635349  0.65844080  1
  H+  H315  1  0.91745719  0.09213358  0.60744496  1
  H+  H316  1  0.58904314  0.66652811  0.72838113  1
  H+  H317  1  0.46661136  0.62769889  0.58418768  1
  H+  H318  1  0.34598590  0.38671889  0.68523348  1
  H+  H319  1  0.43280627  0.84693527  0.89682989  1
  H+  H320  1  0.59137836  0.91257468  0.06286059  1
  H+  H321  1  0.56510573  0.40978336  0.10547504  1
  H+  H322  1  0.42583965  0.82136967  0.26346024  1
  H+  H323  1  0.40798963  0.57460015  0.23290147  1
  H+  H324  1  0.91918668  0.59342799  0.93410355  1
  H+  H325  1  0.42237026  0.82329150  0.56084761  1
  H+  H326  1  0.83949072  0.17937868  0.41638587  1
  H+  H327  1  0.07738954  0.64437691  0.76064069  1
  H+  H328  1  0.10025710  0.93349924  0.06314696  1
  H+  H329  1  0.24893929  0.20370667  0.96138854  1
  H+  H330  1  0.16468190  0.59017582  0.24372535  1
  H+  H331  1  0.10413363  0.92818817  0.40339174  1
  H+  H332  1  0.91804323  0.32558699  0.59972605  1
  H+  H333  1  0.98174185  0.87108908  0.67213038  1
  H+  H334  1  0.32666671  0.66329697  0.69869790  1
  H+  H335  1  0.62885492  0.13697623  0.67225602  1
  H+  H336  1  0.58969880  0.42466373  0.43563369  1
  H+  H337  1  0.64420958  0.57395550  0.94624271  1
  H+  H338  1  0.90933257  0.83075753  0.89212453  1
  H+  H339  1  0.25768928  0.55743617  0.10367307  1
  H+  H340  1  0.17139008  0.09963399  0.89442333  1
  H+  H341  1  0.41580565  0.34253389  0.62004045  1
  H+  H342  1  0.55917156  0.18552355  0.44620114  1
  H+  H343  1  0.32633163  0.66501670  0.05433047  1
  H+  H344  1  0.67542572  0.32516573  0.93916791  1
  H+  H345  1  0.82919493  0.17269392  0.76459238  1
  H+  H346  1  0.67516441  0.08694836  0.94009502  1
  H+  H347  1  0.05479610  0.15745762  0.41129364  1
  H+  H348  1  0.16208924  0.81547563  0.56765058  1
  H+  H349  1  0.38779359  0.89599979  0.48145188  1
  H+  H350  1  0.96900904  0.35219617  0.18230949  1
  H+  H351  1  0.66176965  0.33929193  0.59911154  1
  H+  H352  1  0.06325135  0.40908572  0.43244769  1
  H+  H353  1  0.09218384  0.91688075  0.74006978  1
  H+  H354  1  0.32420320  0.59442476  0.54755945  1
  H+  H355  1  0.38752421  0.36547301  0.51620872  1
  H+  H356  1  0.66945704  0.58350982  0.56969896  1
  H+  H357  1  0.90650607  0.32439316  0.27082122  1
  H+  H358  1  0.44290085  0.10747023  0.52523245  1
  H+  H359  1  0.14696628  0.32864485  0.28223472  1
  H+  H360  1  0.83621676  0.41634669  0.77376867  1
  H+  H361  1  0.81822130  0.67088360  0.05546283  1
  H+  H362  1  0.92127414  0.59662048  0.59455639  1
  H+  H363  1  0.08281107  0.66840632  0.06652820  1
  H+  H364  1  0.67380645  0.84808155  0.89046772  1
  H+  H365  1  0.87344665  0.94267044  0.44164809  1
  H+  H366  1  0.92573824  0.84361829  0.57781239  1
  H+  H367  1  0.82983662  0.68719739  0.44773982  1
  H+  H368  1  0.92518927  0.09568788  0.89534445  1
  H+  H369  1  0.27014771  0.15701244  0.49681656  1
  H+  H370  1  0.08361660  0.17616958  0.73715428  1
  H+  H371  1  0.32522365  0.39724900  0.43762775  1
  H+  H372  1  0.02778950  0.05698297  0.09452361  1
  H+  H373  1  0.78212584  0.93975484  0.10900656  1
  H+  H374  1  0.82659438  0.41413076  0.43318376  1
  H+  H375  1  0.57236971  0.88999290  0.43230890  1
  H+  H376  1  0.88630803  0.98962919  0.34442674  1
  H+  H377  1  0.33738571  0.90671667  0.72737132  1
  H+  H378  1  0.42209150  0.58903977  0.92977079  1
  H+  H379  1  0.62839390  0.81169924  0.25170508  1
  H+  H380  1  0.25333728  0.34602802  0.07971192  1
  H+  H381  1  0.42705294  0.08827238  0.24279646  1
  H+  H382  1  0.13123699  0.56127159  0.55979936  1
  H+  H383  1  0.60490601  0.17763690  0.76673913  1
  O2-  O384  1  -0.00080539  0.01092412  0.12520200  1
  O2-  O385  1  0.07644874  0.17555845  0.48642141  1
  O2-  O386  1  0.07881609  0.18130667  0.81147828  1
  O2-  O387  1  0.08512584  0.42405138  0.15909802  1
  O2-  O388  1  0.06586945  0.41047934  0.47855480  1
  O2-  O389  1  0.07643937  0.40719858  0.81232763  1
  O2-  O390  1  0.07925843  0.67338827  0.15402463  1
  O2-  O391  1  0.06710848  0.65439517  0.47747074  1
  O2-  O392  1  0.07222048  0.64579077  0.80575803  1
  O2-  O393  1  0.11336058  0.96019078  0.14141547  1
  O2-  O394  1  0.08906570  0.91731952  0.49164989  1
  O2-  O395  1  0.07934060  0.91652397  0.82645088  1
  O2-  O396  1  0.33079708  0.15932622  0.16374038  1
  O2-  O397  1  0.33057967  0.18011513  0.48370043  1
  O2-  O398  1  0.32358484  0.16711680  0.80915322  1
  O2-  O399  1  0.31922635  0.40313456  0.15682434  1
  O2-  O400  1  0.32792055  0.40142251  0.48191061  1
  O2-  O401  1  0.32618496  0.42434852  0.81855365  1
  O2-  O402  1  0.29366213  0.60969604  0.12860875  1
  O2-  O403  1  0.30983252  0.63232464  0.56987818  1
  O2-  O404  1  0.46419746  0.72552572  0.79759310  1
  O2-  O405  1  0.33351591  0.91539699  0.17121372  1
  O2-  O406  1  0.41139806  0.95267660  0.46225286  1
  O2-  O407  1  0.33650729  0.90377901  0.80493237  1
  O2-  O408  1  0.58556997  0.17866731  0.14905596  1
  O2-  O409  1  0.55881401  0.18235990  0.49164766  1
  O2-  O410  1  0.60161648  0.18137174  0.81187079  1
  O2-  O411  1  0.57311068  0.40741448  0.15209192  1
  O2-  O412  1  0.58574787  0.42425709  0.48071629  1
  O2-  O413  1  0.59057388  0.40900774  0.80580304  1
  O2-  O414  1  0.57808837  0.66667066  0.15002782  1
  O2-  O415  1  0.51210609  0.58878228  0.48129142  1
  O2-  O416  1  0.56601001  0.59094467  0.80615853  1
  O2-  O417  1  0.58281922  0.90712815  0.14196857  1
  O2-  O418  1  0.55750316  0.83348562  0.44882987  1
  O2-  O419  1  0.59800956  0.93792135  0.80876145  1
  O2-  O420  1  0.84321624  0.15546216  0.15034819  1
  O2-  O421  1  0.84776530  0.17671869  0.48690721  1
  O2-  O422  1  0.83138423  0.17325376  0.81042699  1
  O2-  O423  1  0.79785902  0.41208082  0.10492666  1
  O2-  O424  1  0.82739149  0.41500316  0.47862156  1
  O2-  O425  1  0.83137441  0.41855730  0.81774163  1
  O2-  O426  1  0.82154929  0.66919034  0.13927634  1
  O2-  O427  1  0.83403414  0.67961609  0.49189512  1
  O2-  O428  1  0.83668163  0.66506056  0.80470004  1
  O2-  O429  1  0.83190920  0.90598999  0.22777883  1
  O2-  O430  1  0.85660177  0.93585859  0.48528206  1
  O2-  O431  1  0.82880231  0.94292405  0.81070586  1
  O2-  O432  1  0.24038728  0.11668785  0.18151474  1
  O2-  O433  1  0.16045479  0.09993098  0.52143722  1
  O2-  O434  1  0.15965805  0.08973381  0.85008601  1
  O2-  O435  1  0.15841237  0.34502227  0.20627657  1
  O2-  O436  1  0.16177602  0.33880005  0.52351636  1
  O2-  O437  1  0.14502200  0.32838916  0.85639872  1
  O2-  O438  1  0.16048473  0.58938042  0.19811885  1
  O2-  O439  1  0.12400697  0.55850815  0.51344441  1
  O2-  O440  1  0.13597008  0.55526741  0.86106971  1
  O2-  O441  1  0.15872564  0.84210875  0.18738630  1
  O2-  O442  1  0.15736446  0.80531982  0.52262983  1
  O2-  O443  1  0.16797437  0.81994646  0.79384524  1
  O2-  O444  1  0.42416439  0.08510481  0.19674892  1
  O2-  O445  1  0.38094721  0.06537221  0.52627083  1
  O2-  O446  1  0.38845695  0.06364814  0.84746006  1
  O2-  O447  1  0.40807660  0.32608024  0.19468142  1
  O2-  O448  1  0.42029409  0.33877556  0.53409021  1
  O2-  O449  1  0.42267010  0.33846146  0.79434574  1
  O2-  O450  1  0.41097293  0.57491382  0.18721174  1
  O2-  O451  1  0.47597226  0.63303209  0.50280496  1
  O2-  O452  1  0.42516595  0.57454115  0.86575383  1
  O2-  O453  1  0.41227636  0.82168268  0.18243778  1
  O2-  O454  1  0.40234668  0.79623859  0.51993218  1
  O2-  O455  1  0.43655568  0.84604413  0.85155413  1
  O2-  O456  1  0.67382118  0.08074433  0.17978980  1
  O2-  O457  1  0.57042744  0.04060871  0.50446697  1
  O2-  O458  1  0.67446381  0.09304109  0.86279133  1
  O2-  O459  1  0.65043682  0.32767981  0.18494768  1
  O2-  O460  1  0.66274727  0.33849611  0.52590244  1
  O2-  O461  1  0.66186449  0.33279965  0.85413727  1
  O2-  O462  1  0.66054488  0.57921079  0.18813621  1
  O2-  O463  1  0.67728822  0.58824940  0.52516854  1
  O2-  O464  1  0.68315895  0.55093302  0.86855470  1
  O2-  O465  1  0.64868668  0.82282964  0.20942485  1
  O2-  O466  1  0.68103351  0.85154729  0.52023897  1
  O2-  O467  1  0.68043671  0.85816534  0.84566173  1
  O2-  O468  1  0.91451095  0.07031762  0.19954619  1
  O2-  O469  1  0.92166211  0.09813859  0.53149251  1
  O2-  O470  1  0.92105688  0.09722009  0.84990786  1
  O2-  O471  1  0.91105801  0.31706338  0.19949770  1
  O2-  O472  1  0.91456609  0.32708084  0.52236493  1
  O2-  O473  1  0.91626929  0.32992851  0.86158330  1
  O2-  O474  1  0.87348576  0.54768313  0.17721358  1
  O2-  O475  1  0.90505923  0.58212769  0.51860643  1
  O2-  O476  1  0.91331181  0.57969127  0.85009295  1
  O2-  O477  1  0.90809178  0.82484633  0.19510461  1
  O2-  O478  1  0.92861463  0.84305313  0.53218064  1
  O2-  O479  1  0.91531882  0.83574247  0.84639543  1
  O2-  O480  1  0.21056055  0.08861884  0.29634425  1
  O2-  O481  1  0.16334040  0.08147838  0.64714595  1
  O2-  O482  1  0.20882047  0.14228171  0.96748575  1
  O2-  O483  1  0.13657084  0.31858787  0.32717418  1
  O2-  O484  1  0.15828263  0.33531628  0.64556667  1
  O2-  O485  1  0.13396065  0.34947545  0.97430356  1
  O2-  O486  1  0.16913985  0.58098186  0.31995896  1
  O2-  O487  1  0.15939973  0.57156617  0.62805228  1
  O2-  O488  1  0.17020364  0.59866141  0.98148003  1
  O2-  O489  1  0.16636401  0.82989676  0.31038727  1
  O2-  O490  1  0.16995546  0.83503765  0.64543902  1
  O2-  O491  1  0.06488495  0.81920004  0.92255819  1
  O2-  O492  1  0.42267395  0.08424977  0.31766710  1
  O2-  O493  1  0.42832246  0.08955491  0.70661342  1
  O2-  O494  1  0.42969042  0.08343356  0.97724820  1
  O2-  O495  1  0.43600272  0.33869537  0.31703170  1
  O2-  O496  1  0.40020969  0.33080506  0.66372767  1
  O2-  O497  1  0.38062262  0.31836691  0.99284705  1
  O2-  O498  1  0.40415855  0.56421130  0.31033930  1
  O2-  O499  1  0.46072285  0.61911230  0.62888549  1
  O2-  O500  1  0.42218593  0.60209785  0.97700353  1
  O2-  O501  1  0.42757789  0.82738783  0.30848529  1
  O2-  O502  1  0.43889015  0.85304004  0.63793736  1
  O2-  O503  1  0.42799623  0.84423393  0.97585821  1
  O2-  O504  1  0.66796717  0.12639011  0.33775529  1
  O2-  O505  1  0.67473091  0.09356743  0.65268049  1
  O2-  O506  1  0.67479827  0.08114122  0.98561479  1
  O2-  O507  1  0.66890853  0.34442710  0.30019624  1
  O2-  O508  1  0.66781651  0.34277669  0.64524763  1
  O2-  O509  1  0.68748204  0.31121744  0.98004285  1
  O2-  O510  1  0.67175782  0.59274542  0.31224498  1
  O2-  O511  1  0.67178857  0.58433216  0.65310245  1
  O2-  O512  1  0.64664823  0.58502122  0.99018798  1
  O2-  O513  1  0.57113045  0.78286670  0.33835001  1
  O2-  O514  1  0.68071905  0.85029273  0.64874463  1
  O2-  O515  1  0.66870697  0.83110374  0.96951617  1
  O2-  O516  1  0.88172078  0.07777312  0.31711155  1
  O2-  O517  1  0.91505341  0.08903237  0.65319211  1
  O2-  O518  1  0.93168761  0.08236124  0.97272443  1
  O2-  O519  1  0.90652204  0.33336986  0.31690286  1
  O2-  O520  1  0.91615356  0.33108286  0.64515917  1
  O2-  O521  1  0.96726135  0.30379309  0.98083874  1
  O2-  O522  1  0.93695395  0.57491224  0.29112250  1
  O2-  O523  1  0.92608369  0.59768279  0.64024423  1
  O2-  O524  1  0.92322299  0.60022472  0.97874435  1
  O2-  O525  1  0.94037407  0.84155920  0.31746607  1
  O2-  O526  1  0.92210074  0.84290448  0.65526569  1
  O2-  O527  1  0.90099226  0.81789606  0.96751019  1
  O2-  O528  1  0.08155778  0.13667885  0.03262667  1
  O2-  O529  1  0.04325013  0.14389217  0.36685167  1
  O2-  O530  1  0.08204761  0.17230681  0.69105387  1
  O2-  O531  1  0.17072499  0.47928906  0.05335637  1
  O2-  O532  1  0.06498670  0.41567220  0.35869419  1
  O2-  O533  1  0.08082908  0.42029552  0.69019576  1
  O2-  O534  1  0.08583479  0.66923697  0.02192155  1
  O2-  O535  1  0.09036091  0.66939574  0.35561212  1
  O2-  O536  1  0.09119220  0.66419076  0.68216345  1
  O2-  O537  1  0.08686632  0.92310776  0.01891836  1
  O2-  O538  1  0.10615805  0.92638891  0.35869375  1
  O2-  O539  1  0.08851740  0.91616426  0.69511795  1
  O2-  O540  1  0.34312534  0.15681879  0.03505039  1
  O2-  O541  1  0.35129520  0.17398955  0.36374350  1
  O2-  O542  1  0.32865033  0.16125838  0.68747437  1
  O2-  O543  1  0.22880530  0.30781416  0.04434057  1
  O2-  O544  1  0.32711225  0.40440421  0.34419534  1
  O2-  O545  1  0.31767823  0.41820136  0.70089215  1
  O2-  O546  1  0.33332172  0.67379904  0.00963322  1
  O2-  O547  1  0.33920103  0.65446190  0.35386155  1
  O2-  O548  1  0.38817467  0.70027744  0.69350951  1
  O2-  O549  1  0.35013267  0.92626331  0.02919552  1
  O2-  O550  1  0.33918310  0.91281933  0.30442236  1
  O2-  O551  1  0.33844915  0.91622752  0.68218395  1
  O2-  O552  1  0.58860724  0.16164465  0.03101401  1
  O2-  O553  1  0.57348881  0.18780425  0.36828988  1
  O2-  O554  1  0.59590459  0.16807564  0.68910295  1
  O2-  O555  1  0.54859638  0.41564877  0.03791886  1
  O2-  O556  1  0.60056921  0.42829177  0.35338973  1
  O2-  O557  1  0.61121869  0.43394241  0.69136882  1
  O2-  O558  1  0.57345303  0.67637888  0.02048174  1
  O2-  O559  1  0.55846898  0.63158983  0.36446485  1
  O2-  O560  1  0.60247758  0.67722536  0.68497564  1
  O2-  O561  1  0.59194506  0.91489606  0.01746053  1
  O2-  O562  1  0.58537125  0.95162293  0.35331799  1
  O2-  O563  1  0.60163934  0.93629867  0.68749411  1
  O2-  O564  1  0.84221856  0.14611672  0.02777146  1
  O2-  O565  1  0.83112954  0.18200243  0.37019588  1
  O2-  O566  1  0.82770827  0.17489787  0.68769443  1
  O2-  O567  1  0.75273688  0.44052741  0.06738356  1
  O2-  O568  1  0.82661140  0.41332625  0.35145517  1
  O2-  O569  1  0.84094871  0.42129381  0.64040138  1
  O2-  O570  1  0.81197593  0.66613707  0.01076505  1
  O2-  O571  1  0.83307549  0.68938382  0.36366939  1
  O2-  O572  1  0.83796123  0.67402788  0.68314758  1
  O2-  O573  1  0.83814829  0.90990703  -0.00747820  1
  O2-  O574  1  0.91761616  0.96460863  0.36672964  1
  O2-  O575  1  0.83986878  0.92750669  0.69348949  1
