# generated using pymatgen
data_H2O
_symmetry_space_group_name_H-M   'P 1'
_cell_length_a   17.98520299
_cell_length_b   17.98171814
_cell_length_c   22.01156268
_cell_angle_alpha   90.02052533
_cell_angle_beta   89.94734733
_cell_angle_gamma   120.01597857
_symmetry_Int_Tables_number   1
_chemical_formula_structural   H2O
_chemical_formula_sum   'H384 O192'
_cell_volume   6163.93289991
_cell_formula_units_Z   192
loop_
 _symmetry_equiv_pos_site_id
 _symmetry_equiv_pos_as_xyz
  1  'x, y, z'
loop_
 _atom_type_symbol
 _atom_type_oxidation_number
  H+  1.0
  O2-  -2.0
loop_
 _atom_site_type_symbol
 _atom_site_label
 _atom_site_symmetry_multiplicity
 _atom_site_fract_x
 _atom_site_fract_y
 _atom_site_fract_z
 _atom_site_occupancy
  H+  H0  1  0.37883759  0.35184589  0.66564517  1
  H+  H1  1  0.13734315  0.68639732  0.85036153  1
  H+  H2  1  0.64154470  0.87757661  0.15592069  1
  H+  H3  1  0.36474297  0.45663928  0.36151928  1
  H+  H4  1  0.48217647  0.86478969  0.16609092  1
  H+  H5  1  0.76996632  0.65796357  0.49134823  1
  H+  H6  1  0.13830457  0.11320794  0.16625151  1
  H+  H7  1  0.10389699  0.22222598  0.15546797  1
  H+  H8  1  0.12797561  0.89801129  0.34508020  1
  H+  H9  1  0.62216319  0.65094755  0.15547667  1
  H+  H10  1  0.11776662  0.63299656  0.50186155  1
  H+  H11  1  0.52316324  0.90683429  0.34424173  1
  H+  H12  1  0.48907562  0.12758478  0.66239665  1
  H+  H13  1  0.88932847  1.02783723  0.68095084  1
  H+  H14  1  0.27196879  0.88042915  0.16528395  1
  H+  H15  1  0.27028328  0.88092030  0.83238667  1
  H+  H16  1  0.60870397  0.97886574  0.14753706  1
  H+  H17  1  0.14515985  0.37128908  0.99535398  1
  H+  H18  1  0.63235510  0.37532692  0.34286288  1
  H+  H19  1  0.51308412  0.65425353  0.82178751  1
  H+  H20  1  0.41029432  0.31990603  0.57662388  1
  H+  H21  1  0.89101627  0.57926022  0.53045690  1
  H+  H22  1  0.11936584  -0.01959080  0.50293271  1
  H+  H23  1  0.70913571  0.56123892  0.52180321  1
  H+  H24  1  0.98934037  0.63890303  0.85416103  1
  H+  H25  1  0.68857622  0.89724915  0.85323654  1
  H+  H26  1  0.08248023  0.90462982  0.77040390  1
  H+  H27  1  0.88015291  0.13332660  0.98960970  1
  H+  H28  1  0.64966934  0.61063693  0.66368229  1
  H+  H29  1  0.36575798  0.72200842  1.00845761  1
  H+  H30  1  0.88322375  0.12270913  0.49318604  1
  H+  H31  1  0.42929909  0.57787019  0.58061005  1
  H+  H32  1  0.88909897  0.77518910  -0.00971103  1
  H+  H33  1  0.35121389  0.86470246  0.49438056  1
  H+  H34  1  0.68498916  0.11055970  0.83777752  1
  H+  H35  1  0.58672282  0.00958824  0.68595650  1
  H+  H36  1  0.87220121  0.65313393  0.34083530  1
  H+  H37  1  0.23882772  0.62123231  0.17604330  1
  H+  H38  1  0.98457937  0.88190023  0.51420856  1
  H+  H39  1  0.60644429  0.74010146  0.82536034  1
  H+  H40  1  0.39974390  0.12799841  0.66278527  1
  H+  H41  1  0.71567893  0.87720639  0.35443141  1
  H+  H42  1  0.64277757  0.78233324  0.15354055  1
  H+  H43  1  0.94858832  0.35285203  0.31488821  1
  H+  H44  1  0.73974450  0.87849914  0.15118903  1
  H+  H45  1  0.73299618  0.12244468  0.66533743  1
  H+  H46  1  0.70091061  0.11969214  0.16088690  1
  H+  H47  1  0.26482465  0.60956470  0.34828738  1
  H+  H48  1  0.86193397  0.88796816  0.00004197  1
  H+  H49  1  0.90817177  0.07459851  0.22762321  1
  H+  H50  1  0.36545393  0.13013962  0.17380583  1
  H+  H51  1  0.48626214  0.60786436  0.64395477  1
  H+  H52  1  0.86175647  0.76517561  0.65878252  1
  H+  H53  1  0.96988245  0.35960119  0.16612932  1
  H+  H54  1  0.10754779  0.88327713  0.15266929  1
  H+  H55  1  0.60999722  0.46990913  0.18613098  1
  H+  H56  1  0.36942420  0.47415116  0.66150601  1
  H+  H57  1  0.33671463  0.19013316  -0.02407184  1
  H+  H58  1  0.65495467  0.52404941  0.49840389  1
  H+  H59  1  0.78579401  0.37959723  0.50611531  1
  H+  H60  1  0.93532611  0.32182012  0.59267603  1
  H+  H61  1  0.22776742  0.11354171  0.51396962  1
  H+  H62  1  0.87942076  0.61662085  0.99631702  1
  H+  H63  1  0.97529779  0.38190248  0.83990713  1
  H+  H64  1  0.85412292  0.64903752  0.14802905  1
  H+  H65  1  0.01581650  0.64280891  0.67719198  1
  H+  H66  1  1.03025796  0.38443262  0.67034122  1
  H+  H67  1  0.22546557  0.61256119  1.00034902  1
  H+  H68  1  0.21893651  0.86192607  -0.00576722  1
  H+  H69  1  0.87686533  0.45821912  0.52000671  1
  H+  H70  1  0.35704164  0.83086937  0.65190206  1
  H+  H71  1  0.63775841  0.36480602  0.50594179  1
  H+  H72  1  0.42670428  0.10459962  0.56444389  1
  H+  H73  1  0.12504757  0.64356874  0.66779103  1
  H+  H74  1  0.22278154  0.85209152  0.50921406  1
  H+  H75  1  0.36741705  0.14415452  0.49606203  1
  H+  H76  1  0.10484295  0.86096360  0.82955675  1
  H+  H77  1  0.61698113  0.36337789  0.65218552  1
  H+  H78  1  0.11384724  0.39040070  0.15882701  1
  H+  H79  1  0.57684465  0.41029198  0.72034306  1
  H+  H80  1  0.14916144  0.38045288  0.41377757  1
  H+  H81  1  0.50875800  0.40661834  0.95308940  1
  H+  H82  1  0.13928882  0.11941507  0.33917419  1
  H+  H83  1  0.50663068  0.36860690  0.50219224  1
  H+  H84  1  0.58582414  0.47553016  0.80595878  1
  H+  H85  1  0.37903987  0.52904621  0.83539262  1
  H+  H86  1  0.88815860  0.87608296  0.16468401  1
  H+  H87  1  0.49839102  0.91891461  0.68366280  1
  H+  H88  1  0.27793317  0.89187074  0.34162489  1
  H+  H89  1  0.82978808  0.12471059  0.17724982  1
  H+  H90  1  0.14585268  0.75283465  0.33052127  1
  H+  H91  1  0.36510021  0.38622160  0.16287635  1
  H+  H92  1  0.48501952  0.13486951  0.50543728  1
  H+  H93  1  0.39498573  0.86031410  1.00807938  1
  H+  H94  1  0.38454659  0.36244118  0.52258838  1
  H+  H95  1  0.53520274  0.65354308  0.14882015  1
  H+  H96  1  0.88037206  0.35982206  0.16295329  1
  H+  H97  1  0.36153124  1.00728086  0.68157358  1
  H+  H98  1  0.83927924  0.46396709  0.15532661  1
  H+  H99  1  0.64656316  0.78146965  0.99052145  1
  H+  H100  1  0.64002148  0.23736068  0.99583362  1
  H+  H101  1  0.72781017  0.12311139  0.50598061  1
  H+  H102  1  0.62596162  0.64057516  -0.00936287  1
  H+  H103  1  0.87597222  0.91392986  0.50061278  1
  H+  H104  1  0.96350678  0.11133761  0.16734555  1
  H+  H105  1  0.90872152  0.26942148  -0.00872138  1
  H+  H106  1  0.44773524  0.58399134  0.47600818  1
  H+  H107  1  0.12747925  0.76420751  0.16379954  1
  H+  H108  1  0.28235099  0.99545205  0.71739952  1
  H+  H109  1  0.47423497  0.11675924  0.33624898  1
  H+  H110  1  0.12736987  0.46589555  0.48660963  1
  H+  H111  1  0.11095117  0.97305178  0.68644005  1
  H+  H112  1  0.48382349  0.61352202  -0.01082930  1
  H+  H113  1  0.22646263  0.63577909  0.85571165  1
  H+  H114  1  0.47813518  0.87779488  0.84791823  1
  H+  H115  1  0.62930594  0.78760327  0.34845757  1
  H+  H116  1  0.58138348  0.44303833  0.39142181  1
  H+  H117  1  0.36512653  0.71691077  0.49456178  1
  H+  H118  1  0.64869227  0.52326665  0.65673466  1
  H+  H119  1  0.37777585  0.62474772  0.64466295  1
  H+  H120  1  0.89991599  0.26630482  0.65441790  1
  H+  H121  1  0.64657298  0.09278264  0.27062508  1
  H+  H122  1  0.21729368  0.12921864  0.95555222  1
  H+  H123  1  0.95401066  0.60063714  0.15998215  1
  H+  H124  1  0.22842468  0.60506004  0.64686563  1
  H+  H125  1  0.88839521  0.80378569  0.50715799  1
  H+  H126  1  0.22773633  0.36120589  0.66601292  1
  H+  H127  1  0.86341773  0.22716080  0.48169399  1
  H+  H128  1  0.22672184  0.78426661  0.28955507  1
  H+  H129  1  0.36305692  -0.01544152  0.34607830  1
  H+  H130  1  0.37859329  0.61783819  0.84475871  1
  H+  H131  1  0.62479402  0.71757648  0.66305116  1
  H+  H132  1  0.13553048  0.52291391  0.99837436  1
  H+  H133  1  0.63796249  0.53947204  0.32240807  1
  H+  H134  1  0.88087786  0.10532145  0.32324438  1
  H+  H135  1  0.38748023  0.76260864  0.65458945  1
  H+  H136  1  0.62129230  0.90814830  0.49883351  1
  H+  H137  1  0.65522856  0.91396258  0.69808007  1
  H+  H138  1  0.10821304  0.88334210  0.68062404  1
  H+  H139  1  -0.08619770  0.88253064  0.32675176  1
  H+  H140  1  0.61759157  0.88290747  0.67922491  1
  H+  H141  1  0.76074583  0.36783497  0.16226034  1
  H+  H142  1  0.84485726  0.47375477  0.00601621  1
  H+  H143  1  0.62131664  0.14688887  0.49773165  1
  H+  H144  1  0.34635451  0.13561777  0.83379787  1
  H+  H145  1  0.64901710  0.01253222  0.99672343  1
  H+  H146  1  0.38419261  0.34860779  0.33671470  1
  H+  H147  1  0.58698751  0.87352759  0.80757176  1
  H+  H148  1  0.86865776  0.44477046  0.69882011  1
  H+  H149  1  0.13839572  0.02542526  0.16460960  1
  H+  H150  1  0.63278390  0.43012080  -0.01038423  1
  H+  H151  1  0.16588242  0.34188660  0.89979958  1
  H+  H152  1  0.90032960  0.86989832  0.84464827  1
  H+  H153  1  0.77846607  0.89512104  0.69319769  1
  H+  H154  1  0.77282700  0.64682241  0.99258833  1
  H+  H155  1  0.60115319  0.26669342  0.83202829  1
  H+  H156  1  0.97772291  0.11458581  0.67465971  1
  H+  H157  1  0.13657853  0.60976931  0.33572673  1
  H+  H158  1  0.68471708  0.34748370  0.38525026  1
  H+  H159  1  0.78746893  0.63321459  0.67671952  1
  H+  H160  1  0.81506324  0.13715697  0.83103446  1
  H+  H161  1  0.51278955  0.37568630  0.66390004  1
  H+  H162  1  0.60181827  0.39677464  0.81543931  1
  H+  H163  1  0.93299694  0.83848838  0.90412406  1
  H+  H164  1  0.85849575  0.98194101  0.14987290  1
  H+  H165  1  0.13776993  0.11155503  0.51460142  1
  H+  H166  1  0.34383642  0.22211258  0.82449999  1
  H+  H167  1  0.36662377  0.58251117  0.34291603  1
  H+  H168  1  0.84949628  0.39512954  0.84216345  1
  H+  H169  1  0.36843505  0.74846946  0.84690068  1
  H+  H170  1  0.60942128  0.13951265  0.34267191  1
  H+  H171  1  0.36532976  0.48096643  0.50965810  1
  H+  H172  1  0.13094344  0.86143718  -0.01102188  1
  H+  H173  1  0.77221844  0.88972782  -0.00115278  1
  H+  H174  1  0.13786622  0.10967363  0.67171987  1
  H+  H175  1  0.65640178  0.01310694  0.83800736  1
  H+  H176  1  0.32482205  0.69360010  0.78874200  1
  H+  H177  1  0.91269995  0.16638113  0.81956350  1
  H+  H178  1  0.62859797  0.03145885  0.32980020  1
  H+  H179  1  0.86123438  0.89202140  0.69068770  1
  H+  H180  1  0.11108811  0.63617643  0.00602948  1
  H+  H181  1  0.88118613  0.38522589  0.65406140  1
  H+  H182  1  0.89606588  0.28787693  0.83827947  1
  H+  H183  1  0.72821691  0.62724430  0.32406498  1
  H+  H184  1  0.36890944  0.48208086  0.00367652  1
  H+  H185  1  0.60136234  0.61152332  0.82295404  1
  H+  H186  1  0.39583467  0.88110413  0.32465166  1
  H+  H187  1  0.24616758  0.12840251  0.34827131  1
  H+  H188  1  0.65393803  0.52132413  -0.04426541  1
  H+  H189  1  0.52349135  0.39214422  0.33454639  1
  H+  H190  1  0.39501997  1.01749438  0.18332756  1
  H+  H191  1  0.35041247  0.23450028  0.96397397  1
  H+  H192  1  0.75645298  0.80468912  0.63243186  1
  H+  H193  1  0.11704674  0.22399224  0.68743860  1
  H+  H194  1  0.90067646  0.35682247  0.50373909  1
  H+  H195  1  0.89504431  0.53136636  0.32130457  1
  H+  H196  1  0.11560518  0.49709737  0.83205480  1
  H+  H197  1  0.54618804  0.67108299  0.50922219  1
  H+  H198  1  0.53798347  0.88179843  1.00653637  1
  H+  H199  1  0.32396013  0.90288308  0.43892203  1
  H+  H200  1  0.13146650  0.73756736  0.67250846  1
  H+  H201  1  0.98617621  0.11160452  0.98121328  1
  H+  H202  1  0.33746495  0.66671217  0.10033386  1
  H+  H203  1  0.37784444  0.26062725  0.67038661  1
  H+  H204  1  0.87395154  0.73367882  0.82500753  1
  H+  H205  1  0.10841596  0.72483068  1.00782236  1
  H+  H206  1  -0.02063223  0.86592389  -0.00756627  1
  H+  H207  1  0.60784930  0.37994167  0.18870604  1
  H+  H208  1  0.11862425  0.22527198  0.50181845  1
  H+  H209  1  0.11462868  0.23424958  1.00502359  1
  H+  H210  1  0.06486145  0.64114666  0.09007698  1
  H+  H211  1  0.11327480  0.98125264  -0.00470632  1
  H+  H212  1  0.72473766  0.39554894  0.85704407  1
  H+  H213  1  -0.01144506  0.35309273  0.49529093  1
  H+  H214  1  0.14770692  0.61698727  0.17484654  1
  H+  H215  1  0.89900247  0.02144224  0.97421177  1
  H+  H216  1  0.87275003  0.64576785  0.82723301  1
  H+  H217  1  0.12897338  0.08410174  0.92132607  1
  H+  H218  1  0.03258946  0.55586489  0.12685972  1
  H+  H219  1  0.37121971  0.73134654  0.15826194  1
  H+  H220  1  0.01029315  0.87143177  0.83708548  1
  H+  H221  1  0.23415097  0.35785795  0.52376831  1
  H+  H222  1  0.07527648  0.37799260  0.34365452  1
  H+  H223  1  0.03081396  0.38518003  0.00260419  1
  H+  H224  1  0.45653480  0.35817009  0.81583751  1
  H+  H225  1  0.39175150  0.86276638  0.16968367  1
  H+  H226  1  1.02859455  0.63737147  0.36099174  1
  H+  H227  1  0.22780743  0.60657197  0.50261341  1
  H+  H228  1  0.83886375  0.21662818  0.17679749  1
  H+  H229  1  0.48005620  0.86389106  0.50527929  1
  H+  H230  1  0.22456338  0.88042869  0.66330735  1
  H+  H231  1  0.63103303  0.27469142  0.65593754  1
  H+  H232  1  0.60517960  0.22712248  0.34713666  1
  H+  H233  1  0.14331208  0.09898841  0.82577284  1
  H+  H234  1  0.38141412  0.26727539  0.17689233  1
  H+  H235  1  0.79456012  0.13368336  0.00416161  1
  H+  H236  1  0.14403285  0.02960464  0.33974607  1
  H+  H237  1  0.61803231  0.19133430  0.83819556  1
  H+  H238  1  0.66758209  0.60059445  0.23045767  1
  H+  H239  1  0.35789678  0.22843849  0.49790383  1
  H+  H240  1  0.46918267  0.35611049  0.19003090  1
  H+  H241  1  0.86101763  0.48835767  0.84146774  1
  H+  H242  1  0.36283279  0.62443808  0.49633531  1
  H+  H243  1  0.35822066  0.22401029  0.34737241  1
  H+  H244  1  0.38684608  0.02916836  0.84425090  1
  H+  H245  1  0.85852308  0.39144284  0.31155936  1
  H+  H246  1  0.58860496  0.17242376  0.43672970  1
  H+  H247  1  0.13593994  0.85914732  0.51170762  1
  H+  H248  1  0.64376323  0.24209607  0.19608271  1
  H+  H249  1  0.34304638  0.63763639  0.70635460  1
  H+  H250  1  0.23274400  0.36703433  0.16650743  1
  H+  H251  1  0.63986620  0.27590065  0.50523292  1
  H+  H252  1  0.97432100  0.12521031  0.50233337  1
  H+  H253  1  0.35337808  0.39125344  0.81753262  1
  H+  H254  1  0.39903509  1.09952655  0.00097999  1
  H+  H255  1  0.13846564  0.36124841  0.66958976  1
  H+  H256  1  0.51551589  0.63295516  0.35000799  1
  H+  H257  1  0.99019471  0.60640226  0.52605790  1
  H+  H258  1  0.83389573  0.92378302  0.08716664  1
  H+  H259  1  0.63017906  0.12538786  1.00077136  1
  H+  H260  1  0.27018216  0.12826442  0.67859010  1
  H+  H261  1  0.84351045  0.91772198  0.41346773  1
  H+  H262  1  0.34361175  0.41847810  0.06028073  1
  H+  H263  1  0.39532162  0.62569519  0.16816181  1
  H+  H264  1  0.27753684  0.36991942  0.37558900  1
  H+  H265  1  0.24699741  0.07324118  0.03307491  1
  H+  H266  1  0.60999316  0.64851081  0.34443859  1
  H+  H267  1  0.37099219  0.47827857  0.16016992  1
  H+  H268  1  0.38374270  0.11469462  0.33507612  1
  H+  H269  1  0.65211123  0.40622947  0.89862207  1
  H+  H270  1  0.10287238  0.22405252  0.34884989  1
  H+  H271  1  0.74033268  0.89324508  0.50899859  1
  H+  H272  1  0.11425614  0.14545937  0.00305982  1
  H+  H273  1  0.82438455  0.16522317  0.42290253  1
  H+  H274  1  0.36358910  0.97517026  0.00812816  1
  H+  H275  1  0.86320411  0.67747330  0.49306213  1
  H+  H276  1  0.11832321  0.48038947  0.16385970  1
  H+  H277  1  0.72282429  0.62334746  0.16901846  1
  H+  H278  1  0.78438340  0.87034039  0.84589410  1
  H+  H279  1  0.77945666  0.40781703  0.32136529  1
  H+  H280  1  0.88425853  0.01830347  0.32609289  1
  H+  H281  1  0.73394696  0.35342214  -0.00227896  1
  H+  H282  1  0.47022349  0.12468337  0.84055760  1
  H+  H283  1  0.16347436  0.57128030  0.55914989  1
  H+  H284  1  0.87235829  0.00264097  0.49055539  1
  H+  H285  1  0.85473940  0.21671158  0.32697750  1
  H+  H286  1  0.86704648  0.13357214  0.67538001  1
  H+  H287  1  0.57890439  0.66882871  0.72396097  1
  H+  H288  1  0.32492414  0.15739827  0.74086213  1
  H+  H289  1  0.36662636  0.63348896  0.00688172  1
  H+  H290  1  0.08201984  0.16129299  0.74553579  1
  H+  H291  1  0.58965908  0.68953953  0.44432748  1
  H+  H292  1  0.16173745  0.59773003  0.91106514  1
  H+  H293  1  0.76788786  0.12911455  0.32992891  1
  H+  H294  1  0.27348545  0.12855038  0.16870718  1
  H+  H295  1  0.62882640  0.15602143  0.67737400  1
  H+  H296  1  0.92065944  0.59574412  0.90749380  1
  H+  H297  1  0.07370754  0.16459906  0.09647867  1
  H+  H298  1  0.70675501  0.63361185  0.91984457  1
  H+  H299  1  0.29382824  0.97744672  0.04477514  1
  H+  H300  1  0.54018515  0.12811721  0.00218775  1
  H+  H301  1  0.26592056  0.39355231  0.82006310  1
  H+  H302  1  0.58564866  0.93579665  0.44039195  1
  H+  H303  1  0.33980683  0.40750319  0.45855771  1
  H+  H304  1  0.65850821  0.33306251  0.58963471  1
  H+  H305  1  0.67188724  0.83948243  0.91579101  1
  H+  H306  1  0.12859122  0.27715871  0.84487071  1
  H+  H307  1  0.60100053  0.38124356  0.07731386  1
  H+  H308  1  0.11442601  0.72273045  0.50687702  1
  H+  H309  1  0.12754382  0.37858070  0.50300800  1
  H+  H310  1  0.42709508  0.08510964  0.93523601  1
  H+  H311  1  0.93603643  0.58779706  0.62425678  1
  H+  H312  1  0.68475479  0.07074980  0.93706509  1
  H+  H313  1  0.65114838  0.80454802  0.50933682  1
  H+  H314  1  0.82674081  0.67717480  0.05701192  1
  H+  H315  1  0.42994240  0.85190402  0.26686877  1
  H+  H316  1  0.32565833  0.64038388  0.40793343  1
  H+  H317  1  0.63044888  0.87840943  0.00255925  1
  H+  H318  1  0.41363854  0.34589951  0.88054054  1
  H+  H319  1  0.33059925  0.91893981  0.10732689  1
  H+  H320  1  0.63795495  0.03586026  0.51234901  1
  H+  H321  1  0.84478641  0.17480128  0.73123998  1
  H+  H322  1  0.84045021  0.91274603  0.78642502  1
  H+  H323  1  0.38814315  0.87710580  0.84821301  1
  H+  H324  1  0.66493254  0.31859507  0.93819902  1
  H+  H325  1  0.83832519  0.68998028  0.39344344  1
  H+  H326  1  0.08638177  0.16647017  0.44151176  1
  H+  H327  1  0.69615876  0.83392203  0.59881806  1
  H+  H328  1  0.32801606  0.16787297  0.41297931  1
  H+  H329  1  0.08457370  0.42575371  0.73211829  1
  H+  H330  1  0.08857840  0.92525199  0.05766666  1
  H+  H331  1  0.67282997  0.31393947  0.24531400  1
  H+  H332  1  0.89234758  0.83384178  0.60322595  1
  H+  H333  1  0.33594497  0.42585341  0.72629743  1
  H+  H334  1  0.96635499  0.09856010  0.88178133  1
  H+  H335  1  0.11678888  0.40859202  0.82936557  1
  H+  H336  1  0.16828584  0.83717778  0.60236788  1
  H+  H337  1  0.40489478  0.31878549  0.27234686  1
  H+  H338  1  0.54317199  0.09989145  0.19212142  1
  H+  H339  1  0.93028062  0.33573881  0.93630415  1
  H+  H340  1  0.16602625  0.32299432  0.57911260  1
  H+  H341  1  0.13697830  0.52120783  0.65685023  1
  H+  H342  1  0.89302573  0.31807459  0.25543496  1
  H+  H343  1  0.23287324  0.36742408  0.99223970  1
  H+  H344  1  0.96438854  0.61827277  0.28697508  1
  H+  H345  1  0.59025408  0.91542766  0.09038113  1
  H+  H346  1  0.01790183  0.13252678  0.34019338  1
  H+  H347  1  0.08823057  0.92238285  0.44289127  1
  H+  H348  1  0.90893516  0.63843955  0.67672213  1
  H+  H349  1  0.85975206  0.74082527  0.15337536  1
  H+  H350  1  0.59415771  0.66495657  0.05267717  1
  H+  H351  1  0.61170704  0.90661230  0.35072267  1
  H+  H352  1  0.16909553  0.58789597  0.27288851  1
  H+  H353  1  0.92393634  0.85095706  0.22399354  1
  H+  H354  1  0.90683232  0.79164664  0.32077633  1
  H+  H355  1  0.03792867  0.89488878  0.33796649  1
  H+  H356  1  0.31299616  0.10897306  0.08865685  1
  H+  H357  1  0.55473275  0.37002047  0.07413827  1
  H+  H358  1  0.41632034  0.39397494  0.97458399  1
  H+  H359  1  0.15562765  0.81172608  0.22700044  1
  H+  H360  1  0.56130154  0.93497442  0.76806731  1
  H+  H361  1  0.32729190  0.92991056  0.77502740  1
  H+  H362  1  0.16465106  0.07907216  0.61089174  1
  H+  H363  1  0.15445932  0.80774449  0.90364129  1
  H+  H364  1  0.09324818  0.66815696  0.41705587  1
  H+  H365  1  0.02240551  0.89014793  0.15026089  1
  H+  H366  1  0.59638096  0.19269884  0.73351164  1
  H+  H367  1  0.17132693  0.33454046  0.22370638  1
  H+  H368  1  0.41866154  0.84124642  0.94254653  1
  H+  H369  1  0.59942602  0.55751626  0.88003348  1
  H+  H370  1  0.20095004  0.41857820  0.35311799  1
  H+  H371  1  0.42264445  0.07857586  0.24170421  1
  H+  H372  1  0.80040423  0.83836502  0.36701734  1
  H+  H373  1  0.08897859  0.47075998  0.32696753  1
  H+  H374  1  0.41953246  0.82792569  0.56323660  1
  H+  H375  1  0.44918949  0.62172701  0.22360287  1
  H+  H376  1  0.88680465  0.57879229  0.21430996  1
  H+  H377  1  0.96567992  0.60995965  0.99912446  1
  H+  H378  1  0.81678849  0.41059509  0.06447231  1
  H+  H379  1  0.38540026  0.53520539  0.28645887  1
  H+  H380  1  0.41809161  0.58445060  0.93310447  1
  H+  H381  1  0.08855042  0.42103826  0.06392979  1
  H+  H382  1  0.84719992  0.67457950  0.73658269  1
  H+  H383  1  0.67301388  0.09931436  0.60603681  1
  O2-  O384  1  0.07102967  0.16170972  0.14211917  1
  O2-  O385  1  0.08666570  0.16453931  0.48635251  1
  O2-  O386  1  0.06587729  0.15652309  0.82729003  1
  O2-  O387  1  0.08418371  0.42200205  0.14616308  1
  O2-  O388  1  0.10446486  0.40500345  0.47362805  1
  O2-  O389  1  0.08742050  0.43895761  0.81354678  1
  O2-  O390  1  0.05202309  0.61667971  0.13365729  1
  O2-  O391  1  0.08341933  0.66170874  0.49124874  1
  O2-  O392  1  0.10562960  0.71735202  0.83834568  1
  O2-  O393  1  0.08289469  0.91686161  0.13506165  1
  O2-  O394  1  0.08594053  0.91928801  0.48772551  1
  O2-  O395  1  0.08019071  0.89756203  0.81764694  1
  O2-  O396  1  0.33531228  0.15707950  0.15387873  1
  O2-  O397  1  0.32956259  0.16849693  0.48069106  1
  O2-  O398  1  0.31392690  0.15968587  0.81375493  1
  O2-  O399  1  0.33741177  0.41836546  0.14570959  1
  O2-  O400  1  0.33604344  0.41374581  0.50305270  1
  O2-  O401  1  0.32619014  0.42616544  0.80470348  1
  O2-  O402  1  0.33946064  0.66876651  0.14608625  1
  O2-  O403  1  0.33020852  0.65538178  0.48250801  1
  O2-  O404  1  0.33398685  0.68703897  0.83154670  1
  O2-  O405  1  0.33284148  0.91219298  0.15218814  1
  O2-  O406  1  0.31355354  0.88801143  0.48258706  1
  O2-  O407  1  0.33049275  0.91977223  0.81946249  1
  O2-  O408  1  0.60622329  0.12446225  0.20015403  1
  O2-  O409  1  0.59286419  0.17925782  0.48188784  1
  O2-  O410  1  0.58085692  0.20732694  0.81656258  1
  O2-  O411  1  0.57505930  0.40881453  0.19749996  1
  O2-  O412  1  0.56474269  0.39164737  0.48196860  1
  O2-  O413  1  0.56646026  0.41462514  0.79198394  1
  O2-  O414  1  0.59653261  0.68416506  0.13616650  1
  O2-  O415  1  0.60171017  0.70193112  0.48834076  1
  O2-  O416  1  0.57190548  0.68434131  0.80379103  1
  O2-  O417  1  0.58743861  0.91752886  0.13740776  1
  O2-  O418  1  0.58502843  0.93333135  0.48597008  1
  O2-  O419  1  0.57376642  0.91989094  0.81106167  1
  O2-  O420  1  0.79714831  0.15480430  0.18318091  1
  O2-  O421  1  0.82380110  0.16637960  0.46824452  1
  O2-  O422  1  0.86794220  0.18231566  0.81166211  1
  O2-  O423  1  0.81783848  0.40400239  0.14232005  1
  O2-  O424  1  0.84671521  0.40715522  0.49379222  1
  O2-  O425  1  0.81892076  0.42712707  0.83360254  1
  O2-  O426  1  0.82440043  0.68110169  0.13724738  1
  O2-  O427  1  0.82758671  0.69800399  0.47444294  1
  O2-  O428  1  0.84461605  0.67521971  0.80762453  1
  O2-  O429  1  0.82957079  0.92096471  0.13368076  1
  O2-  O430  1  0.84283762  0.93712658  0.47928724  1
  O2-  O431  1  0.84428224  0.90435585  0.83105958  1
  O2-  O432  1  0.17022936  0.08486442  0.18049746  1
  O2-  O433  1  0.16770252  0.08095114  0.53012218  1
  O2-  O434  1  0.09319668  0.07991945  0.85266313  1
  O2-  O435  1  0.17051819  0.33667254  0.17953739  1
  O2-  O436  1  0.17080282  0.32434761  0.53360357  1
  O2-  O437  1  0.16140889  0.33927879  0.85432933  1
  O2-  O438  1  0.17889039  0.59062055  0.19328139  1
  O2-  O439  1  0.16474444  0.57372381  0.51378813  1
  O2-  O440  1  0.16453918  0.60869830  0.86601888  1
  O2-  O441  1  0.15576252  0.82122923  0.18232832  1
  O2-  O442  1  0.16217683  0.82583999  0.52777521  1
  O2-  O443  1  0.15909719  0.80757497  0.85753005  1
  O2-  O444  1  0.43160020  0.07800763  0.19691679  1
  O2-  O445  1  0.42472004  0.10914518  0.51976302  1
  O2-  O446  1  0.41366171  0.08894998  0.86025561  1
  O2-  O447  1  0.40475826  0.32589036  0.19460530  1
  O2-  O448  1  0.41080758  0.32505404  0.53117331  1
  O2-  O449  1  0.39911197  0.33271201  0.83556361  1
  O2-  O450  1  0.43025254  0.59866634  0.18284764  1
  O2-  O451  1  0.41184527  0.57643016  0.51123705  1
  O2-  O452  1  0.41127164  0.58817937  0.85352687  1
  O2-  O453  1  0.42282363  0.83266053  0.18319615  1
  O2-  O454  1  0.41903011  0.82508072  0.51836650  1
  O2-  O455  1  0.41912826  0.84897387  0.86632000  1
  O2-  O456  1  0.63661921  0.09147764  0.15025445  1
  O2-  O457  1  0.67031981  0.09723410  0.52654816  1
  O2-  O458  1  0.70022876  0.07025964  0.85518448  1
  O2-  O459  1  0.66553795  0.30456255  0.20146006  1
  O2-  O460  1  0.66962536  0.33674238  0.52231108  1
  O2-  O461  1  0.66137313  0.36699929  0.86996593  1
  O2-  O462  1  0.66285788  0.59331120  0.18537173  1
  O2-  O463  1  0.58694619  0.47985973  0.46648132  1
  O2-  O464  1  0.61549460  0.56713390  0.83719294  1
  O2-  O465  1  0.67498261  0.84595419  0.16649926  1
  O2-  O466  1  0.68098249  0.86445473  0.52649225  1
  O2-  O467  1  0.67185724  0.83872075  0.86488607  1
  O2-  O468  1  0.90319680  0.07672824  0.18276484  1
  O2-  O469  1  0.91179988  0.09186848  0.51002990  1
  O2-  O470  1  0.97590382  0.11883428  0.83788360  1
  O2-  O471  1  0.90882095  0.32845231  0.17894845  1
  O2-  O472  1  0.93000340  0.32259921  0.51306090  1
  O2-  O473  1  0.91576226  0.34600341  0.85530820  1
  O2-  O474  1  0.89226759  0.57972856  0.17022032  1
  O2-  O475  1  0.93468545  0.57011174  0.54923000  1
  O2-  O476  1  0.92765922  0.60042760  0.86217431  1
  O2-  O477  1  0.91914555  0.84609074  0.17904534  1
  O2-  O478  1  0.92366635  0.85940740  0.52780561  1
  O2-  O479  1  0.93615041  0.84072549  0.85782217  1
  O2-  O480  1  0.17572754  0.09276423  0.32957023  1
  O2-  O481  1  0.16687432  0.07808238  0.65615681  1
  O2-  O482  1  0.15647209  0.08867733  0.96292335  1
  O2-  O483  1  0.16884712  0.36444512  0.37514943  1
  O2-  O484  1  0.16516033  0.32671872  0.65596107  1
  O2-  O485  1  0.17183266  0.33817824  0.97820225  1
  O2-  O486  1  0.16281975  0.57751042  0.31754496  1
  O2-  O487  1  0.16650051  0.58025607  0.63801786  1
  O2-  O488  1  0.16468338  0.58595912  0.98637377  1
  O2-  O489  1  0.18438382  0.80061862  0.30131650  1
  O2-  O490  1  0.16681430  0.83728267  0.64827125  1
  O2-  O491  1  0.15938368  0.82725418  0.97792641  1
  O2-  O492  1  0.41388757  0.08514086  0.31973559  1
  O2-  O493  1  0.42910014  0.09719181  0.64664739  1
  O2-  O494  1  0.43442664  0.07957719  0.98004536  1
  O2-  O495  1  0.41225409  0.31821797  0.31767121  1
  O2-  O496  1  0.40847736  0.31991936  0.65235414  1
  O2-  O497  1  0.44546073  0.37165196  0.94845312  1
  O2-  O498  1  0.40201440  0.55269910  0.32848753  1
  O2-  O499  1  0.42637040  0.57660857  0.62714442  1
  O2-  O500  1  0.42081437  0.58542615  0.97839823  1
  O2-  O501  1  0.43129330  0.85585384  0.31160370  1
  O2-  O502  1  0.40710674  0.82435872  0.64558342  1
  O2-  O503  1  0.42094908  0.83110115  0.98722496  1
  O2-  O504  1  0.66026886  0.09311491  0.31397784  1
  O2-  O505  1  0.67202709  0.10078587  0.65151548  1
  O2-  O506  1  0.67865940  0.07376238  0.98149202  1
  O2-  O507  1  0.66469585  0.34212790  0.34335590  1
  O2-  O508  1  0.65204571  0.33341681  0.63662706  1
  O2-  O509  1  0.66989585  0.30825675  0.98213179  1
  O2-  O510  1  0.66789806  0.60122823  0.31003780  1
  O2-  O511  1  0.68566221  0.58572361  0.65107605  1
  O2-  O512  1  0.68851803  0.60918201  0.96041320  1
  O2-  O513  1  0.65889921  0.84856184  0.33538204  1
  O2-  O514  1  0.70572219  0.81237645  0.63827825  1
  O2-  O515  1  0.67504026  0.84226684  0.97777691  1
  O2-  O516  1  0.91552642  0.07741812  0.31060242  1
  O2-  O517  1  0.91691851  0.08554724  0.66180960  1
  O2-  O518  1  0.93344780  0.07972281  0.95586934  1
  O2-  O519  1  0.88709272  0.31742914  0.30067121  1
  O2-  O520  1  0.93607055  0.32595249  0.63794155  1
  O2-  O521  1  0.93987050  0.33193434  0.98019522  1
  O2-  O522  1  0.92977131  0.59847762  0.32379870  1
  O2-  O523  1  0.94601109  0.60978405  0.66723158  1
  O2-  O524  1  0.90592910  0.58089629  0.98358496  1
  O2-  O525  1  0.94169334  0.85281037  0.30679326  1
  O2-  O526  1  0.85976390  0.81574515  0.64199376  1
  O2-  O527  1  0.91999274  0.83705694  0.97575269  1
  O2-  O528  1  0.08283452  0.17323397  0.01985074  1
  O2-  O529  1  0.07816807  0.16257466  0.35704876  1
  O2-  O530  1  0.08879177  0.16269446  0.70062990  1
  O2-  O531  1  0.09324194  0.42282295  0.01897228  1
  O2-  O532  1  0.04547113  0.40914640  0.33308404  1
  O2-  O533  1  0.09013136  0.42115549  0.68745294  1
  O2-  O534  1  0.07774195  0.66362755  0.02166530  1
  O2-  O535  1  0.09085492  0.66611099  0.37101530  1
  O2-  O536  1  0.10011831  0.67637888  0.68721660  1
  O2-  O537  1  0.08848307  0.92225912  0.01210303  1
  O2-  O538  1  0.09631163  0.92612204  0.35835304  1
  O2-  O539  1  0.08255320  0.91331122  0.70269752  1
  O2-  O540  1  0.29723443  0.07351010  0.04984428  1
  O2-  O541  1  0.32302843  0.16377680  0.36535427  1
  O2-  O542  1  0.33066075  0.15731517  0.69482186  1
  O2-  O543  1  0.34123994  0.41989424  0.01538568  1
  O2-  O544  1  0.34053727  0.39660826  0.37818051  1
  O2-  O545  1  0.33621183  0.41656462  0.68144377  1
  O2-  O546  1  0.33449794  0.66161143  0.02338847  1
  O2-  O547  1  0.32347354  0.62756016  0.36319839  1
  O2-  O548  1  0.34489015  0.65281963  0.66368948  1
  O2-  O549  1  0.31214146  0.93497421  0.03271363  1
  O2-  O550  1  0.33568432  0.92311981  0.35963168  1
  O2-  O551  1  0.31040601  0.96285715  0.70576596  1
  O2-  O552  1  0.60209179  0.15968710  0.01401069  1
  O2-  O553  1  0.57562267  0.16601267  0.35981677  1
  O2-  O554  1  0.59535978  0.18579080  0.68890890  1
  O2-  O555  1  0.62253492  0.45076478  -0.04863981  1
  O2-  O556  1  0.58407225  0.43113331  0.34748348  1
  O2-  O557  1  0.57592428  0.40680725  0.67426984  1
  O2-  O558  1  0.58780374  0.66244659  0.00803961  1
  O2-  O559  1  0.57541703  0.67171502  0.36326926  1
  O2-  O560  1  0.58347833  0.65928665  0.68001010  1
  O2-  O561  1  0.59768354  0.91162484  0.02151000  1
  O2-  O562  1  0.58307931  0.94018637  0.36255736  1
  O2-  O563  1  0.53741130  0.96639124  0.71067719  1
  O2-  O564  1  0.85687143  0.16478735  0.01233472  1
  O2-  O565  1  0.82901485  0.15664419  0.34345643  1
  O2-  O566  1  0.83664859  0.16735579  0.68660197  1
  O2-  O567  1  0.81418941  0.41251596  0.01936440  1
  O2-  O568  1  0.84113963  0.43681884  0.31175049  1
  O2-  O569  1  0.85158197  0.41877001  0.65878448  1
  O2-  O570  1  0.83435919  0.67514224  0.01243186  1
  O2-  O571  1  0.84341871  0.68735397  0.34867488  1
  O2-  O572  1  0.84903274  0.67114879  0.69002464  1
  O2-  O573  1  0.83505275  0.92178004  0.01403302  1
  O2-  O574  1  0.83913612  0.90048771  0.36751980  1
  O2-  O575  1  0.83669984  0.92439903  0.71145033  1
