# generated using pymatgen
data_H2O
_symmetry_space_group_name_H-M   'P 1'
_cell_length_a   17.98257540
_cell_length_b   17.98185561
_cell_length_c   21.98713538
_cell_angle_alpha   90.01257429
_cell_angle_beta   89.94788445
_cell_angle_gamma   119.98744170
_symmetry_Int_Tables_number   1
_chemical_formula_structural   H2O
_chemical_formula_sum   'H384 O192'
_cell_volume   6158.01052595
_cell_formula_units_Z   192
loop_
 _symmetry_equiv_pos_site_id
 _symmetry_equiv_pos_as_xyz
  1  'x, y, z'
loop_
 _atom_type_symbol
 _atom_type_oxidation_number
  H+  1.0
  O2-  -2.0
loop_
 _atom_site_type_symbol
 _atom_site_label
 _atom_site_symmetry_multiplicity
 _atom_site_fract_x
 _atom_site_fract_y
 _atom_site_fract_z
 _atom_site_occupancy
  H+  H0  1  0.08371933  0.67465172  -0.07004192  1
  H+  H1  1  0.37338384  0.60062889  0.17122141  1
  H+  H2  1  0.36790440  -0.03974514  0.68886227  1
  H+  H3  1  0.62404966  0.13694283  0.49557161  1
  H+  H4  1  0.89144339  0.76004823  0.33865503  1
  H+  H5  1  0.72246248  0.86642034  0.17554389  1
  H+  H6  1  0.96559936  0.61072674  0.18340115  1
  H+  H7  1  0.62060200  0.48406581  0.17072311  1
  H+  H8  1  0.62918812  0.37922133  0.01504656  1
  H+  H9  1  0.36173714  0.97485321  0.83306028  1
  H+  H10  1  0.85814968  0.87880971  0.35366345  1
  H+  H11  1  0.77106066  0.38428700  0.16721796  1
  H+  H12  1  0.24006058  0.31757531  0.14312369  1
  H+  H13  1  0.87728179  0.75159166  0.18653782  1
  H+  H14  1  0.12294948  0.10041569  0.80638551  1
  H+  H15  1  0.46541640  0.38014145  0.82652379  1
  H+  H16  1  0.40647955  0.49532948  0.14677641  1
  H+  H17  1  0.85822197  0.38436817  1.00818662  1
  H+  H18  1  0.60028287  -0.03797043  0.83224356  1
  H+  H19  1  0.30147522  0.41179815  0.34311427  1
  H+  H20  1  0.10435078  0.64282868  0.32772090  1
  H+  H21  1  0.92191557  0.32522288  0.23893936  1
  H+  H22  1  0.12665854  0.88449071  0.66434230  1
  H+  H23  1  0.87367237  0.01609297  0.33872247  1
  H+  H24  1  0.26655839  0.38944328  0.66993529  1
  H+  H25  1  0.99460831  0.36417005  0.47803775  1
  H+  H26  1  0.13032686  0.90126660  0.49633142  1
  H+  H27  1  0.36229821  0.88854709  0.50034666  1
  H+  H28  1  0.13158630  0.10720637  0.17510182  1
  H+  H29  1  0.32357472  0.57707432  0.46950067  1
  H+  H30  1  0.88008493  0.52469276  0.84658240  1
  H+  H31  1  0.61180277  0.64282329  0.16572263  1
  H+  H32  1  0.48334870  0.11284582  0.17691291  1
  H+  H33  1  0.59013318  0.92730793  0.59167739  1
  H+  H34  1  0.38100786  0.61670616  0.00419945  1
  H+  H35  1  0.17943551  0.35266808  0.38101762  1
  H+  H36  1  0.85167563  0.62732844  1.02330601  1
  H+  H37  1  0.77152326  0.38991592  1.01267285  1
  H+  H38  1  0.60695760  0.97436915  0.34284057  1
  H+  H39  1  0.86116832  0.12892384  0.51156999  1
  H+  H40  1  0.23862680  0.86453789  0.66839814  1
  H+  H41  1  0.22063122  0.36494044  0.83972537  1
  H+  H42  1  0.61307852  0.35104713  0.85846797  1
  H+  H43  1  0.14156210  0.36581576  0.65211323  1
  H+  H44  1  0.82924879  0.91232642  0.41148516  1
  H+  H45  1  0.85005570  0.12565319  0.00466357  1
  H+  H46  1  0.37615102  0.14775953  0.82211291  1
  H+  H47  1  0.61572144  0.38068845  0.48854807  1
  H+  H48  1  0.83734565  0.15589950  0.90146546  1
  H+  H49  1  0.15362030  0.54704387  0.31038854  1
  H+  H50  1  0.98448840  0.11718173  0.52731852  1
  H+  H51  1  0.13057528  0.86808808  0.84368007  1
  H+  H52  1  0.38488958  0.28155505  0.83165629  1
  H+  H53  1  0.09199977  0.42178999  0.72850631  1
  H+  H54  1  0.51319155  0.88109042  1.00824304  1
  H+  H55  1  0.47326267  0.62392227  0.16833582  1
  H+  H56  1  0.88158897  0.27054175  0.98326384  1
  H+  H57  1  0.47290782  0.85690301  0.85016170  1
  H+  H58  1  0.26177688  0.14181198  0.33450922  1
  H+  H59  1  0.34444150  0.67063604  0.77176986  1
  H+  H60  1  0.17374888  0.85294100  0.93939730  1
  H+  H61  1  0.86584170  0.21549519  0.48989325  1
  H+  H62  1  0.11643275  0.86980005  0.33839568  1
  H+  H63  1  0.49188942  0.35839036  0.17697050  1
  H+  H64  1  0.01559612  0.87252158  0.82144693  1
  H+  H65  1  0.11893836  0.63234244  0.84068389  1
  H+  H66  1  0.36385679  0.72757512  0.83309546  1
  H+  H67  1  0.15227759  0.77749730  0.66616408  1
  H+  H68  1  0.87980348  0.11195236  0.18826656  1
  H+  H69  1  0.72170177  0.61650802  0.84269155  1
  H+  H70  1  0.52966077  0.38711353  0.48658816  1
  H+  H71  1  0.82379903  0.65753361  0.11567508  1
  H+  H72  1  0.35399448  0.16056239  0.10810660  1
  H+  H73  1  0.84627865  0.95337692  0.81257049  1
  H+  H74  1  0.36230769  0.87846029  0.33989650  1
  H+  H75  1  0.32564265  0.04218897  0.65514908  1
  H+  H76  1  0.51970383  0.63845205  0.01203403  1
  H+  H77  1  0.35520828  0.48223621  0.83026226  1
  H+  H78  1  0.47986618  0.10795152  0.83765281  1
  H+  H79  1  0.10364651  -0.03279595  0.16686941  1
  H+  H80  1  0.34061295  0.64710212  0.39073773  1
  H+  H81  1  0.40580705  0.02105407  0.33384561  1
  H+  H82  1  0.65237660  0.50605734  0.33083456  1
  H+  H83  1  0.87206662  0.37813857  0.48742550  1
  H+  H84  1  0.04320296  0.39608126  0.66367788  1
  H+  H85  1  0.16435302  0.41579090  0.18908361  1
  H+  H86  1  0.43795065  0.71871204  0.38941222  1
  H+  H87  1  0.96865402  0.10535420  0.79390242  1
  H+  H88  1  0.37786403  0.63950366  0.67290541  1
  H+  H89  1  0.37843237  0.52260253  0.65178463  1
  H+  H90  1  0.22888202  0.64845250  0.31228700  1
  H+  H91  1  0.48647608  0.39414102  0.96600922  1
  H+  H92  1  0.13539747  0.60838131  0.98270281  1
  H+  H93  1  0.14261273  0.78444720  0.99108339  1
  H+  H94  1  0.28520815  0.14733500  0.48631180  1
  H+  H95  1  0.40398038  0.37846240  0.50214134  1
  H+  H96  1  0.15131583  0.31073703  0.28286863  1
  H+  H97  1  0.13629519  0.12189786  0.97841691  1
  H+  H98  1  0.84671073  0.21078902  0.18022433  1
  H+  H99  1  0.21397007  0.65170349  0.57924327  1
  H+  H100  1  0.78175274  0.37146288  0.84669855  1
  H+  H101  1  0.57570496  0.90667764  0.09585801  1
  H+  H102  1  0.48359452  0.86858906  0.16694684  1
  H+  H103  1  0.17991483  0.67286508  0.51921910  1
  H+  H104  1  0.99526872  0.72042613  0.70508133  1
  H+  H105  1  0.66523272  0.34029572  0.24370200  1
  H+  H106  1  0.60303641  0.88347233  -0.00062158  1
  H+  H107  1  0.36302958  0.39523386  -0.00967067  1
  H+  H108  1  0.63140673  0.11237659  0.32662741  1
  H+  H109  1  0.26843036  0.88879868  0.83638879  1
  H+  H110  1  0.78837608  0.61828496  0.34201599  1
  H+  H111  1  0.11816642  0.24189215  0.49429373  1
  H+  H112  1  0.39853987  0.77600074  0.32058071  1
  H+  H113  1  0.10695883  0.47113506  -0.00026966  1
  H+  H114  1  0.22778161  0.13651628  0.96031083  1
  H+  H115  1  0.62396008  0.77236925  -0.01842496  1
  H+  H116  1  0.62309054  0.71758459  0.36938580  1
  H+  H117  1  0.53341572  0.14045261  0.49778333  1
  H+  H118  1  0.25852441  0.34867813  0.16916432  1
  H+  H119  1  0.38044658  0.52748726  -0.00295672  1
  H+  H120  1  0.63049860  0.51431896  0.49200700  1
  H+  H121  1  0.27419620  0.38498651  0.48179881  1
  H+  H122  1  0.13369098  0.77321029  0.32736893  1
  H+  H123  1  0.86646405  0.46417786  0.50006068  1
  H+  H124  1  0.23176160  0.61038452  0.83866749  1
  H+  H125  1  0.01510926  0.12727493  0.17376376  1
  H+  H126  1  0.83455838  0.20453783  0.28799735  1
  H+  H127  1  0.08346413  0.67277334  0.43691690  1
  H+  H128  1  0.39668811  0.85941745  0.67338095  1
  H+  H129  1  0.84104996  0.94824406  0.68113641  1
  H+  H130  1  0.13815789  0.86666935  0.17918925  1
  H+  H131  1  0.65051464  0.37757894  0.83783660  1
  H+  H132  1  0.33831448  0.91733958  0.43699694  1
  H+  H133  1  0.01207179  0.47321363  0.13667208  1
  H+  H134  1  0.76246473  0.62574449  0.02313407  1
  H+  H135  1  0.93549794  0.58633595  0.65903403  1
  H+  H136  1  0.08819889  0.20139118  0.33003513  1
  H+  H137  1  0.10247513  0.96377975  0.81775413  1
  H+  H138  1  0.47991903  0.12196545  -0.00405608  1
  H+  H139  1  0.11088712  0.22711174  0.79604416  1
  H+  H140  1  0.38928748  0.87510686  0.17017266  1
  H+  H141  1  0.10616818  0.13071639  0.64613777  1
  H+  H142  1  0.85244552  0.70737818  0.49533183  1
  H+  H143  1  0.59992015  0.42542902  0.10967740  1
  H+  H144  1  0.63435088  0.61922020  0.84786717  1
  H+  H145  1  0.87178518  0.84937792  -0.03104636  1
  H+  H146  1  0.97682888  0.60781882  0.50951230  1
  H+  H147  1  0.66382174  0.58473346  0.24094852  1
  H+  H148  1  0.53283868  0.14645473  0.34140054  1
  H+  H149  1  0.02614085  0.38929980  0.82321139  1
  H+  H150  1  0.80588193  0.88842980  0.74155785  1
  H+  H151  1  0.39070722  0.36295203  0.32449969  1
  H+  H152  1  -0.03034217  0.61240935  0.84642557  1
  H+  H153  1  0.65206423  0.59231830  0.34857018  1
  H+  H154  1  0.36144245  0.24010396  0.33113189  1
  H+  H155  1  0.91460468  0.26925033  0.63538712  1
  H+  H156  1  0.59817638  0.49324931  0.82294594  1
  H+  H157  1  0.63494753  0.77352244  0.83689446  1
  H+  H158  1  0.84342749  0.63071146  0.66846159  1
  H+  H159  1  0.20220741  0.45628214  0.17735490  1
  H+  H160  1  0.62964586  0.51800838  0.00046836  1
  H+  H161  1  0.59904854  0.38561967  0.66610752  1
  H+  H162  1  0.95850941  0.09640594  1.02936025  1
  H+  H163  1  0.12199166  -0.02287618  0.65871790  1
  H+  H164  1  0.36492135  0.17627115  0.65568105  1
  H+  H165  1  0.14157394  0.51968047  0.83699983  1
  H+  H166  1  0.26527651  0.63230169  1.01262696  1
  H+  H167  1  0.73230482  0.86122988  0.83366418  1
  H+  H168  1  0.04554700  0.90793076  0.49880952  1
  H+  H169  1  0.87524656  0.83937553  0.19308284  1
  H+  H170  1  0.90091260  0.93656351  0.11852780  1
  H+  H171  1  0.51133109  0.61487304  0.67593478  1
  H+  H172  1  0.65553697  0.03417965  0.64685179  1
  H+  H173  1  0.61294163  0.23854650  0.01082902  1
  H+  H174  1  0.02663994  0.87633488  0.65389733  1
  H+  H175  1  1.01864020  0.13258878  0.63570505  1
  H+  H176  1  0.38355279  0.38392151  0.66178543  1
  H+  H177  1  0.10877412  0.73523051  0.49393182  1
  H+  H178  1  0.08370925  0.17397224  0.73300960  1
  H+  H179  1  0.71958659  0.60083851  0.49598932  1
  H+  H180  1  0.61421019  0.22969906  0.16868336  1
  H+  H181  1  0.76468759  0.42057137  0.35245924  1
  H+  H182  1  0.22303381  0.11678827  0.65784146  1
  H+  H183  1  0.14066664  0.78353060  0.85217294  1
  H+  H184  1  0.76770843  0.88678774  0.50265679  1
  H+  H185  1  0.11053274  0.72893677  0.17493745  1
  H+  H186  1  0.59820765  0.61241892  0.67644270  1
  H+  H187  1  0.89792123  0.77240574  0.65180121  1
  H+  H188  1  0.09811551  0.21867492  0.01594562  1
  H+  H189  1  0.86694781  0.55460712  0.34938837  1
  H+  H190  1  0.91329713  0.35818564  0.62765789  1
  H+  H191  1  0.70124625  0.35155768  0.66054359  1
  H+  H192  1  0.21536071  0.35602189  0.99684902  1
  H+  H193  1  0.86666507  0.99512853  0.09454271  1
  H+  H194  1  0.71441242  0.85547169  0.66707298  1
  H+  H195  1  0.63944805  0.36867251  0.18296778  1
  H+  H196  1  0.48868836  0.86997692  0.65241612  1
  H+  H197  1  0.87365783  0.85789146  0.50293312  1
  H+  H198  1  0.23422365  0.87272773  0.50749625  1
  H+  H199  1  0.30308398  0.65084583  0.11111205  1
  H+  H200  1  0.13162569  0.11258729  0.33035899  1
  H+  H201  1  0.61030114  0.11795270  0.82403600  1
  H+  H202  1  0.62265403  0.88881270  0.64453443  1
  H+  H203  1  -0.04257070  0.84776201  -0.01869804  1
  H+  H204  1  0.36861134  0.13783285  0.48064120  1
  H+  H205  1  0.39662761  1.02487434  0.50297891  1
  H+  H206  1  0.09926604  0.20816359  0.19139982  1
  H+  H207  1  0.38335935  0.85828253  0.85016778  1
  H+  H208  1  0.60822123  0.88495651  0.34592236  1
  H+  H209  1  0.39231392  0.10764583  0.18236500  1
  H+  H210  1  0.22046025  0.10587388  0.17211162  1
  H+  H211  1  0.38502622  0.50996790  0.49619985  1
  H+  H212  1  0.82400952  0.37221076  0.69515700  1
  H+  H213  1  0.53082253  0.36806792  0.03686853  1
  H+  H214  1  0.85459106  0.72981745  0.81694704  1
  H+  H215  1  0.11498005  0.47229156  0.49014386  1
  H+  H216  1  0.23117936  0.52817160  0.43815324  1
  H+  H217  1  0.27662748  0.88453101  0.34262697  1
  H+  H218  1  0.62250406  0.01555631  0.17157020  1
  H+  H219  1  0.88483169  0.52175754  -0.00069412  1
  H+  H220  1  0.73979001  0.35248251  0.50786783  1
  H+  H221  1  0.62709305  0.11315898  0.99704829  1
  H+  H222  1  0.14863928  0.13403047  0.50792212  1
  H+  H223  1  -0.02982193  0.36025023  -0.00821170  1
  H+  H224  1  0.35169393  0.39192305  0.82291679  1
  H+  H225  1  0.15284721  0.65021959  0.68752229  1
  H+  H226  1  0.85113975  0.13766257  0.32480844  1
  H+  H227  1  0.87975168  0.52007569  0.17868116  1
  H+  H228  1  0.37149687  0.97866027  0.16542528  1
  H+  H229  1  0.62444394  0.85083522  0.50212348  1
  H+  H230  1  0.86090249  0.97292035  0.51055233  1
  H+  H231  1  0.63826384  0.24976523  0.50427923  1
  H+  H232  1  0.88501280  0.10528744  0.81683486  1
  H+  H233  1  0.11278235  0.38509724  0.82417298  1
  H+  H234  1  0.66120878  0.23801762  0.85357037  1
  H+  H235  1  0.25242979  0.62391382  0.67115577  1
  H+  H236  1  0.87052199  0.01008778  1.00924070  1
  H+  H237  1  0.09464960  0.87928957  1.01172761  1
  H+  H238  1  0.40919882  0.36397665  0.16691478  1
  H+  H239  1  0.43339465  0.07756279  0.27362366  1
  H+  H240  1  0.96780998  0.29968792  0.32066119  1
  H+  H241  1  0.71734290  0.10832359  0.31988876  1
  H+  H242  1  0.86825409  0.85303211  0.82455999  1
  H+  H243  1  0.05252573  0.39184674  0.30558481  1
  H+  H244  1  0.72534915  0.61671261  0.18336125  1
  H+  H245  1  0.62652361  0.29112930  0.34117511  1
  H+  H246  1  0.33714448  0.76889271  0.52768769  1
  H+  H247  1  0.13924351  0.38408891  0.48432555  1
  H+  H248  1  0.36546494  0.98304714  0.01154059  1
  H+  H249  1  0.46579398  0.60365040  0.48770935  1
  H+  H250  1  0.72314470  0.61746883  0.64855212  1
  H+  H251  1  0.01767755  0.87497472  0.17436098  1
  H+  H252  1  0.88519803  0.13995063  0.63595729  1
  H+  H253  1  0.85680501  0.33982356  0.19667054  1
  H+  H254  1  0.47218429  0.38041994  0.66222061  1
  H+  H255  1  0.52049806  0.63504049  0.83501078  1
  H+  H256  1  0.35609050  0.25585386  0.66928688  1
  H+  H257  1  0.83005296  0.46085536  0.67631458  1
  H+  H258  1  0.53289508  0.11670174  0.66583671  1
  H+  H259  1  0.00725671  0.11979401  0.35170763  1
  H+  H260  1  0.74855959  0.87404826  -0.01764774  1
  H+  H261  1  0.27441590  0.89572574  0.01279703  1
  H+  H262  1  0.15918637  0.53751427  0.66393974  1
  H+  H263  1  0.38593839  0.61660256  0.84602253  1
  H+  H264  1  0.48032389  0.86810644  0.32139196  1
  H+  H265  1  0.63690859  0.77523399  0.17542373  1
  H+  H266  1  0.41904304  0.62084838  0.32327347  1
  H+  H267  1  0.88500340  0.02573370  0.18372654  1
  H+  H268  1  0.62030801  0.25866429  0.65216623  1
  H+  H269  1  0.17353482  0.42228095  0.33693585  1
  H+  H270  1  0.38039617  0.86217554  1.00175167  1
  H+  H271  1  0.63509911  0.02418827  0.50268164  1
  H+  H272  1  0.39737888  0.48995906  0.33575249  1
  H+  H273  1  0.40035938  0.09390058  0.69980936  1
  H+  H274  1  0.12705453  0.35666769  -0.00203471  1
  H+  H275  1  0.83076629  0.40963292  0.10811580  1
  H+  H276  1  0.85557989  0.62724774  0.17529971  1
  H+  H277  1  0.00097743  0.71973052  0.67121368  1
  H+  H278  1  0.89358041  0.36756369  0.83740751  1
  H+  H279  1  0.72069134  0.85704091  0.33910422  1
  H+  H280  1  0.61889284  0.63083383  0.47067136  1
  H+  H281  1  0.15142853  0.04664469  0.50021700  1
  H+  H282  1  0.38047437  0.25493423  0.98829437  1
  H+  H283  1  0.60254077  0.87535460  0.83073707  1
  H+  H284  1  0.72261640  0.10440731  0.84928893  1
  H+  H285  1  0.35166340  0.72325199  0.01880482  1
  H+  H286  1  0.37431556  0.22432954  0.16342587  1
  H+  H287  1  0.01842804  0.64951663  0.34037552  1
  H+  H288  1  0.11168889  0.51334062  0.14359578  1
  H+  H289  1  0.58813441  0.15776731  0.76578128  1
  H+  H290  1  0.68320359  0.09978677  0.59411790  1
  H+  H291  1  0.63643445  0.76995328  0.49105584  1
  H+  H292  1  0.56466357  0.90761809  0.43781905  1
  H+  H293  1  0.90863830  0.07457222  0.27881150  1
  H+  H294  1  0.33771788  0.92013781  0.10446471  1
  H+  H295  1  0.88366645  0.59915118  0.50653672  1
  H+  H296  1  0.05936823  0.28259130  0.26221152  1
  H+  H297  1  0.85353075  0.63944255  0.82110458  1
  H+  H298  1  0.17660436  0.84143052  0.56774875  1
  H+  H299  1  0.32241171  0.42664041  0.73228693  1
  H+  H300  1  0.22929902  0.86801820  0.17891439  1
  H+  H301  1  0.40661884  0.82647696  0.94320007  1
  H+  H302  1  0.42752762  0.58115195  0.26148487  1
  H+  H303  1  0.34644974  0.41711712  0.42757730  1
  H+  H304  1  0.58638811  0.67284658  0.10327595  1
  H+  H305  1  0.83603567  0.64897920  0.43661755  1
  H+  H306  1  0.80366461  0.15007623  0.65322925  1
  H+  H307  1  0.93662090  0.06516400  0.91235050  1
  H+  H308  1  0.17460889  0.08454930  0.59364384  1
  H+  H309  1  0.76628327  0.12030384  0.16880859  1
  H+  H310  1  0.41269383  0.58031235  0.59104836  1
  H+  H311  1  0.94619619  0.03017633  0.90424491  1
  H+  H312  1  0.30901237  0.19919528  0.03606650  1
  H+  H313  1  0.16379712  0.08629698  0.26991118  1
  H+  H314  1  0.06782903  0.42401126  0.06133426  1
  H+  H315  1  0.66087250  0.57946447  0.94105973  1
  H+  H316  1  0.92946637  0.83221573  0.46283937  1
  H+  H317  1  0.17377572  0.57657336  0.93150612  1
  H+  H318  1  0.61259490  0.48107386  0.66159473  1
  H+  H319  1  0.60562995  0.87964086  0.15846580  1
  H+  H320  1  0.17356412  0.34962194  0.54646661  1
  H+  H321  1  0.62240702  0.02077244  0.99688463  1
  H+  H322  1  0.73119619  0.11036475  0.50318818  1
  H+  H323  1  0.41756940  0.34972196  0.91117106  1
  H+  H324  1  0.58408374  0.17671373  0.06908087  1
  H+  H325  1  0.66108785  0.82461096  0.28063932  1
  H+  H326  1  0.65245743  0.07416320  0.90074256  1
  H+  H327  1  0.11034339  0.46104925  0.37745689  1
  H+  H328  1  0.08106933  0.16523533  0.07712911  1
  H+  H329  1  0.80327310  0.87934953  0.03965021  1
  H+  H330  1  0.43589707  0.36127839  0.56481245  1
  H+  H331  1  0.50226491  0.87309045  0.49575026  1
  H+  H332  1  0.56980476  0.43834233  0.75998884  1
  H+  H333  1  0.47296919  0.48021449  0.11040423  1
  H+  H334  1  0.61298150  0.13953732  0.16297558  1
  H+  H335  1  0.69129120  0.27786735  0.91964931  1
  H+  H336  1  0.09972369  0.67612907  0.78631543  1
  H+  H337  1  0.35105936  0.42275512  0.05595533  1
  H+  H338  1  0.41296977  0.58702336  0.90670939  1
  H+  H339  1  0.15591357  0.32386098  0.89593416  1
  H+  H340  1  0.81307576  0.41719110  0.78222609  1
  H+  H341  1  0.08777948  0.90989594  0.40233166  1
  H+  H342  1  0.89410956  0.55971530  0.59391594  1
  H+  H343  1  0.90668961  0.82416473  0.88153758  1
  H+  H344  1  1.01533413  0.86663080  0.34485474  1
  H+  H345  1  0.59496703  0.18109368  0.39931048  1
  H+  H346  1  0.91530883  0.82005358  0.28053217  1
  H+  H347  1  0.07965358  0.16919220  0.44333325  1
  H+  H348  1  0.92259320  0.34079522  0.89756469  1
  H+  H349  1  0.62899392  0.13517302  0.66518110  1
  H+  H350  1  0.66332237  0.35949242  0.94834520  1
  H+  H351  1  0.42125654  0.08556166  0.89726259  1
  H+  H352  1  0.76471500  0.12949412  -0.01244291  1
  H+  H353  1  0.65429431  0.83023459  0.91796719  1
  H+  H354  1  0.59859994  0.38870063  0.39049491  1
  H+  H355  1  0.13641905  0.27485810  0.64052907  1
  H+  H356  1  0.64915423  0.07124898  0.23304982  1
  H+  H357  1  0.06376552  0.64642624  0.69173726  1
  H+  H358  1  0.09003113  0.66024694  0.12404965  1
  H+  H359  1  0.57430033  0.65129232  0.77396193  1
  H+  H360  1  0.05494502  0.89331174  0.07097469  1
  H+  H361  1  0.83000386  0.43746348  0.40602281  1
  H+  H362  1  0.65991722  0.81781816  0.60495719  1
  H+  H363  1  0.42178787  0.08748659  0.56006027  1
  H+  H364  1  0.16756012  0.83917676  0.26921722  1
  H+  H365  1  0.40468418  0.83082716  0.57474981  1
  H+  H366  1  0.60760067  0.63550788  0.00984824  1
  H+  H367  1  0.34026214  0.17785438  0.76583077  1
  H+  H368  1  0.41473648  0.32479781  0.26523464  1
  H+  H369  1  0.86317556  0.22179216  0.84777822  1
  H+  H370  1  0.90300917  0.58090151  0.93994920  1
  H+  H371  1  0.66229481  0.58220362  0.58868813  1
  H+  H372  1  0.66841998  0.32273844  0.56710584  1
  H+  H373  1  0.20703110  0.61394504  0.21613117  1
  H+  H374  1  0.01892308  0.63580312  -0.01602711  1
  H+  H375  1  0.38248181  0.73101202  0.67808955  1
  H+  H376  1  0.82249816  0.66890171  0.72756082  1
  H+  H377  1  0.39189139  0.12211641  0.99025605  1
  H+  H378  1  0.94536009  0.33353671  0.54081467  1
  H+  H379  1  0.15153918  0.08216618  0.86944350  1
  H+  H380  1  0.33148089  0.90388353  0.74942036  1
  H+  H381  1  0.42194842  0.83952862  0.23209935  1
  H+  H382  1  0.33153406  0.16993890  0.39362337  1
  H+  H383  1  0.93005975  0.82436358  0.58869218  1
  O2-  O384  1  0.07712277  0.16002824  0.16143531  1
  O2-  O385  1  0.08757358  0.17671066  0.48811637  1
  O2-  O386  1  0.08353678  0.16919787  0.77818476  1
  O2-  O387  1  0.05869695  0.46125511  0.13058405  1
  O2-  O388  1  0.10537256  0.42699617  0.46153525  1
  O2-  O389  1  0.08675538  0.41921533  0.80755436  1
  O2-  O390  1  0.07574854  0.66669531  0.16563487  1
  O2-  O391  1  0.08041742  0.67374571  0.48192193  1
  O2-  O392  1  0.08912409  0.66578112  0.83064999  1
  O2-  O393  1  0.07586395  0.90498257  0.15592043  1
  O2-  O394  1  0.10037140  0.93072492  0.47713306  1
  O2-  O395  1  0.07839071  0.89987758  0.81300628  1
  O2-  O396  1  0.34114211  0.16170285  0.15115486  1
  O2-  O397  1  0.33940590  0.16684640  0.46343048  1
  O2-  O398  1  0.35478573  0.18644484  0.80926569  1
  O2-  O399  1  0.41319812  0.45023058  0.12367305  1
  O2-  O400  1  0.33784457  0.41338123  0.47286605  1
  O2-  O401  1  0.32154055  0.42406662  0.81103009  1
  O2-  O402  1  0.30204545  0.64378320  0.15677099  1
  O2-  O403  1  0.28384420  0.58426330  0.44193193  1
  O2-  O404  1  0.33539488  0.66721590  0.81686187  1
  O2-  O405  1  0.33993444  0.91715358  0.15035185  1
  O2-  O406  1  0.33788945  0.92376078  0.48229031  1
  O2-  O407  1  0.32906834  0.91291853  0.82047772  1
  O2-  O408  1  0.58353426  0.17156861  0.14934844  1
  O2-  O409  1  0.59581765  0.17301587  0.48457104  1
  O2-  O410  1  0.58325149  0.15321891  0.81056130  1
  O2-  O411  1  0.59447252  0.42342609  0.15564825  1
  O2-  O412  1  0.58882769  0.40842714  0.46637259  1
  O2-  O413  1  0.55614694  0.43776113  0.80358873  1
  O2-  O414  1  0.58361463  0.67444784  0.14905810  1
  O2-  O415  1  0.59481286  0.66592118  0.45161451  1
  O2-  O416  1  0.58025406  0.66332223  0.81902709  1
  O2-  O417  1  0.57261544  0.90646896  0.14206881  1
  O2-  O418  1  0.56369697  0.90539217  0.48337818  1
  O2-  O419  1  0.56507386  0.90060604  0.82138850  1
  O2-  O420  1  0.82908936  0.15296336  0.16211218  1
  O2-  O421  1  0.82841563  0.15229925  0.49074728  1
  O2-  O422  1  0.83255904  0.15914118  0.85648126  1
  O2-  O423  1  0.83185473  0.41050684  0.15352691  1
  O2-  O424  1  0.83347800  0.40407624  0.48420009  1
  O2-  O425  1  0.83209208  0.41942217  0.82455443  1
  O2-  O426  1  0.82622634  0.66134514  0.16223463  1
  O2-  O427  1  0.82822796  0.64704438  0.48199208  1
  O2-  O428  1  0.82172822  0.66574113  0.80307981  1
  O2-  O429  1  0.85274717  0.94652773  0.12431323  1
  O2-  O430  1  0.82997275  0.91531037  0.49075217  1
  O2-  O431  1  0.81228622  0.89015568  0.80850058  1
  O2-  O432  1  0.16109346  0.07465197  0.18789662  1
  O2-  O433  1  0.18106464  0.10358345  0.51993882  1
  O2-  O434  1  0.14746161  0.06775793  0.82565857  1
  O2-  O435  1  0.10293801  0.26351964  0.25972652  1
  O2-  O436  1  0.17076214  0.34510345  0.50160421  1
  O2-  O437  1  0.15838921  0.32958070  0.85103573  1
  O2-  O438  1  0.21034908  0.60747193  0.17071299  1
  O2-  O439  1  0.23215535  0.68883151  0.54284085  1
  O2-  O440  1  0.17135706  0.57917144  0.85497346  1
  O2-  O441  1  0.17054308  0.83901845  0.19654977  1
  O2-  O442  1  0.17331952  0.84548036  0.52274115  1
  O2-  O443  1  0.16899166  0.84500990  0.86284196  1
  O2-  O444  1  0.42325971  0.07658781  0.19332887  1
  O2-  O445  1  0.43043459  0.08739097  0.51623460  1
  O2-  O446  1  0.41893219  0.08144188  0.85202284  1
  O2-  O447  1  0.42833478  0.32621167  0.18591938  1
  O2-  O448  1  0.44558383  0.36371748  0.52040652  1
  O2-  O449  1  0.40535442  0.34275551  0.84513776  1
  O2-  O450  1  0.41386629  0.57992394  0.18088486  1
  O2-  O451  1  0.40988851  0.57282568  0.50817141  1
  O2-  O452  1  0.41307006  0.58327090  0.86147209  1
  O2-  O453  1  0.42201254  0.84374684  0.18539687  1
  O2-  O454  1  0.39310140  0.82437637  0.52977612  1
  O2-  O455  1  0.41073218  0.82617608  0.86632514  1
  O2-  O456  1  0.65200802  0.07502752  0.18756071  1
  O2-  O457  1  0.66751307  0.08520330  0.51536348  1
  O2-  O458  1  0.65873395  0.07317509  0.85563329  1
  O2-  O459  1  0.66546782  0.33439122  0.19899595  1
  O2-  O460  1  0.67554653  0.32032323  0.52070870  1
  O2-  O461  1  0.71132564  0.28000491  0.87811596  1
  O2-  O462  1  0.66265310  0.58826300  0.19604124  1
  O2-  O463  1  0.65754206  0.57528602  0.50623661  1
  O2-  O464  1  0.66385372  0.58717867  0.86243129  1
  O2-  O465  1  0.66410951  0.83565828  0.19212507  1
  O2-  O466  1  0.66020884  0.82508950  0.51320907  1
  O2-  O467  1  0.66584894  0.83397185  0.85149383  1
  O2-  O468  1  0.91307904  0.08249386  0.20367648  1
  O2-  O469  1  0.92256572  0.08133254  0.53943123  1
  O2-  O470  1  0.90538631  0.07026587  0.79603940  1
  O2-  O471  1  0.86400952  0.29643415  0.21979839  1
  O2-  O472  1  0.93477927  0.33350808  0.49626007  1
  O2-  O473  1  0.92465126  0.33819066  0.85193294  1
  O2-  O474  1  0.90387896  0.57936265  0.19465793  1
  O2-  O475  1  0.91555004  0.57096224  0.52299516  1
  O2-  O476  1  0.90894820  0.58630335  0.85935406  1
  O2-  O477  1  0.90977242  0.81382533  0.20474869  1
  O2-  O478  1  0.90725246  0.82570815  0.50416503  1
  O2-  O479  1  0.90449670  0.82363703  0.83568361  1
  O2-  O480  1  0.16931117  0.09081209  0.31483214  1
  O2-  O481  1  0.16701059  0.07443378  0.63906767  1
  O2-  O482  1  0.16730241  0.10627286  0.94885526  1
  O2-  O483  1  0.20149072  0.38131040  0.34203349  1
  O2-  O484  1  0.17196756  0.33809369  0.63313915  1
  O2-  O485  1  0.15454147  0.32330146  0.98350683  1
  O2-  O486  1  0.17430322  0.61107239  0.29235500  1
  O2-  O487  1  0.19152355  0.60085957  0.65610061  1
  O2-  O488  1  0.16800897  0.57741200  0.97697840  1
  O2-  O489  1  0.16453996  0.83646945  0.31568208  1
  O2-  O490  1  0.17981847  0.83731519  0.64941606  1
  O2-  O491  1  0.17388592  0.84749197  0.98504267  1
  O2-  O492  1  0.44078001  0.08024500  0.31840544  1
  O2-  O493  1  0.38799448  0.06865219  0.65902737  1
  O2-  O494  1  0.41985756  0.08872407  0.97933734  1
  O2-  O495  1  0.40921217  0.32123531  0.31018541  1
  O2-  O496  1  0.41203270  0.35151840  0.64617717  1
  O2-  O497  1  0.42521042  0.35522216  0.95883388  1
  O2-  O498  1  0.44153388  0.58567162  0.30533310  1
  O2-  O499  1  0.41304194  0.58284329  0.63619304  1
  O2-  O500  1  0.41360059  0.58997611  0.98679384  1
  O2-  O501  1  0.42058795  0.83503123  0.30344255  1
  O2-  O502  1  0.42439058  0.83218044  0.65032958  1
  O2-  O503  1  0.40709878  0.82747345  0.98908287  1
  O2-  O504  1  0.65289514  0.07419671  0.31217407  1
  O2-  O505  1  0.68600450  0.09825316  0.63941945  1
  O2-  O506  1  0.65337791  0.08023365  0.97996864  1
  O2-  O507  1  0.65862521  0.35453446  0.32923371  1
  O2-  O508  1  0.64701134  0.31913372  0.63652525  1
  O2-  O509  1  0.66556335  0.34461380  0.99073826  1
  O2-  O510  1  0.68200593  0.56932127  0.32394657  1
  O2-  O511  1  0.66322600  0.57961924  0.63375787  1
  O2-  O512  1  0.65616381  0.57865054  0.98659811  1
  O2-  O513  1  0.65937900  0.82537866  0.32563915  1
  O2-  O514  1  0.65444078  0.83162442  0.64727230  1
  O2-  O515  1  0.64985406  0.83180870  0.96583684  1
  O2-  O516  1  0.90516842  0.07653732  0.32444422  1
  O2-  O517  1  0.92239790  0.07893607  0.60669493  1
  O2-  O518  1  0.89464447  0.06274975  1.03521280  1
  O2-  O519  1  1.00236600  0.33363435  0.28627277  1
  O2-  O520  1  0.94980634  0.33352385  0.62064997  1
  O2-  O521  1  0.91041651  0.33356553  0.97490547  1
  O2-  O522  1  0.89998451  0.61868452  0.33695202  1
  O2-  O523  1  0.87985907  0.55392987  0.63931575  1
  O2-  O524  1  0.91251789  0.58272468  0.98476913  1
  O2-  O525  1  0.91900672  0.82191964  0.32639609  1
  O2-  O526  1  0.94165313  0.82758418  0.63241815  1
  O2-  O527  1  0.90430495  0.82124575  0.95630059  1
  O2-  O528  1  0.07107089  0.15901577  0.03255706  1
  O2-  O529  1  0.07026331  0.15498316  0.36091915  1
  O2-  O530  1  0.07876002  0.16570549  0.65405967  1
  O2-  O531  1  0.07352798  0.41213659  0.01749069  1
  O2-  O532  1  0.12491948  0.46431823  0.33378545  1
  O2-  O533  1  0.10061120  0.42867544  0.68335421  1
  O2-  O534  1  0.08260192  0.66812325  -0.02581146  1
  O2-  O535  1  0.07990985  0.67421567  0.35053253  1
  O2-  O536  1  0.12297368  0.68240634  0.70456158  1
  O2-  O537  1  0.05123114  0.89342801  0.02631196  1
  O2-  O538  1  0.07928203  0.89761810  0.35726072  1
  O2-  O539  1  0.09082811  0.91351742  0.67102235  1
  O2-  O540  1  0.34816852  0.19592331  0.00701453  1
  O2-  O541  1  0.32602360  0.17347061  0.34729508  1
  O2-  O542  1  0.32849051  0.19159765  0.67917649  1
  O2-  O543  1  0.33089262  0.41824164  0.01327222  1
  O2-  O544  1  0.36321186  0.42933011  0.35213709  1
  O2-  O545  1  0.32607932  0.42552540  0.68686924  1
  O2-  O546  1  0.32222185  0.66262252  0.03393683  1
  O2-  O547  1  0.38821605  0.69064187  0.36263132  1
  O2-  O548  1  0.35165963  0.67078643  0.69404055  1
  O2-  O549  1  0.33520436  0.92365522  0.02863153  1
  O2-  O550  1  0.33559729  0.90963779  0.35917009  1
  O2-  O551  1  0.33425511  0.90057117  0.70283926  1
  O2-  O552  1  0.58272601  0.17640388  0.02363634  1
  O2-  O553  1  0.59474754  0.18742003  0.35484049  1
  O2-  O554  1  0.59022184  0.15847344  0.67996619  1
  O2-  O555  1  0.59046628  0.41391578  0.03481338  1
  O2-  O556  1  0.60213395  0.38959597  0.34460928  1
  O2-  O557  1  0.57730849  0.42285671  0.68101642  1
  O2-  O558  1  0.58089760  0.66917609  0.02575808  1
  O2-  O559  1  0.61512057  0.66297619  0.38683043  1
  O2-  O560  1  0.55965070  0.62331703  0.70203455  1
  O2-  O561  1  0.57508605  0.91244221  0.02126255  1
  O2-  O562  1  0.57476770  0.91336570  0.35814238  1
  O2-  O563  1  0.59403037  0.92846753  0.63598648  1
  O2-  O564  1  0.82829684  0.15890189  -0.01784353  1
  O2-  O565  1  0.82010471  0.17056702  0.32548213  1
  O2-  O566  1  0.86683677  0.17891400  0.65612467  1
  O2-  O567  1  0.83277566  0.41731818  0.02683726  1
  O2-  O568  1  0.82525931  0.45754893  0.36520996  1
  O2-  O569  1  0.79498629  0.40543052  0.69933352  1
  O2-  O570  1  0.81756775  0.64823153  0.04506901  1
  O2-  O571  1  0.84761251  0.65440183  0.36074733  1
  O2-  O572  1  0.82446006  0.67108644  0.68123659  1
  O2-  O573  1  0.81014254  0.89858480  -0.00255949  1
  O2-  O574  1  0.82630806  0.90800484  0.36608786  1
  O2-  O575  1  0.80313691  0.88892955  0.69348955  1
