# generated using pymatgen
data_H2O
_symmetry_space_group_name_H-M   'P 1'
_cell_length_a   17.97962396
_cell_length_b   17.97889062
_cell_length_c   22.00350737
_cell_angle_alpha   89.95789536
_cell_angle_beta   90.06310232
_cell_angle_gamma   120.02881262
_symmetry_Int_Tables_number   1
_chemical_formula_structural   H2O
_chemical_formula_sum   'H384 O192'
_cell_volume   6157.99882853
_cell_formula_units_Z   192
loop_
 _symmetry_equiv_pos_site_id
 _symmetry_equiv_pos_as_xyz
  1  'x, y, z'
loop_
 _atom_type_symbol
 _atom_type_oxidation_number
  H+  1.0
  O2-  -2.0
loop_
 _atom_site_type_symbol
 _atom_site_label
 _atom_site_symmetry_multiplicity
 _atom_site_fract_x
 _atom_site_fract_y
 _atom_site_fract_z
 _atom_site_occupancy
  H+  H0  1  0.79092905  0.60106222  0.65091491  1
  H+  H1  1  0.62097976  0.47777227  1.00199812  1
  H+  H2  1  0.10250538  0.16801114  0.08994476  1
  H+  H3  1  0.22673854  0.34578452  0.66934497  1
  H+  H4  1  0.39658026  0.28323370  0.84091752  1
  H+  H5  1  0.63481230  0.26801505  0.32719800  1
  H+  H6  1  0.89507977  0.53826761  0.17515872  1
  H+  H7  1  0.11260830  0.21840233  0.67180997  1
  H+  H8  1  0.39635958  0.36331853  0.67409160  1
  H+  H9  1  0.30263242  0.90346936  0.00323855  1
  H+  H10  1  0.65987743  0.61848552  0.97294023  1
  H+  H11  1  0.56191392  0.67141177  0.83118835  1
  H+  H12  1  0.85411568  0.95030111  0.81383784  1
  H+  H13  1  0.94017078  0.86477149  0.17262445  1
  H+  H14  1  0.47706302  0.87755252  0.83362207  1
  H+  H15  1  0.27587554  0.88711416  0.48953385  1
  H+  H16  1  0.38778475  0.11406264  0.33053598  1
  H+  H17  1  0.36126415  0.97076138  0.67012406  1
  H+  H18  1  0.36634693  0.73788745  1.00308671  1
  H+  H19  1  0.86800915  0.23137051  0.66856407  1
  H+  H20  1  0.97998927  0.37264524  0.99797381  1
  H+  H21  1  0.39513621  0.34918777  0.33124182  1
  H+  H22  1  0.10626522  0.13689905  0.82865599  1
  H+  H23  1  0.34763309  0.50407205  0.83772630  1
  H+  H24  1  0.28635577  0.30851633  0.74622053  1
  H+  H25  1  0.86725763  0.89741558  -0.00966907  1
  H+  H26  1  0.35975751  0.73654451  0.82384157  1
  H+  H27  1  0.37487896  0.53186865  0.99076584  1
  H+  H28  1  0.88685046  0.62266624  0.17497873  1
  H+  H29  1  0.49985212  0.60596102  0.33554428  1
  H+  H30  1  0.23011815  0.60961865  0.65165531  1
  H+  H31  1  0.86180375  0.37137422  0.34195649  1
  H+  H32  1  0.41205774  0.84682605  0.89408614  1
  H+  H33  1  0.54318557  0.39710840  0.82719289  1
  H+  H34  1  0.77761213  0.38766530  0.49526805  1
  H+  H35  1  0.88500110  0.01299018  0.16865938  1
  H+  H36  1  0.26293680  0.48834031  0.80795093  1
  H+  H37  1  0.47582739  0.13029041  0.84038364  1
  H+  H38  1  0.24677222  0.77783052  0.96138105  1
  H+  H39  1  0.88593551  0.76463827  0.32911888  1
  H+  H40  1  0.13416115  0.27799917  1.00884857  1
  H+  H41  1  0.60532816  0.88092715  0.35011917  1
  H+  H42  1  -0.03890959  0.09132411  0.82646917  1
  H+  H43  1  0.18809544  -0.01257423  0.19255763  1
  H+  H44  1  0.23268229  0.36352109  0.17752859  1
  H+  H45  1  0.11699631  0.48618667  0.00341620  1
  H+  H46  1  0.33786016  0.17285418  0.73726735  1
  H+  H47  1  0.64310390  0.02628977  0.32814509  1
  H+  H48  1  0.64289727  0.78964376  0.40550450  1
  H+  H49  1  0.61300928  0.13396359  0.34290685  1
  H+  H50  1  0.39157121  0.13284681  1.00636376  1
  H+  H51  1  0.84392314  0.11485797  0.81196194  1
  H+  H52  1  0.71714294  1.10972742  0.83193795  1
  H+  H53  1  0.36308539  0.89285585  0.34250250  1
  H+  H54  1  0.95665985  0.60815921  0.62387795  1
  H+  H55  1  0.14686945  0.27374075  0.32851401  1
  H+  H56  1  0.89462980  0.60578510  0.99717408  1
  H+  H57  1  0.41085251  0.37827095  0.84496816  1
  H+  H58  1  0.63434312  1.04413022  -0.00945639  1
  H+  H59  1  0.96945637  0.85514416  0.32120670  1
  H+  H60  1  0.61336183  0.23261937  0.82423131  1
  H+  H61  1  0.84791501  0.97857385  0.33846758  1
  H+  H62  1  0.38183656  0.87302398  0.17612783  1
  H+  H63  1  0.74638222  0.34239034  0.68085356  1
  H+  H64  1  0.32270724  0.52598431  0.30923731  1
  H+  H65  1  0.92433284  0.37727856  0.66933582  1
  H+  H66  1  0.10527986  0.39792732  0.82976526  1
  H+  H67  1  1.03915638  0.38568688  0.34132271  1
  H+  H68  1  0.61196632  0.89863169  0.67904175  1
  H+  H69  1  0.62260894  0.76910809  0.65978850  1
  H+  H70  1  0.63242450  0.82123013  0.97751422  1
  H+  H71  1  0.25622500  0.62149519  0.49339744  1
  H+  H72  1  0.28523483  0.13121074  0.16331746  1
  H+  H73  1  0.77956922  0.39553793  0.17067558  1
  H+  H74  1  0.37345375  0.22822646  0.16481876  1
  H+  H75  1  0.52263862  0.13314218  0.33986337  1
  H+  H76  1  0.57136130  0.92171003  0.77170222  1
  H+  H77  1  0.03729393  0.14927418  0.50466919  1
  H+  H78  1  0.14817740  0.78187449  0.32177806  1
  H+  H79  1  0.14982065  0.27870574  0.51625220  1
  H+  H80  1  0.23192309  0.87410603  0.32761608  1
  H+  H81  1  0.92080564  0.49073950  0.67692649  1
  H+  H82  1  0.64474439  0.36861018  0.50319557  1
  H+  H83  1  0.02332362  0.13077689  0.32845793  1
  H+  H84  1  0.12870235  0.76193634  0.49043886  1
  H+  H85  1  0.72852791  0.35231144  0.32935178  1
  H+  H86  1  0.76891620  0.05461685  0.11089090  1
  H+  H87  1  0.03584531  0.38231286  0.67276384  1
  H+  H88  1  0.11304094  0.39551844  1.01190111  1
  H+  H89  1  0.91639007  0.61157872  0.84156940  1
  H+  H90  1  0.19729643  0.35997091  0.85274037  1
  H+  H91  1  0.64283384  0.12916033  0.17823293  1
  H+  H92  1  0.34396449  0.41586253  0.43704252  1
  H+  H93  1  0.36645241  0.98391118  0.34057442  1
  H+  H94  1  0.23338863  0.61247806  0.33089513  1
  H+  H95  1  0.64376448  0.51280002  0.33041842  1
  H+  H96  1  0.64628388  0.88708982  0.50228532  1
  H+  H97  1  0.98358535  0.60641819  0.99839551  1
  H+  H98  1  0.27874924  0.90528839  0.15808576  1
  H+  H99  1  0.60674710  0.14084545  0.82332465  1
  H+  H100  1  0.90120061  0.29657663  0.17256784  1
  H+  H101  1  0.14346814  0.52173786  0.65787577  1
  H+  H102  1  0.12456372  0.38315702  0.67716346  1
  H+  H103  1  0.65834409  0.52849287  0.83146086  1
  H+  H104  1  0.37554324  0.72891647  0.66706828  1
  H+  H105  1  0.86124621  0.38569947  0.01436827  1
  H+  H106  1  0.82377212  0.77807601  0.96253061  1
  H+  H107  1  0.36776307  0.15342288  0.83233807  1
  H+  H108  1  0.85635586  0.54390327  0.62051965  1
  H+  H109  1  0.88850504  0.10155159  0.16804874  1
  H+  H110  1  0.86413938  0.38003961  0.83203616  1
  H+  H111  1  0.95454460  0.12311746  0.96014995  1
  H+  H112  1  0.12900371  0.64178228  0.33542617  1
  H+  H113  1  0.39070029  0.85949817  0.65607036  1
  H+  H114  1  0.61666531  0.48023563  0.16420610  1
  H+  H115  1  0.23242886  0.62306836  0.98692150  1
  H+  H116  1  0.72796533  0.84209322  0.98581045  1
  H+  H117  1  0.00893927  0.63211268  0.47512401  1
  H+  H118  1  1.02183336  0.13085389  0.67144105  1
  H+  H119  1  0.87296845  0.71562790  0.00675635  1
  H+  H120  1  0.62734099  0.99644263  0.49055842  1
  H+  H121  1  0.12080089  0.72056341  1.00656185  1
  H+  H122  1  0.58419952  0.92774832  0.40104383  1
  H+  H123  1  0.52428281  0.13988242  0.49617389  1
  H+  H124  1  0.61675448  0.98997945  0.67543676  1
  H+  H125  1  0.90238221  0.27390457  0.32696561  1
  H+  H126  1  0.89226090  0.85141648  0.82685137  1
  H+  H127  1  0.48501757  0.35307605  0.17662593  1
  H+  H128  1  0.86338441  0.14016418  0.66580310  1
  H+  H129  1  0.09572600  0.75175542  0.66017842  1
  H+  H130  1  0.49739912  0.14119520  0.00513691  1
  H+  H131  1  0.26717082  0.87059550  0.81741564  1
  H+  H132  1  0.65082479  0.94376610  -0.04399987  1
  H+  H133  1  0.82170828  0.15904472  0.75828580  1
  H+  H134  1  0.36797780  0.23049261  0.49961980  1
  H+  H135  1  0.78791972  0.62921579  0.35094334  1
  H+  H136  1  0.86410291  0.47486981  0.01321250  1
  H+  H137  1  0.17212777  0.82574577  0.57351864  1
  H+  H138  1  0.28054368  0.14444592  0.01210412  1
  H+  H139  1  1.01904313  0.88269825  0.48882850  1
  H+  H140  1  0.48517205  0.35105316  0.33258966  1
  H+  H141  1  0.78341065  0.14933384  0.49303651  1
  H+  H142  1  0.02839887  0.11933159  0.17408672  1
  H+  H143  1  0.09222941  0.88353619  0.00990453  1
  H+  H144  1  0.40371284  0.88115915  0.50374331  1
  H+  H145  1  0.60534935  0.63735649  0.18063831  1
  H+  H146  1  0.17922105  0.58045013  0.23920726  1
  H+  H147  1  0.93552842  0.70119712  0.68518851  1
  H+  H148  1  0.59176390  0.90054291  0.22070896  1
  H+  H149  1  0.00904924  0.88583360  -0.00756495  1
  H+  H150  1  0.63603888  0.11560230  0.65902698  1
  H+  H151  1  0.57814363  0.16410407  0.72969690  1
  H+  H152  1  0.77904526  0.90098061  0.49321545  1
  H+  H153  1  0.59201099  0.41409672  0.40208967  1
  H+  H154  1  0.33951270  0.17394995  0.07330234  1
  H+  H155  1  0.11332118  0.88632308  0.33660407  1
  H+  H156  1  0.85921289  0.60634059  0.49652459  1
  H+  H157  1  0.15554861  0.26742307  0.18809454  1
  H+  H158  1  0.39791136  0.04132914  1.00335397  1
  H+  H159  1  0.66971276  0.62399848  0.83551423  1
  H+  H160  1  0.22831242  0.10728052  0.32888739  1
  H+  H161  1  0.48622821  0.12350633  0.17691817  1
  H+  H162  1  0.61137201  0.70398270  0.01758881  1
  H+  H163  1  0.38492357  0.10622491  0.66710329  1
  H+  H164  1  0.36635979  0.21967354  0.34488833  1
  H+  H165  1  0.36224191  0.39534332  1.00221353  1
  H+  H166  1  0.64539604  0.37198756  0.17805155  1
  H+  H167  1  0.23814497  0.36992832  0.51266150  1
  H+  H168  1  0.86133230  0.23593992  0.00146400  1
  H+  H169  1  0.48668407  0.62564523  0.50352447  1
  H+  H170  1  0.78094583  0.14142241  0.34229733  1
  H+  H171  1  0.47621909  0.62565837  0.18406493  1
  H+  H172  1  0.13797660  1.01824766  0.32811517  1
  H+  H173  1  -0.01725961  0.36684739  0.50685452  1
  H+  H174  1  0.76476481  0.36738147  0.65203275  1
  H+  H175  1  0.14432344  0.81680591  0.16843876  1
  H+  H176  1  0.87814319  0.10482622  0.32630251  1
  H+  H177  1  0.86416842  0.76956048  0.50063277  1
  H+  H178  1  0.72922113  0.36503068  0.99951237  1
  H+  H179  1  0.53631522  0.90655199  0.49321887  1
  H+  H180  1  -0.00133054  0.63457191  0.32174121  1
  H+  H181  1  0.44456385  0.60191426  0.77851984  1
  H+  H182  1  0.83568075  0.87637013  0.15665034  1
  H+  H183  1  0.14481577  0.03339150  0.85069039  1
  H+  H184  1  0.62279225  0.24241489  0.16683700  1
  H+  H185  1  0.62896569  0.48888677  0.49130881  1
  H+  H186  1  0.72929451  0.92130205  0.11175402  1
  H+  H187  1  0.76337650  0.12196248  0.15068715  1
  H+  H188  1  0.86632768  0.11756851  -0.02347189  1
  H+  H189  1  0.15388362  0.57798165  0.56467673  1
  H+  H190  1  0.27016124  0.39019896  1.00161537  1
  H+  H191  1  0.64406269  0.12559894  0.50439892  1
  H+  H192  1  0.85892955  0.47855756  0.47888341  1
  H+  H193  1  0.41107670  0.88885142  -0.00637550  1
  H+  H194  1  0.36794052  0.14152433  0.50090353  1
  H+  H195  1  0.11398961  0.26677209  0.84434253  1
  H+  H196  1  0.76141499  0.88843085  0.66461758  1
  H+  H197  1  0.23661649  0.61929324  0.17486981  1
  H+  H198  1  0.53716549  0.40193952  0.49883187  1
  H+  H199  1  0.77215842  0.85347075  0.81383220  1
  H+  H200  1  0.03289849  0.67120471  0.16370021  1
  H+  H201  1  0.36458863  0.64737787  0.34603314  1
  H+  H202  1  0.27655619  0.87808503  0.65888852  1
  H+  H203  1  0.60810031  0.14956352  0.00489155  1
  H+  H204  1  0.88117709  0.64107344  0.33844739  1
  H+  H205  1  0.11343222  0.11290757  0.17802303  1
  H+  H206  1  0.13073513  0.85337148  0.49261058  1
  H+  H207  1  0.14188518  0.75828796  0.83928710  1
  H+  H208  1  0.12905259  0.38576641  0.34202893  1
  H+  H209  1  0.37574276  0.48269565  0.49317662  1
  H+  H210  1  0.47192535  0.86567239  0.33054635  1
  H+  H211  1  0.13357757  0.10695121  0.66523614  1
  H+  H212  1  0.58749905  0.20889805  0.66349205  1
  H+  H213  1  0.46091156  0.61868537  0.00048034  1
  H+  H214  1  0.38807825  0.62978300  0.17390675  1
  H+  H215  1  0.14000543  0.02169660  0.66904832  1
  H+  H216  1  0.97193572  0.89122189  0.64311254  1
  H+  H217  1  0.62048559  0.37998986  0.34325062  1
  H+  H218  1  0.14672102  0.51881166  0.32908116  1
  H+  H219  1  0.11963890  0.38498979  0.49873866  1
  H+  H220  1  0.71126732  0.50722786  0.64729608  1
  H+  H221  1  0.49066652  0.87448293  -0.01846981  1
  H+  H222  1  0.03383647  0.13818517  0.03937381  1
  H+  H223  1  0.39616846  0.12127696  0.17207751  1
  H+  H224  1  0.97755603  0.36542616  0.83606049  1
  H+  H225  1  0.04667404  0.61265168  0.83978583  1
  H+  H226  1  0.22942189  0.10832601  0.50982779  1
  H+  H227  1  0.08442159  0.83668470  0.71180196  1
  H+  H228  1  0.11471307  0.63131344  0.01030974  1
  H+  H229  1  0.62082560  0.75147417  0.34224651  1
  H+  H230  1  0.72823812  0.11960701  0.65679037  1
  H+  H231  1  0.27879465  0.14014644  0.67788089  1
  H+  H232  1  0.64645433  0.92895403  0.12824588  1
  H+  H233  1  0.87318702  0.23760768  0.49372674  1
  H+  H234  1  0.03086928  0.41206070  0.16108063  1
  H+  H235  1  0.38721442  1.02710207  0.50957545  1
  H+  H236  1  0.58028401  0.67798319  0.12653873  1
  H+  H237  1  0.39887142  0.37179060  0.51039262  1
  H+  H238  1  0.84813195  0.72582505  0.16445330  1
  H+  H239  1  0.34768408  0.62483354  0.49513497  1
  H+  H240  1  0.87900929  0.61027613  0.42837325  1
  H+  H241  1  0.41195594  0.64501689  0.82391016  1
  H+  H242  1  0.11045260  0.97036778  0.49409530  1
  H+  H243  1  0.36723182  0.87482024  0.82297262  1
  H+  H244  1  0.14470517  0.12284472  1.00431513  1
  H+  H245  1  0.33302292  0.16210690  0.40519011  1
  H+  H246  1  0.55935597  0.63816303  0.39371155  1
  H+  H247  1  0.30773217  0.40262473  0.76015522  1
  H+  H248  1  0.78479977  0.62827549  0.00454000  1
  H+  H249  1  0.03307460  0.88575694  0.84587292  1
  H+  H250  1  0.88583487  0.75106774  0.67400794  1
  H+  H251  1  0.38187738  0.77757911  0.33380931  1
  H+  H252  1  0.85477924  0.97959783  -0.00854328  1
  H+  H253  1  0.32750254  0.90029685  0.75415442  1
  H+  H254  1  0.54733935  0.40739299  0.67235952  1
  H+  H255  1  0.13744529  0.03224770  0.99372707  1
  H+  H256  1  0.57316127  0.60763908  0.04398209  1
  H+  H257  1  0.90181967  0.76612606  0.83351027  1
  H+  H258  1  0.35920957  0.73884546  0.15972044  1
  H+  H259  1  0.32770855  0.43202594  0.09675007  1
  H+  H260  1  0.62412723  0.74891332  0.49346746  1
  H+  H261  1  0.27998399  0.37187252  0.34304310  1
  H+  H262  1  0.73440689  0.36434027  0.84095829  1
  H+  H263  1  0.75464732  0.87890446  0.35427866  1
  H+  H264  1  0.13725601  0.51739570  0.16986217  1
  H+  H265  1  0.40081325  0.62080169  0.66325419  1
  H+  H266  1  0.16044858  0.87785379  0.62649032  1
  H+  H267  1  0.18020574  0.05288789  0.23818372  1
  H+  H268  1  0.12405721  0.51576345  0.50659845  1
  H+  H269  1  0.66761314  0.77788354  0.88920022  1
  H+  H270  1  0.40332710  0.53316449  0.66005812  1
  H+  H271  1  0.88389837  1.02576608  0.65579902  1
  H+  H272  1  0.60374560  0.33642236  0.65169287  1
  H+  H273  1  0.86387751  0.89134556  0.48799575  1
  H+  H274  1  0.13833895  0.84779781  0.84809783  1
  H+  H275  1  0.61321144  0.24278673  1.00604778  1
  H+  H276  1  0.87611639  0.87156449  0.64905219  1
  H+  H277  1  0.07995946  0.97555237  0.15579541  1
  H+  H278  1  0.32697829  0.66624323  0.40732608  1
  H+  H279  1  0.54832429  0.64437232  0.68198954  1
  H+  H280  1  0.63182629  0.03540320  0.18730209  1
  H+  H281  1  0.71983202  0.61200044  0.17725149  1
  H+  H282  1  0.63058290  0.39444832  0.82741346  1
  H+  H283  1  0.63770304  0.59741503  0.32941159  1
  H+  H284  1  0.37176738  0.45670259  0.33882801  1
  H+  H285  1  0.89553539  0.03628906  0.50351911  1
  H+  H286  1  0.89272910  0.38048629  0.17808688  1
  H+  H287  1  0.27817669  0.15416939  0.83174263  1
  H+  H288  1  0.82647045  0.39626019  0.40045101  1
  H+  H289  1  0.39325532  0.28332197  0.99932178  1
  H+  H290  1  0.42257658  0.10873021  0.90172800  1
  H+  H291  1  0.43372085  0.84738195  0.56027603  1
  H+  H292  1  0.72281381  0.13301738  0.98850200  1
  H+  H293  1  0.90199140  0.81856456  0.91675493  1
  H+  H294  1  0.17149194  0.10031600  0.90427386  1
  H+  H295  1  0.42929018  0.34370041  0.57010292  1
  H+  H296  1  0.69086546  0.58174645  0.92031639  1
  H+  H297  1  0.82972810  0.92482179  0.40860930  1
  H+  H298  1  0.66258368  0.09431901  0.89342569  1
  H+  H299  1  0.04057021  0.92861569  0.09392869  1
  H+  H300  1  0.09909840  0.91727152  0.79263280  1
  H+  H301  1  0.66931340  0.84844947  0.56110968  1
  H+  H302  1  0.89506422  0.12514759  0.50547542  1
  H+  H303  1  0.11227929  0.13216487  0.32565435  1
  H+  H304  1  0.33913732  0.92671696  0.43406906  1
  H+  H305  1  0.52868000  0.39253265  0.00732767  1
  H+  H306  1  0.63648383  0.66788710  0.48410932  1
  H+  H307  1  0.60593129  0.42582155  0.73041500  1
  H+  H308  1  0.27065393  0.64941611  0.82105419  1
  H+  H309  1  0.08061982  0.91294137  0.39590909  1
  H+  H310  1  0.40039605  0.27912880  0.66516633  1
  H+  H311  1  0.51182231  0.89077554  0.18372297  1
  H+  H312  1  0.05869191  0.68621336  0.71614108  1
  H+  H313  1  0.09346996  0.62335586  0.49075167  1
  H+  H314  1  0.90564516  0.83359339  0.55540404  1
  H+  H315  1  0.59581979  0.98100661  0.83047092  1
  H+  H316  1  0.67136181  0.33753010  0.23849400  1
  H+  H317  1  0.20086551  0.81838706  0.92566223  1
  H+  H318  1  0.09643860  0.67115278  0.39346795  1
  H+  H319  1  0.66637006  0.57624722  0.23880071  1
  H+  H320  1  0.09190470  0.69255882  0.10657853  1
  H+  H321  1  0.33166880  0.68035534  0.09892890  1
  H+  H322  1  0.93222502  0.33994713  0.27093128  1
  H+  H323  1  0.37251685  0.98874365  0.15968216  1
  H+  H324  1  0.57968562  0.16585721  0.43429861  1
  H+  H325  1  0.87130499  0.47148145  0.83380478  1
  H+  H326  1  0.16731486  0.59520787  0.92920573  1
  H+  H327  1  0.89354438  0.27149351  0.84134614  1
  H+  H328  1  0.83819530  0.91634151  0.09088767  1
  H+  H329  1  0.08628061  0.42501533  0.76462699  1
  H+  H330  1  0.82023959  0.90444500  0.72327725  1
  H+  H331  1  0.09191948  0.41125248  0.43626982  1
  H+  H332  1  0.34033779  0.67175196  0.72711109  1
  H+  H333  1  0.41718913  0.08309632  0.57055253  1
  H+  H334  1  0.69763431  0.86450956  0.23605038  1
  H+  H335  1  0.80193258  0.63534862  0.82358450  1
  H+  H336  1  0.12359861  0.54284866  0.82873680  1
  H+  H337  1  0.92920712  0.33844801  0.60299133  1
  H+  H338  1  0.17379687  0.91984885  0.72136830  1
  H+  H339  1  0.48372536  0.87069576  0.66114662  1
  H+  H340  1  0.14541345  0.32370833  0.94390381  1
  H+  H341  1  0.18472355  0.33597361  0.27166715  1
  H+  H342  1  0.39554196  0.57825679  0.26022509  1
  H+  H343  1  0.88629592  0.43734553  0.73955780  1
  H+  H344  1  0.59314164  0.42265557  0.10361911  1
  H+  H345  1  0.82859910  0.66502216  0.10572255  1
  H+  H346  1  0.89153665  0.82359530  0.23615449  1
  H+  H347  1  0.62746037  0.30591241  0.59024327  1
  H+  H348  1  0.82240997  0.16081438  0.05375700  1
  H+  H349  1  0.92036811  0.08787915  0.59779893  1
  H+  H350  1  0.92262515  0.34350102  0.93735863  1
  H+  H351  1  0.64616880  0.93175352  0.02939345  1
  H+  H352  1  0.18125365  0.86174020  0.23129191  1
  H+  H353  1  0.07688294  0.16284751  0.76730420  1
  H+  H354  1  0.86622740  0.67415050  0.76688695  1
  H+  H355  1  0.61545899  0.68964148  0.73620300  1
  H+  H356  1  0.17850657  0.33243696  0.60404155  1
  H+  H357  1  0.93341447  0.57751649  0.90443859  1
  H+  H358  1  0.42628237  0.33977770  0.93862962  1
  H+  H359  1  0.84401593  0.17200881  0.39994398  1
  H+  H360  1  0.89492945  0.37082750  0.50796823  1
  H+  H361  1  0.08983137  0.44177631  0.09987032  1
  H+  H362  1  0.12226196  0.14239020  0.50526258  1
  H+  H363  1  0.16973184  0.07484139  0.56857520  1
  H+  H364  1  0.67557842  0.09360978  0.27240511  1
  H+  H365  1  0.89109387  0.05900366  0.87905597  1
  H+  H366  1  0.36005297  0.64531932  0.00456082  1
  H+  H367  1  0.56695014  0.79626013  0.62050426  1
  H+  H368  1  0.90052711  0.06671810  0.26613468  1
  H+  H369  1  0.34971360  0.93662540  0.06823067  1
  H+  H370  1  0.63973625  0.27672020  0.50003847  1
  H+  H371  1  0.40298313  0.83648369  0.23768802  1
  H+  H372  1  0.42750100  0.31866573  0.23671481  1
  H+  H373  1  0.41863449  0.08844185  0.26869894  1
  H+  H374  1  0.67323530  0.09447514  0.56361754  1
  H+  H375  1  0.72199459  0.84155947  0.24311304  1
  H+  H376  1  0.43387652  0.59327752  0.56477296  1
  H+  H377  1  0.64123336  0.36876710  0.99552032  1
  H+  H378  1  0.35586610  0.48962440  0.15647002  1
  H+  H379  1  0.67312955  0.33649755  0.89978357  1
  H+  H380  1  0.93609480  0.60516869  0.26432705  1
  H+  H381  1  0.47153440  0.10096972  0.66569318  1
  H+  H382  1  0.83573605  0.42194467  0.10974360  1
  H+  H383  1  0.59048092  0.18311895  0.10692940  1
  O2-  O384  1  0.09059522  0.14856903  0.16270137  1
  O2-  O385  1  0.09968390  0.18125925  0.49614719  1
  O2-  O386  1  0.07160116  0.16215848  0.81274679  1
  O2-  O387  1  0.09108031  0.44397051  0.14545838  1
  O2-  O388  1  0.08647086  0.41113903  0.48148746  1
  O2-  O389  1  0.08389164  0.43332490  0.81014087  1
  O2-  O390  1  0.09196441  0.71087012  0.14871641  1
  O2-  O391  1  0.07221247  0.65956769  0.47063176  1
  O2-  O392  1  0.10683091  0.64546293  0.82201766  1
  O2-  O393  1  0.02554732  0.94485015  0.13270553  1
  O2-  O394  1  0.08026217  0.91085502  0.47659799  1
  O2-  O395  1  0.09648868  0.91616705  0.83770167  1
  O2-  O396  1  0.34235425  0.16760405  0.14432216  1
  O2-  O397  1  0.33555279  0.16973333  0.48545941  1
  O2-  O398  1  0.33803513  0.18514568  0.81564839  1
  O2-  O399  1  0.32377549  0.42988861  0.14150205  1
  O2-  O400  1  0.34453597  0.42050210  0.48234091  1
  O2-  O401  1  0.29188795  0.45767034  0.82194973  1
  O2-  O402  1  0.33179469  0.67838706  0.14436659  1
  O2-  O403  1  0.31573408  0.65032845  0.47661536  1
  O2-  O404  1  0.33194542  0.67583949  0.80926940  1
  O2-  O405  1  0.33985718  0.92899093  0.14248583  1
  O2-  O406  1  0.33767259  0.92455495  0.47972754  1
  O2-  O407  1  0.32770418  0.90089569  0.80073433  1
  O2-  O408  1  0.59190405  0.18061944  0.15168147  1
  O2-  O409  1  0.58410777  0.16959084  0.47974079  1
  O2-  O410  1  0.57735531  0.17240754  0.80924186  1
  O2-  O411  1  0.59249180  0.41975253  0.14859935  1
  O2-  O412  1  0.59592352  0.42732230  0.48069083  1
  O2-  O413  1  0.60291223  0.42751105  0.81145887  1
  O2-  O414  1  0.57699330  0.67161874  0.17099395  1
  O2-  O415  1  0.59806813  0.69110505  0.47348609  1
  O2-  O416  1  0.62415162  0.69272383  0.82205327  1
  O2-  O417  1  0.57734451  0.92212819  0.18451025  1
  O2-  O418  1  0.59769465  0.93511595  0.47598823  1
  O2-  O419  1  0.56284680  0.91965704  0.81670582  1
  O2-  O420  1  0.80478751  0.11605955  0.12336707  1
  O2-  O421  1  0.84384783  0.17687144  0.47774123  1
  O2-  O422  1  0.82002235  0.15306681  0.80386749  1
  O2-  O423  1  0.84033359  0.42552299  0.15499350  1
  O2-  O424  1  0.83748936  0.41582988  0.47856452  1
  O2-  O425  1  0.83547261  0.41214630  0.81761258  1
  O2-  O426  1  0.82318076  0.66431282  0.15047244  1
  O2-  O427  1  0.77902999  0.65329096  0.51117606  1
  O2-  O428  1  0.86405815  0.66747868  0.81231875  1
  O2-  O429  1  0.82210357  0.91688654  0.13376854  1
  O2-  O430  1  0.83838059  0.92792301  0.47520097  1
  O2-  O431  1  0.83104853  0.89057505  0.79714054  1
  O2-  O432  1  0.18381176  0.04026028  0.19348596  1
  O2-  O433  1  0.16820782  0.07376773  0.52356810  1
  O2-  O434  1  0.16962578  0.09574903  0.85895131  1
  O2-  O435  1  0.17833034  0.32720175  0.20092052  1
  O2-  O436  1  0.17933453  0.34122984  0.53044400  1
  O2-  O437  1  0.13668866  0.32399225  0.86467960  1
  O2-  O438  1  0.17719884  0.58312039  0.19284336  1
  O2-  O439  1  0.14906244  0.57717669  0.51896212  1
  O2-  O440  1  0.15424044  0.60314908  0.84608055  1
  O2-  O441  1  0.18358977  0.87496171  0.18689452  1
  O2-  O442  1  0.16294651  0.82351165  0.50475796  1
  O2-  O443  1  0.17423753  0.81959298  0.85217043  1
  O2-  O444  1  0.42459172  0.08975423  0.18934817  1
  O2-  O445  1  0.41871543  0.08754244  0.52532160  1
  O2-  O446  1  0.41662065  0.10662680  0.85741291  1
  O2-  O447  1  0.42542886  0.31632064  0.19153690  1
  O2-  O448  1  0.43058214  0.34247871  0.52496657  1
  O2-  O449  1  0.43511218  0.34315765  0.85822640  1
  O2-  O450  1  0.41178696  0.59541010  0.19239465  1
  O2-  O451  1  0.42788797  0.58996812  0.52002710  1
  O2-  O452  1  0.44646356  0.61564679  0.82165063  1
  O2-  O453  1  0.40892348  0.83964327  0.19222235  1
  O2-  O454  1  0.44179099  0.85851960  0.51609920  1
  O2-  O455  1  0.41014421  0.84305641  0.84861253  1
  O2-  O456  1  0.67245869  0.09785962  0.19340781  1
  O2-  O457  1  0.67727946  0.09735012  0.51819044  1
  O2-  O458  1  0.65746337  0.08576754  0.84883257  1
  O2-  O459  1  0.67513301  0.34045840  0.19247570  1
  O2-  O460  1  0.67241268  0.33575630  0.51782745  1
  O2-  O461  1  0.67245431  0.33651342  0.85459630  1
  O2-  O462  1  0.65984347  0.57966580  0.19359977  1
  O2-  O463  1  0.69943608  0.61457963  0.49379727  1
  O2-  O464  1  0.69566516  0.58889542  0.84793913  1
  O2-  O465  1  0.69259713  0.94488258  0.09717039  1
  O2-  O466  1  0.67638620  0.85442988  0.51627158  1
  O2-  O467  1  0.66905732  0.78237684  0.84388686  1
  O2-  O468  1  0.91655368  0.07209601  0.18726656  1
  O2-  O469  1  0.92412669  0.09417682  0.52226940  1
  O2-  O470  1  0.89806992  0.05431598  0.83488361  1
  O2-  O471  1  0.92902146  0.35372479  0.19057136  1
  O2-  O472  1  0.92273157  0.33803212  0.52323008  1
  O2-  O473  1  0.92091370  0.33101344  0.85699531  1
  O2-  O474  1  0.92553036  0.59998054  0.18635702  1
  O2-  O475  1  0.89205326  0.59214211  0.46778704  1
  O2-  O476  1  0.94169778  0.57816291  0.85926186  1
  O2-  O477  1  0.88262666  0.82433709  0.19036832  1
  O2-  O478  1  0.90435538  0.83089329  0.51015295  1
  O2-  O479  1  0.92431005  0.82708458  0.84894552  1
  O2-  O480  1  0.17094556  0.07657248  0.30847702  1
  O2-  O481  1  0.16806255  0.07950605  0.65175908  1
  O2-  O482  1  0.17316250  0.09418730  0.98376049  1
  O2-  O483  1  0.18410432  0.33649790  0.31842417  1
  O2-  O484  1  0.17015256  0.32312075  0.64975475  1
  O2-  O485  1  0.15766800  0.33438143  0.98830963  1
  O2-  O486  1  0.17527661  0.57854181  0.31129897  1
  O2-  O487  1  0.16899453  0.58026804  0.64016686  1
  O2-  O488  1  0.17042407  0.58968732  0.97374455  1
  O2-  O489  1  0.17310446  0.84335843  0.30919387  1
  O2-  O490  1  0.17637162  0.83374024  0.62036136  1
  O2-  O491  1  0.21878232  0.81183070  0.96764905  1
  O2-  O492  1  0.41948067  0.08548112  0.31401292  1
  O2-  O493  1  0.40972043  0.07147860  0.65100229  1
  O2-  O494  1  0.42719152  0.10508725  0.99064893  1
  O2-  O495  1  0.42479355  0.31815980  0.31659679  1
  O2-  O496  1  0.42855917  0.34066893  0.65248792  1
  O2-  O497  1  0.42426610  0.34339142  0.98369438  1
  O2-  O498  1  0.38469930  0.56465304  0.30635426  1
  O2-  O499  1  0.43693216  0.59422779  0.65066285  1
  O2-  O500  1  0.40464233  0.59426942  0.98014598  1
  O2-  O501  1  0.41140120  0.83682201  0.31563742  1
  O2-  O502  1  0.42536503  0.83307476  0.64315367  1
  O2-  O503  1  0.42905680  0.85113837  0.97266296  1
  O2-  O504  1  0.67455147  0.08870676  0.31769368  1
  O2-  O505  1  0.66703746  0.08617256  0.64254543  1
  O2-  O506  1  0.66020367  0.10377065  0.97595153  1
  O2-  O507  1  0.66734577  0.32875703  0.31276396  1
  O2-  O508  1  0.59206939  0.28488726  0.62780502  1
  O2-  O509  1  0.66955168  0.33551758  0.98157592  1
  O2-  O510  1  0.67385008  0.57377658  0.31549121  1
  O2-  O511  1  0.76498316  0.54809317  0.62652951  1
  O2-  O512  1  0.68647757  0.58333190  0.96655772  1
  O2-  O513  1  0.65090086  0.80853466  0.36290491  1
  O2-  O514  1  0.62550556  0.82022157  0.63610160  1
  O2-  O515  1  0.66964327  0.79611924  0.97173684  1
  O2-  O516  1  0.89801857  0.06441965  0.31156695  1
  O2-  O517  1  0.91949976  0.08679491  0.64368758  1
  O2-  O518  1  0.89276682  0.08327444  0.96001250  1
  O2-  O519  1  0.93474949  0.33602372  0.31576836  1
  O2-  O520  1  0.93345977  0.33202848  0.64772437  1
  O2-  O521  1  0.91915126  0.34068608  0.98266918  1
  O2-  O522  1  0.93749378  0.60586424  0.30943530  1
  O2-  O523  1  0.91408897  0.54776903  0.61965859  1
  O2-  O524  1  0.92336787  0.57424905  0.98178268  1
  O2-  O525  1  0.90848564  0.82152955  0.30874939  1
  O2-  O526  1  0.91282990  0.84728051  0.63433535  1
  O2-  O527  1  0.88646576  0.81335930  0.96239056  1
  O2-  O528  1  0.09597898  0.17205641  0.04431352  1
  O2-  O529  1  0.08509859  0.16669069  0.33618106  1
  O2-  O530  1  0.08175564  0.15824586  0.68847038  1
  O2-  O531  1  0.08429161  0.42884609  0.02355563  1
  O2-  O532  1  0.09959118  0.41738072  0.35701753  1
  O2-  O533  1  0.09518474  0.41465979  0.69101579  1
  O2-  O534  1  0.08501831  0.66278697  0.02415778  1
  O2-  O535  1  0.10568336  0.67895714  0.34864625  1
  O2-  O536  1  0.04841912  0.72513750  0.69119469  1
  O2-  O537  1  0.06594152  0.91956079  0.01117694  1
  O2-  O538  1  0.08161941  0.91581004  0.35075454  1
  O2-  O539  1  0.11308154  0.90062967  0.71466089  1
  O2-  O540  1  0.34141526  0.17489570  0.02658474  1
  O2-  O541  1  0.33222923  0.15859991  0.35986109  1
  O2-  O542  1  0.33950075  0.17013180  0.69188149  1
  O2-  O543  1  0.33152033  0.42638288  0.01337851  1
  O2-  O544  1  0.34202528  0.39998183  0.35850831  1
  O2-  O545  1  0.31038548  0.36531129  0.72776049  1
  O2-  O546  1  0.33064087  0.67868575  0.01870557  1
  O2-  O547  1  0.33247540  0.67505336  0.36077598  1
  O2-  O548  1  0.34711847  0.66818465  0.68261835  1
  O2-  O549  1  0.35894281  0.94426419  0.02242191  1
  O2-  O550  1  0.33382885  0.92410378  0.35760260  1
  O2-  O551  1  0.33143745  0.90750038  0.68221889  1
  O2-  O552  1  0.57804482  0.18008638  0.02147519  1
  O2-  O553  1  0.58236320  0.16419656  0.35695148  1
  O2-  O554  1  0.57367609  0.15272377  0.68513702  1
  O2-  O555  1  0.59041411  0.41986084  0.02054912  1
  O2-  O556  1  0.58878733  0.41010387  0.35683998  1
  O2-  O557  1  0.60693678  0.42659004  0.68526599  1
  O2-  O558  1  0.56488066  0.65713724  0.04199996  1
  O2-  O559  1  0.56019426  0.63626004  0.34897179  1
  O2-  O560  1  0.60889419  0.68651009  0.69156519  1
  O2-  O561  1  0.61183480  0.92257795  -0.00923250  1
  O2-  O562  1  0.58128746  0.91942543  0.35535420  1
  O2-  O563  1  0.58392798  0.93048013  0.69401485  1
  O2-  O564  1  0.82465793  0.17207105  0.00870559  1
  O2-  O565  1  0.84273390  0.16800095  0.35431475  1
  O2-  O566  1  0.83200038  0.16901757  0.68110901  1
  O2-  O567  1  0.83004374  0.41481889  0.02974722  1
  O2-  O568  1  0.82009096  0.38841645  0.35561718  1
  O2-  O569  1  0.92941770  0.45390398  0.70711463  1
  O2-  O570  1  0.84251781  0.65740067  0.02433499  1
  O2-  O571  1  0.84838979  0.66228347  0.36433794  1
  O2-  O572  1  0.87978986  0.69782506  0.69242083  1
  O2-  O573  1  0.83149019  0.92009553  0.00719025  1
  O2-  O574  1  0.81808541  0.91892682  0.36159106  1
  O2-  O575  1  0.82107443  0.91408690  0.67797147  1
