# generated using pymatgen
data_H2O
_symmetry_space_group_name_H-M   'P 1'
_cell_length_a   17.96928374
_cell_length_b   17.97561725
_cell_length_c   21.97720223
_cell_angle_alpha   89.99131828
_cell_angle_beta   89.96947642
_cell_angle_gamma   119.97425329
_symmetry_Int_Tables_number   1
_chemical_formula_structural   H2O
_chemical_formula_sum   'H384 O192'
_cell_volume   6149.36282504
_cell_formula_units_Z   192
loop_
 _symmetry_equiv_pos_site_id
 _symmetry_equiv_pos_as_xyz
  1  'x, y, z'
loop_
 _atom_type_symbol
 _atom_type_oxidation_number
  H+  1.0
  O2-  -2.0
loop_
 _atom_site_type_symbol
 _atom_site_label
 _atom_site_symmetry_multiplicity
 _atom_site_fract_x
 _atom_site_fract_y
 _atom_site_fract_z
 _atom_site_occupancy
  H+  H0  1  0.63111274  0.34599346  0.83609979  1
  H+  H1  1  0.89004059  0.76934660  0.66580041  1
  H+  H2  1  0.02680046  0.64343973  0.67263557  1
  H+  H3  1  0.42038341  0.32935027  0.90260957  1
  H+  H4  1  0.86676170  0.13789960  0.66390824  1
  H+  H5  1  0.11675261  0.97634375  0.66628559  1
  H+  H6  1  0.12080516  0.80435719  0.18363189  1
  H+  H7  1  0.20767679  0.85547597  0.34143213  1
  H+  H8  1  0.45947202  0.08448413  0.34302771  1
  H+  H9  1  0.97694183  0.94345031  1.05701993  1
  H+  H10  1  0.61078905  0.13451579  0.49499156  1
  H+  H11  1  0.37987243  0.72378702  0.50571762  1
  H+  H12  1  1.03831704  0.92363534  0.90537021  1
  H+  H13  1  0.86541641  0.23081741  0.15512639  1
  H+  H14  1  0.10545534  0.92151997  0.72542212  1
  H+  H15  1  0.37187270  0.01055558  0.84379050  1
  H+  H16  1  0.54089887  0.46119356  0.13933006  1
  H+  H17  1  0.88366010  0.13191545  0.32860300  1
  H+  H18  1  0.23453143  0.36296323  -0.00006094  1
  H+  H19  1  0.11103619  0.22110472  0.67357932  1
  H+  H20  1  0.88244477  0.11267985  0.50320464  1
  H+  H21  1  0.15340641  0.86201474  0.84475864  1
  H+  H22  1  0.51820398  0.65224563  0.15435666  1
  H+  H23  1  0.91982889  0.57671937  0.26323394  1
  H+  H24  1  0.12302730  0.62282811  0.50026023  1
  H+  H25  1  0.63325077  0.77714219  0.33314691  1
  H+  H26  1  0.51248165  0.11866055  1.01016145  1
  H+  H27  1  0.36767965  0.07779771  0.34736226  1
  H+  H28  1  0.61735652  0.88241687  0.67849920  1
  H+  H29  1  0.30058816  0.17344378  0.17151995  1
  H+  H30  1  0.12851706  0.11284590  0.33480521  1
  H+  H31  1  0.83875376  0.65631999  0.39735497  1
  H+  H32  1  0.64025972  0.61474827  0.66383213  1
  H+  H33  1  0.85939116  0.87685937  0.19347570  1
  H+  H34  1  0.64206661  0.02530115  0.17550547  1
  H+  H35  1  0.86347400  0.97568983  0.49225661  1
  H+  H36  1  0.64572705  0.36170309  0.34144840  1
  H+  H37  1  0.27428271  0.63004749  0.00671350  1
  H+  H38  1  0.09833050  0.22464285  0.49073059  1
  H+  H39  1  0.85877337  0.23076224  0.33615269  1
  H+  H40  1  0.01257339  0.87993219  0.34134859  1
  H+  H41  1  0.35110450  -0.02045230  0.17907702  1
  H+  H42  1  0.21971923  0.97428334  0.78539767  1
  H+  H43  1  0.66773382  0.08440214  0.26843014  1
  H+  H44  1  0.63650873  0.86661778  0.17762199  1
  H+  H45  1  0.02180073  0.62333721  0.33571072  1
  H+  H46  1  0.90899472  0.83390860  0.75112923  1
  H+  H47  1  0.52493566  0.37720401  0.82720793  1
  H+  H48  1  0.86713231  0.62552917  0.49099522  1
  H+  H49  1  0.97051311  0.60656988  0.15970784  1
  H+  H50  1  0.39402668  0.12685707  0.51990515  1
  H+  H51  1  -0.01869998  0.12260963  0.18541949  1
  H+  H52  1  0.88761413  0.60642429  0.83410989  1
  H+  H53  1  0.89969569  0.87703765  0.51358906  1
  H+  H54  1  0.22488332  0.61128121  0.32899302  1
  H+  H55  1  0.88175194  0.84974717  0.33241364  1
  H+  H56  1  0.39329669  0.35903937  0.84175206  1
  H+  H57  1  0.11785608  0.72064746  1.01251390  1
  H+  H58  1  0.88832612  0.60678511  0.32237302  1
  H+  H59  1  0.84762878  0.94403277  0.03345702  1
  H+  H60  1  0.36559980  0.47358908  0.82463181  1
  H+  H61  1  0.64706166  0.27745746  0.65415127  1
  H+  H62  1  0.37535583  0.10694023  0.00001220  1
  H+  H63  1  0.53226220  0.38351592  0.67519747  1
  H+  H64  1  0.36015612  0.71930094  1.00345521  1
  H+  H65  1  0.58702528  0.42023267  0.40517697  1
  H+  H66  1  0.10688711  0.24080626  0.16873144  1
  H+  H67  1  0.73397607  0.12761239  -0.01330353  1
  H+  H68  1  0.78352580  0.92470589  0.81905363  1
  H+  H69  1  0.86690836  0.47577975  0.66908097  1
  H+  H70  1  0.97022226  0.36505316  0.49742363  1
  H+  H71  1  0.74909129  0.60908862  1.01198688  1
  H+  H72  1  0.64091416  0.50475605  0.84080061  1
  H+  H73  1  0.63049384  0.60514312  0.98933064  1
  H+  H74  1  0.47629714  0.35699411  0.99579919  1
  H+  H75  1  0.88571125  1.05489093  -0.02892920  1
  H+  H76  1  0.03067090  0.14539993  0.82105085  1
  H+  H77  1  0.93101316  0.85174366  0.57411521  1
  H+  H78  1  0.94615011  0.81190911  0.18129250  1
  H+  H79  1  0.10070383  0.47719362  0.83179699  1
  H+  H80  1  0.33653081  0.46296441  0.56182595  1
  H+  H81  1  0.52348736  0.89151073  0.17646605  1
  H+  H82  1  0.82917821  0.16630609  0.43130213  1
  H+  H83  1  0.77452750  0.63309304  0.66651709  1
  H+  H84  1  0.14741210  0.86876138  0.65027269  1
  H+  H85  1  0.60232305  0.12872513  0.34050640  1
  H+  H86  1  0.88864056  0.50949054  0.50648154  1
  H+  H87  1  0.11191374  0.47852334  0.33074639  1
  H+  H88  1  0.13850562  0.01995017  0.99703320  1
  H+  H89  1  0.13323633  0.36072023  0.66840755  1
  H+  H90  1  0.37172759  0.27544673  0.51075437  1
  H+  H91  1  0.87603356  0.86391030  0.80581449  1
  H+  H92  1  0.39733693  0.26566731  0.66485578  1
  H+  H93  1  0.25642571  0.11670610  0.35431429  1
  H+  H94  1  0.63811705  0.10769313  -0.00439876  1
  H+  H95  1  0.88453713  0.51640444  0.16742547  1
  H+  H96  1  0.36655625  0.22493640  0.83036362  1
  H+  H97  1  0.39506519  0.52282963  0.47997380  1
  H+  H98  1  -0.02506514  0.37006407  0.16953725  1
  H+  H99  1  0.61872469  0.10518049  0.84726636  1
  H+  H100  1  -0.09973795  0.80243937  0.24589007  1
  H+  H101  1  0.60699208  0.68978422  0.83552781  1
  H+  H102  1  0.59605018  0.21460931  0.82993971  1
  H+  H103  1  0.10693687  0.49901046  0.49094708  1
  H+  H104  1  0.41775140  0.31528692  0.14990163  1
  H+  H105  1  1.01363182  0.13279351  0.48922937  1
  H+  H106  1  0.12413817  0.02058279  0.33202729  1
  H+  H107  1  0.08756776  0.90338987  0.16322579  1
  H+  H108  1  0.06629563  0.59045304  0.09021623  1
  H+  H109  1  0.48178919  0.10677089  0.67232010  1
  H+  H110  1  0.60830656  0.38283707  0.49710450  1
  H+  H111  1  0.77990656  0.63777180  0.33749633  1
  H+  H112  1  0.97237172  0.36173647  0.32383280  1
  H+  H113  1  0.85110155  0.46010207  0.82456596  1
  H+  H114  1  0.58209256  0.67134683  0.40504980  1
  H+  H115  1  0.14707033  0.52075177  0.98892812  1
  H+  H116  1  0.37070287  0.48010436  1.00457607  1
  H+  H117  1  0.62448327  0.88884498  0.49871597  1
  H+  H118  1  0.35090739  0.19529262  0.35369619  1
  H+  H119  1  0.35635855  0.85009100  0.34020423  1
  H+  H120  1  0.52444939  0.63429387  0.50132428  1
  H+  H121  1  0.85467824  0.71807782  0.80853779  1
  H+  H122  1  0.13095845  0.11863356  0.50732699  1
  H+  H123  1  0.37136942  0.76241886  0.33821274  1
  H+  H124  1  0.17522317  0.33003314  0.94019718  1
  H+  H125  1  0.11311483  0.49433415  0.15911480  1
  H+  H126  1  0.01684600  0.89039853  0.88092679  1
  H+  H127  1  0.55718572  0.34274405  0.23819445  1
  H+  H128  1  0.32694270  0.90701536  0.73272160  1
  H+  H129  1  0.23117376  0.11951037  0.84377103  1
  H+  H130  1  0.85381267  0.87836633  0.91481095  1
  H+  H131  1  0.77491983  0.38162396  0.33958372  1
  H+  H132  1  0.38793854  0.39115693  0.45876307  1
  H+  H133  1  0.89395196  0.02769358  0.19042536  1
  H+  H134  1  0.83854025  0.69415100  0.01590449  1
  H+  H135  1  0.61288957  0.73621397  0.15705764  1
  H+  H136  1  0.02865170  0.89821633  0.49603965  1
  H+  H137  1  0.11776193  0.40771277  0.16054967  1
  H+  H138  1  0.12475725  0.36826314  0.50600584  1
  H+  H139  1  0.36448216  0.88342455  0.82457104  1
  H+  H140  1  0.23470174  0.35461683  0.84824758  1
  H+  H141  1  0.18167348  0.48921606  0.46010357  1
  H+  H142  1  0.00497700  0.37700020  -0.01784875  1
  H+  H143  1  0.36592172  0.35432854  0.54375319  1
  H+  H144  1  0.88368817  0.36262723  0.32417103  1
  H+  H145  1  0.11364121  0.13218734  0.82597964  1
  H+  H146  1  0.35770609  0.13102800  0.83214629  1
  H+  H147  1  0.41290355  0.67418853  0.66577686  1
  H+  H148  1  0.58633536  0.78789591  0.62812983  1
  H+  H149  1  0.59641591  0.12011969  0.16547738  1
  H+  H150  1  0.73496368  0.36667547  0.65297920  1
  H+  H151  1  0.64960593  0.53680967  0.33267887  1
  H+  H152  1  0.13890393  0.74951768  0.47996995  1
  H+  H153  1  0.77587846  0.13451437  0.66627722  1
  H+  H154  1  0.72419548  0.11197640  0.50654995  1
  H+  H155  1  0.27106031  0.13551583  0.01435753  1
  H+  H156  1  0.69205956  0.37484979  0.17711323  1
  H+  H157  1  0.37871590  0.86883412  0.19006466  1
  H+  H158  1  0.27395525  0.65408985  0.16071764  1
  H+  H159  1  0.28398948  0.64596556  0.50403735  1
  H+  H160  1  0.36487551  0.98284091  0.01604293  1
  H+  H161  1  0.46843194  0.59866332  0.83342049  1
  H+  H162  1  0.76965489  0.13817999  0.33667898  1
  H+  H163  1  0.38772186  0.61180269  0.99069804  1
  H+  H164  1  0.52578836  0.64631516  0.34369707  1
  H+  H165  1  0.88748994  0.27247637  0.65224725  1
  H+  H166  1  0.11764828  0.15956766  0.17915387  1
  H+  H167  1  0.13829082  0.61514227  0.83614548  1
  H+  H168  1  0.62532417  0.73627533  0.68124752  1
  H+  H169  1  0.39441442  0.01700250  0.66791448  1
  H+  H170  1  0.42434741  0.61232056  0.26349894  1
  H+  H171  1  0.07649435  0.91832268  0.40136156  1
  H+  H172  1  0.55328884  0.39412142  0.33526060  1
  H+  H173  1  0.98005393  0.13162961  0.32981756  1
  H+  H174  1  0.71224193  0.87591337  -0.01030224  1
  H+  H175  1  0.51920073  0.74438007  0.85083303  1
  H+  H176  1  0.12836378  0.61084719  0.65691460  1
  H+  H177  1  0.60869011  0.61577349  0.15809087  1
  H+  H178  1  0.27094747  0.87255670  0.82990906  1
  H+  H179  1  0.88887677  0.60993769  0.65694243  1
  H+  H180  1  0.27576155  0.88323755  0.66826139  1
  H+  H181  1  0.11528924  -0.01215958  0.48851591  1
  H+  H182  1  0.11737986  0.73135561  0.66943291  1
  H+  H183  1  0.39997614  0.92755148  0.04820770  1
  H+  H184  1  0.10973047  0.23067974  0.33807237  1
  H+  H185  1  0.36222791  0.64096408  0.81570869  1
  H+  H186  1  0.64699498  0.62342027  0.33194350  1
  H+  H187  1  0.36694730  0.64620490  0.34420216  1
  H+  H188  1  0.63765913  0.02546964  0.32893922  1
  H+  H189  1  0.12012961  0.87370171  0.33411677  1
  H+  H190  1  0.36404488  0.12870583  0.67864952  1
  H+  H191  1  0.63213201  0.26583011  0.33622819  1
  H+  H192  1  0.63801084  0.01598147  0.66118236  1
  H+  H193  1  0.52083666  0.38684455  0.49989432  1
  H+  H194  1  0.62663044  0.33857631  0.98672854  1
  H+  H195  1  0.71877391  0.34328486  0.83347455  1
  H+  H196  1  0.61121994  0.46764183  0.00206208  1
  H+  H197  1  0.89268100  0.92231725  0.91720510  1
  H+  H198  1  0.61062897  0.88720610  0.34281945  1
  H+  H199  1  0.77281652  0.62457195  0.82300142  1
  H+  H200  1  0.26704601  0.14228333  0.50747600  1
  H+  H201  1  0.91208673  0.27365490  0.80550523  1
  H+  H202  1  0.39099832  0.77731864  0.83404588  1
  H+  H203  1  0.46931482  0.27438032  0.26759712  1
  H+  H204  1  0.87451780  0.59904871  0.99731335  1
  H+  H205  1  0.14918279  0.88662998  0.49764643  1
  H+  H206  1  0.88373337  1.02145394  0.65319557  1
  H+  H207  1  0.17319086  0.58567420  0.89311334  1
  H+  H208  1  0.60045820  0.20698256  1.00859340  1
  H+  H209  1  0.77786420  0.88464435  0.49745920  1
  H+  H210  1  0.22169160  0.36765520  0.31646876  1
  H+  H211  1  0.30242857  0.38952387  0.44591448  1
  H+  H212  1  0.02205117  0.63292217  0.82657731  1
  H+  H213  1  0.86487894  0.14242858  0.15617301  1
  H+  H214  1  0.08492655  0.16047790  0.73192048  1
  H+  H215  1  0.13284146  0.60837415  0.32488336  1
  H+  H216  1  0.34211626  -0.05421471  0.36344214  1
  H+  H217  1  0.97665923  0.10769184  0.65815349  1
  H+  H218  1  0.63428456  0.27039168  0.50207940  1
  H+  H219  1  0.49091407  0.85082496  0.51990474  1
  H+  H220  1  0.88877154  0.76195570  0.33441970  1
  H+  H221  1  0.13013933  0.38997250  0.00877786  1
  H+  H222  1  0.61448765  0.72723938  0.99676494  1
  H+  H223  1  0.02085336  0.38284544  0.67432382  1
  H+  H224  1  0.38689933  0.63241971  0.17038293  1
  H+  H225  1  0.23733908  0.85562496  0.00174898  1
  H+  H226  1  0.63523650  0.58985073  0.83728402  1
  H+  H227  1  0.46620573  0.10229833  0.18385962  1
  H+  H228  1  0.03386475  0.86240702  -0.00320481  1
  H+  H229  1  0.38462978  0.27106750  -0.00265903  1
  H+  H230  1  0.15052464  0.64897068  0.18675507  1
  H+  H231  1  0.64234035  0.89813478  0.83922526  1
  H+  H232  1  0.20063938  0.35462381  0.53055341  1
  H+  H233  1  0.14124071  0.60664104  -0.01153204  1
  H+  H234  1  0.18282870  0.84553113  0.59097118  1
  H+  H235  1  0.66019252  0.82248414  0.82605414  1
  H+  H236  1  0.86028593  0.22630451  0.49006629  1
  H+  H237  1  0.89118395  0.39595077  0.00201314  1
  H+  H238  1  0.63678143  0.02136803  0.50816352  1
  H+  H239  1  0.37809252  0.85054684  0.67324882  1
  H+  H240  1  0.86369202  0.47356633  0.33507763  1
  H+  H241  1  0.23195237  0.87595360  0.48454668  1
  H+  H242  1  0.13827135  0.11231135  0.66142717  1
  H+  H243  1  0.36566452  0.84579165  0.98191757  1
  H+  H244  1  0.62433983  0.39079451  0.67237070  1
  H+  H245  1  0.61437969  0.63651373  0.49837909  1
  H+  H246  1  0.51089797  0.74603189  0.88404217  1
  H+  H247  1  0.49541227  0.85455026  0.01656345  1
  H+  H248  1  0.98555405  0.57714191  0.51687113  1
  H+  H249  1  0.58426094  0.85617710  1.01620973  1
  H+  H250  1  -0.01962379  0.86067756  0.66849995  1
  H+  H251  1  0.36182890  0.40654920  0.28738467  1
  H+  H252  1  0.18075202  0.10483216  0.24700860  1
  H+  H253  1  0.37208488  0.41226116  0.15945040  1
  H+  H254  1  0.90927507  0.15252619  0.82180280  1
  H+  H255  1  1.03080334  0.13999579  0.98829934  1
  H+  H256  1  0.37100369  0.39105895  0.01044966  1
  H+  H257  1  0.15665283  -0.00608261  0.82200702  1
  H+  H258  1  0.86572648  0.38576152  0.66708523  1
  H+  H259  1  0.75846092  0.88081592  0.66205250  1
  H+  H260  1  0.88010728  0.36193067  0.49861738  1
  H+  H261  1  0.60953691  0.99068057  0.83333358  1
  H+  H262  1  0.12128534  0.22091666  1.00254570  1
  H+  H263  1  0.38044374  0.78070526  0.18271406  1
  H+  H264  1  0.77459497  0.87695354  0.34201738  1
  H+  H265  1  0.48018041  0.86957767  0.83762443  1
  H+  H266  1  0.87461718  0.47383496  1.00322226  1
  H+  H267  1  0.37813057  0.15581210  0.16920582  1
  H+  H268  1  0.89925247  0.84948479  1.05443105  1
  H+  H269  1  0.45869925  0.10106357  0.84698828  1
  H+  H270  1  0.65193737  0.30242824  0.92970563  1
  H+  H271  1  0.77931859  0.62708524  0.49121178  1
  H+  H272  1  -0.03018197  0.61375737  0.99358892  1
  H+  H273  1  0.58349710  0.67155720  1.05744624  1
  H+  H274  1  0.38930482  0.54148918  0.31388248  1
  H+  H275  1  0.87910731  0.16430744  -0.00829954  1
  H+  H276  1  0.37909583  0.59582921  0.50700051  1
  H+  H277  1  0.89556463  0.05511288  0.82210946  1
  H+  H278  1  0.64204680  0.77456267  0.51217363  1
  H+  H279  1  0.22812835  0.38088157  0.17108347  1
  H+  H280  1  0.38789567  0.54327833  0.17096880  1
  H+  H281  1  0.22123377  0.84502721  0.19321282  1
  H+  H282  1  0.72860597  0.11690152  0.17158338  1
  H+  H283  1  0.14573974  0.26829232  0.84600393  1
  H+  H284  1  0.82131508  0.69902390  0.17363839  1
  H+  H285  1  0.63616223  0.52431697  0.50838303  1
  H+  H286  1  0.16539129  0.06665344  0.18050939  1
  H+  H287  1  0.63415086  0.13480392  0.67519134  1
  H+  H288  1  0.33647096  0.17154125  0.07199311  1
  H+  H289  1  0.47799165  0.61453867  0.98617107  1
  H+  H290  1  0.13469989  0.76409142  0.84624167  1
  H+  H291  1  0.07620623  0.17066641  0.39874067  1
  H+  H292  1  0.17853656  0.82670293  0.94088374  1
  H+  H293  1  0.76790052  0.38068459  0.48783813  1
  H+  H294  1  0.66802053  0.33279119  0.56039145  1
  H+  H295  1  0.32675500  0.16217899  0.45013412  1
  H+  H296  1  0.79615913  0.64145463  0.10984900  1
  H+  H297  1  0.13452014  0.10860007  0.99246685  1
  H+  H298  1  0.27528692  0.64327318  0.81776469  1
  H+  H299  1  0.66630096  0.34309554  0.24451019  1
  H+  H300  1  0.91980517  0.33631873  0.59544110  1
  H+  H301  1  0.67195670  0.83488958  0.57140789  1
  H+  H302  1  0.09733744  0.67154357  0.38668288  1
  H+  H303  1  0.43114655  0.81709987  0.57984678  1
  H+  H304  1  0.86226414  0.91719838  0.13209258  1
  H+  H305  1  0.21438220  0.75975832  0.44179132  1
  H+  H306  1  0.11076574  0.57168258  0.56497788  1
  H+  H307  1  0.42711387  0.09198288  0.57338842  1
  H+  H308  1  0.66116969  0.83398079  0.27237168  1
  H+  H309  1  0.52294280  0.89004103  0.34724653  1
  H+  H310  1  0.84729486  0.88049779  0.66775718  1
  H+  H311  1  0.83255912  0.41468347  0.09802923  1
  H+  H312  1  0.66289466  0.57140112  0.93203123  1
  H+  H313  1  0.09641312  0.42655122  0.06397768  1
  H+  H314  1  0.53626339  0.65143040  0.68369337  1
  H+  H315  1  0.08470742  0.42537408  0.39217379  1
  H+  H316  1  0.52915721  0.88435915  0.68494519  1
  H+  H317  1  0.40786070  0.07610828  0.24585371  1
  H+  H318  1  0.08482900  0.67089286  0.76841520  1
  H+  H319  1  0.46466307  0.36816409  0.20657506  1
  H+  H320  1  0.70911542  0.60934747  0.16289228  1
  H+  H321  1  0.35992303  0.72928991  0.72694649  1
  H+  H322  1  0.13430934  0.31867681  0.60621233  1
  H+  H323  1  0.16890296  0.08014112  0.90178146  1
  H+  H324  1  0.16522782  0.34776670  0.22916612  1
  H+  H325  1  0.83122155  0.41300054  0.42896166  1
  H+  H326  1  0.57385521  0.15599275  0.40193696  1
  H+  H327  1  0.12409537  0.52047907  0.65415591  1
  H+  H328  1  0.63836843  0.52395277  0.66241569  1
  H+  H329  1  0.66074178  0.84374833  0.92841907  1
  H+  H330  1  0.91837142  0.09891305  0.26450881  1
  H+  H331  1  0.39695550  0.06960545  0.93932655  1
  H+  H332  1  0.91454853  0.57806000  0.89495061  1
  H+  H333  1  0.92849327  0.11505602  0.91273110  1
  H+  H334  1  0.83142225  0.65436997  0.72657359  1
  H+  H335  1  0.84881490  0.38293511  0.16008850  1
  H+  H336  1  0.56703123  0.90093354  0.11180311  1
  H+  H337  1  0.79570722  0.99115802  0.04982563  1
  H+  H338  1  0.35453778  0.42017907  0.35856907  1
  H+  H339  1  0.90665266  0.79152187  0.96858634  1
  H+  H340  1  0.92922348  0.76964686  0.95425096  1
  H+  H341  1  0.58812820  0.65596701  0.76605507  1
  H+  H342  1  0.82879916  0.93900979  0.75407908  1
  H+  H343  1  0.97694869  0.37330559  0.88317770  1
  H+  H344  1  0.15983080  0.08623441  0.56727818  1
  H+  H345  1  0.17196698  0.59879148  0.23661805  1
  H+  H346  1  0.33272435  0.16152421  0.73549242  1
  H+  H347  1  0.33457087  0.40758813  0.76891840  1
  H+  H348  1  0.27030086  0.38758254  0.60790423  1
  H+  H349  1  0.58723020  0.91528825  0.44105674  1
  H+  H350  1  0.92221425  0.57783315  0.60007892  1
  H+  H351  1  0.32164164  0.91923153  0.12018905  1
  H+  H352  1  0.91580367  0.33325981  0.22883053  1
  H+  H353  1  0.07451160  0.41327635  0.73605048  1
  H+  H354  1  0.40960026  0.57749035  0.89238994  1
  H+  H355  1  0.66836434  0.58491618  0.56680576  1
  H+  H356  1  0.38964813  0.57792286  0.66348091  1
  H+  H357  1  0.66421499  0.07528880  0.59976749  1
  H+  H358  1  0.84826549  0.18881746  0.05306797  1
  H+  H359  1  0.72643279  0.86603885  0.18135620  1
  H+  H360  1  0.56069816  0.14754184  0.77479121  1
  H+  H361  1  0.56016799  0.14149596  0.10600653  1
  H+  H362  1  0.91285584  0.29349942  0.97399128  1
  H+  H363  1  0.83399116  0.90325569  0.40050862  1
  H+  H364  1  0.43174987  0.32498220  0.60663925  1
  H+  H365  1  0.22767381  0.11112551  0.65984247  1
  H+  H366  1  0.40874334  0.82628893  0.92507283  1
  H+  H367  1  0.58592205  0.40873167  0.76712704  1
  H+  H368  1  0.66035619  0.08030569  0.90295610  1
  H+  H369  1  0.12362894  0.87351368  0.01067502  1
  H+  H370  1  0.06109124  0.85740370  0.10033495  1
  H+  H371  1  0.82327260  0.40691097  0.76343621  1
  H+  H372  1  0.66917680  0.20837272  0.72361342  1
  H+  H373  1  0.15387639  0.82491922  0.27462737  1
  H+  H374  1  0.59345699  0.40967920  0.05962002  1
  H+  H375  1  0.58672722  0.92796978  0.77189777  1
  H+  H376  1  0.33672456  0.43405135  0.10126415  1
  H+  H377  1  0.86216132  0.20293753  0.75376832  1
  H+  H378  1  0.33632995  0.67052525  0.40747297  1
  H+  H379  1  0.52358174  0.13959789  0.49762501  1
  H+  H380  1  0.33433346  0.67991395  0.10108003  1
  H+  H381  1  0.39715217  0.82726770  0.27424691  1
  H+  H382  1  0.13146598  0.36598703  0.32434878  1
  H+  H383  1  0.91595217  0.08434841  0.56212097  1
  O2-  O384  1  0.07639023  0.17709319  0.16570081  1
  O2-  O385  1  0.07496832  0.16556868  0.47394743  1
  O2-  O386  1  0.09185414  0.16787176  0.80701384  1
  O2-  O387  1  0.08509438  0.43487268  0.14353729  1
  O2-  O388  1  0.12070956  0.45518231  0.47001430  1
  O2-  O389  1  0.06917715  0.41456339  0.82026426  1
  O2-  O390  1  0.07969542  0.65037409  0.08724324  1
  O2-  O391  1  0.15469024  0.71288005  0.45559004  1
  O2-  O392  1  0.08422777  0.66763052  0.81394239  1
  O2-  O393  1  0.05319634  0.84662487  0.14520357  1
  O2-  O394  1  0.08625209  0.92744150  0.47336823  1
  O2-  O395  1  0.15988105  0.94699862  0.79845547  1
  O2-  O396  1  0.35648696  0.19251652  0.15112331  1
  O2-  O397  1  0.32922472  0.17446406  0.49435607  1
  O2-  O398  1  0.33185849  0.16457098  0.81458836  1
  O2-  O399  1  0.33585224  0.43734188  0.14702791  1
  O2-  O400  1  0.36285126  0.42027055  0.43397363  1
  O2-  O401  1  0.34171330  0.41124887  0.81290168  1
  O2-  O402  1  0.33513663  0.68505379  0.14667072  1
  O2-  O403  1  0.33994698  0.66407078  0.48569983  1
  O2-  O404  1  0.33638638  0.67624764  0.80340321  1
  O2-  O405  1  0.32209115  0.91733836  0.16516516  1
  O2-  O406  1  0.29882949  0.85647656  0.43033315  1
  O2-  O407  1  0.32854853  0.90901617  0.81066058  1
  O2-  O408  1  0.55309574  0.13468812  0.15110554  1
  O2-  O409  1  0.58289599  0.16637228  0.47849276  1
  O2-  O410  1  0.55699494  0.15114953  0.81922871  1
  O2-  O411  1  0.59493010  0.50820795  0.12047236  1
  O2-  O412  1  0.57973753  0.41600744  0.48350690  1
  O2-  O413  1  0.58589915  0.40617605  0.81281849  1
  O2-  O414  1  0.57876160  0.67722783  0.13854616  1
  O2-  O415  1  0.58354090  0.66772037  0.48507130  1
  O2-  O416  1  0.57727575  0.63764318  0.81135424  1
  O2-  O417  1  0.58013741  0.91584589  0.15642519  1
  O2-  O418  1  0.59036097  0.91676347  0.48631723  1
  O2-  O419  1  0.58129587  0.92661024  0.81729764  1
  O2-  O420  1  0.83457342  0.17059010  0.13867329  1
  O2-  O421  1  0.82954973  0.16500289  0.47671465  1
  O2-  O422  1  0.87466095  0.21162593  0.79790053  1
  O2-  O423  1  0.82191499  0.41477833  0.14296992  1
  O2-  O424  1  0.82967179  0.40953999  0.47477162  1
  O2-  O425  1  0.81577417  0.40148835  0.80814563  1
  O2-  O426  1  0.78321025  0.64071698  0.15443996  1
  O2-  O427  1  0.83631632  0.65150285  0.47164890  1
  O2-  O428  1  0.83128488  0.65462557  0.80431859  1
  O2-  O429  1  0.84306086  0.91694001  0.17412156  1
  O2-  O430  1  0.83728825  0.91429413  0.48013975  1
  O2-  O431  1  0.84032434  0.94836951  0.79859233  1
  O2-  O432  1  0.19191134  0.12082609  0.20257998  1
  O2-  O433  1  0.16283037  0.08965180  0.52163894  1
  O2-  O434  1  0.16963115  0.08180596  0.85624631  1
  O2-  O435  1  0.16652522  0.35243145  0.18395243  1
  O2-  O436  1  0.13759409  0.32477481  0.52320304  1
  O2-  O437  1  0.17714464  0.32477820  0.86679458  1
  O2-  O438  1  0.17144287  0.60839000  0.19111190  1
  O2-  O439  1  0.08966464  0.56590450  0.52090542  1
  O2-  O440  1  0.17007852  0.58457225  0.84769147  1
  O2-  O441  1  0.16385707  0.80157275  0.20993319  1
  O2-  O442  1  0.18209615  0.85873792  0.51237030  1
  O2-  O443  1  0.17070636  0.82324058  0.86472208  1
  O2-  O444  1  0.40540831  0.08110654  0.20114794  1
  O2-  O445  1  0.42855868  0.09927731  0.52878723  1
  O2-  O446  1  0.39717746  0.06952827  0.86150785  1
  O2-  O447  1  0.44424206  0.37485151  0.16562092  1
  O2-  O448  1  0.40385683  0.33954305  0.51980539  1
  O2-  O449  1  0.42205362  0.32746639  0.85697741  1
  O2-  O450  1  0.41982457  0.60449119  0.18535963  1
  O2-  O451  1  0.40413844  0.55839397  0.51640946  1
  O2-  O452  1  0.40768129  0.57414799  0.84680435  1
  O2-  O453  1  0.40698796  0.83660747  0.20587344  1
  O2-  O454  1  0.43249278  0.80960891  0.53556857  1
  O2-  O455  1  0.41792701  0.83683907  0.85123728  1
  O2-  O456  1  0.67093072  0.08525103  0.19140940  1
  O2-  O457  1  0.66443116  0.08229499  0.52307244  1
  O2-  O458  1  0.65227402  0.07680306  0.85712035  1
  O2-  O459  1  0.64410074  0.35343219  0.20609081  1
  O2-  O460  1  0.66466579  0.33249708  0.51484204  1
  O2-  O461  1  0.65704559  0.31052288  0.84855597  1
  O2-  O462  1  0.62889794  0.57213443  0.17000863  1
  O2-  O463  1  0.66741474  0.58560067  0.52131837  1
  O2-  O464  1  0.66985358  0.56622823  0.85550195  1
  O2-  O465  1  0.66424522  0.83278854  0.19132270  1
  O2-  O466  1  0.67475402  0.83584251  0.52544878  1
  O2-  O467  1  0.68128862  0.87297225  0.85183043  1
  O2-  O468  1  0.91825130  0.08985444  0.19976128  1
  O2-  O469  1  0.91465584  0.08343439  0.51647674  1
  O2-  O470  1  0.93120702  0.11404808  0.83918062  1
  O2-  O471  1  0.91467617  0.33286436  0.18350160  1
  O2-  O472  1  0.91249703  0.33277872  0.51441915  1
  O2-  O473  1  0.97978701  0.38514393  0.83787768  1
  O2-  O474  1  0.91973882  0.57584149  0.18515086  1
  O2-  O475  1  0.92730210  0.56827561  0.52317832  1
  O2-  O476  1  0.91804571  0.57669992  0.84980312  1
  O2-  O477  1  0.88995496  0.79597051  0.19986627  1
  O2-  O478  1  0.94040884  0.85959687  0.53003221  1
  O2-  O479  1  0.89910709  0.82579859  0.79524666  1
  O2-  O480  1  0.16039204  0.08312560  0.32142002  1
  O2-  O481  1  0.16741709  0.08151927  0.64410095  1
  O2-  O482  1  0.16985587  0.07913817  0.98161169  1
  O2-  O483  1  0.15905419  0.33289910  0.30855049  1
  O2-  O484  1  0.15833755  0.32814224  0.64787607  1
  O2-  O485  1  0.17351318  0.33182001  0.98640845  1
  O2-  O486  1  0.16772968  0.57985184  0.30936891  1
  O2-  O487  1  0.14551873  0.57555738  0.63211857  1
  O2-  O488  1  0.17583329  0.58190222  0.97294107  1
  O2-  O489  1  0.15170434  0.83924321  0.32030438  1
  O2-  O490  1  0.17901976  0.83932046  0.63630437  1
  O2-  O491  1  0.17751190  0.82594104  0.98692777  1
  O2-  O492  1  0.39710112  0.04739829  0.33181173  1
  O2-  O493  1  0.42313593  0.07937013  0.65657888  1
  O2-  O494  1  0.39941285  0.07047851  0.98493244  1
  O2-  O495  1  0.50637281  0.33612470  0.26258957  1
  O2-  O496  1  0.43246314  0.32652374  0.65118871  1
  O2-  O497  1  0.41563240  0.33111978  0.98122651  1
  O2-  O498  1  0.42068213  0.60491488  0.30894131  1
  O2-  O499  1  0.43778228  0.63600574  0.65942301  1
  O2-  O500  1  0.41701429  0.58251448  0.97187602  1
  O2-  O501  1  0.39578695  0.82528771  0.32185215  1
  O2-  O502  1  0.41563787  0.82333361  0.66539904  1
  O2-  O503  1  0.39979368  0.81914748  0.97067982  1
  O2-  O504  1  0.66738759  0.08613323  0.31425838  1
  O2-  O505  1  0.66779686  0.07670320  0.64546293  1
  O2-  O506  1  0.67357414  0.08616866  0.97602471  1
  O2-  O507  1  0.67002697  0.32689756  0.32402881  1
  O2-  O508  1  0.67324214  0.33671038  0.63814529  1
  O2-  O509  1  0.64692484  0.29904688  0.97466234  1
  O2-  O510  1  0.67834585  0.59560321  0.31559697  1
  O2-  O511  1  0.66841190  0.58390419  0.64587537  1
  O2-  O512  1  0.65887842  0.57137342  0.97773410  1
  O2-  O513  1  0.66172433  0.83781544  0.31759754  1
  O2-  O514  1  0.64299787  0.82056547  0.64690850  1
  O2-  O515  1  0.65595183  0.83195109  0.97305711  1
  O2-  O516  1  0.91884763  0.10397165  0.31280708  1
  O2-  O517  1  0.91780050  0.08269055  0.64010092  1
  O2-  O518  1  0.92856240  0.11380133  0.95892978  1
  O2-  O519  1  0.91189789  0.32953036  0.30898014  1
  O2-  O520  1  0.91967860  0.33496933  0.64063979  1
  O2-  O521  1  0.95050652  0.35308680  0.95826255  1
  O2-  O522  1  0.91742330  0.57430160  0.30882940  1
  O2-  O523  1  0.92233821  0.58105034  0.64566152  1
  O2-  O524  1  0.91205273  0.58276324  0.97498793  1
  O2-  O525  1  0.91703619  0.82283395  0.31719542  1
  O2-  O526  1  0.91687811  0.83341865  0.66209204  1
  O2-  O527  1  0.91517992  0.90861229  1.06394054  1
  O2-  O528  1  0.08710105  0.15728815  0.00771570  1
  O2-  O529  1  0.07616991  0.16964102  0.35263369  1
  O2-  O530  1  0.08234643  0.15935306  0.68592164  1
  O2-  O531  1  0.10207310  0.42519488  0.01895409  1
  O2-  O532  1  0.07990484  0.41780182  0.34737762  1
  O2-  O533  1  0.08057175  0.41328689  0.69108882  1
  O2-  O534  1  0.08030216  0.65720677  0.01982284  1
  O2-  O535  1  0.08478932  0.65212619  0.34382056  1
  O2-  O536  1  0.08674625  0.67397184  0.68923458  1
  O2-  O537  1  0.08262483  0.89337500  0.02444911  1
  O2-  O538  1  0.07564674  0.91576148  0.35471280  1
  O2-  O539  1  0.09028492  0.91561073  0.68153692  1
  O2-  O540  1  0.33296441  0.16652507  0.02673672  1
  O2-  O541  1  0.31602958  0.13827040  0.37114635  1
  O2-  O542  1  0.33264141  0.15934623  0.68997921  1
  O2-  O543  1  0.34205056  0.42288209  0.02518862  1
  O2-  O544  1  0.33653395  0.42793216  0.31693723  1
  O2-  O545  1  0.30213256  0.39980781  0.56891756  1
  O2-  O546  1  0.33418125  0.66195786  0.02368571  1
  O2-  O547  1  0.33397850  0.67307525  0.36183729  1
  O2-  O548  1  0.36138632  0.73228326  0.68149138  1
  O2-  O549  1  0.34584549  0.92394172  0.03634217  1
  O2-  O550  1  0.30446011  0.88100418  0.36516813  1
  O2-  O551  1  0.33472966  0.90924475  0.68745128  1
  O2-  O552  1  0.57108845  0.14722625  0.02732351  1
  O2-  O553  1  0.56754144  0.15382089  0.35633886  1
  O2-  O554  1  0.61983970  0.17672164  0.69672111  1
  O2-  O555  1  0.58303759  0.40633463  0.01588455  1
  O2-  O556  1  0.60407365  0.42681620  0.36134747  1
  O2-  O557  1  0.59346731  0.41900261  0.69002944  1
  O2-  O558  1  0.58492588  0.66674589  0.01236235  1
  O2-  O559  1  0.58539579  0.67484589  0.35966986  1
  O2-  O560  1  0.59682090  0.67336299  0.69715647  1
  O2-  O561  1  0.54465914  0.86519225  0.04237048  1
  O2-  O562  1  0.58333721  0.92031261  0.35997143  1
  O2-  O563  1  0.59099645  0.91861468  0.69498950  1
  O2-  O564  1  0.84818438  0.19334211  0.00814648  1
  O2-  O565  1  0.83116055  0.16958922  0.35166966  1
  O2-  O566  1  0.83801177  0.17082339  0.67652793  1
  O2-  O567  1  0.85975985  0.41966846  0.02413518  1
  O2-  O568  1  0.83668423  0.41375445  0.35280727  1
  O2-  O569  1  0.83251172  0.41369543  0.68108454  1
  O2-  O570  1  0.80727220  0.63659104  0.03355536  1
  O2-  O571  1  0.84140359  0.66226664  0.35146409  1
  O2-  O572  1  0.83549790  0.66118105  0.68115775  1
  O2-  O573  1  0.80855675  0.96301787  0.01686681  1
  O2-  O574  1  0.83452008  0.89870034  0.35534130  1
  O2-  O575  1  0.81875923  0.91459109  0.67608456  1
