# generated using pymatgen
data_H2O
_symmetry_space_group_name_H-M   'P 1'
_cell_length_a   17.99413267
_cell_length_b   17.99313483
_cell_length_c   22.00235334
_cell_angle_alpha   89.99613367
_cell_angle_beta   90.00530245
_cell_angle_gamma   119.99397745
_symmetry_Int_Tables_number   1
_chemical_formula_structural   H2O
_chemical_formula_sum   'H384 O192'
_cell_volume   6169.69748398
_cell_formula_units_Z   192
loop_
 _symmetry_equiv_pos_site_id
 _symmetry_equiv_pos_as_xyz
  1  'x, y, z'
loop_
 _atom_type_symbol
 _atom_type_oxidation_number
  H+  1.0
  O2-  -2.0
loop_
 _atom_site_type_symbol
 _atom_site_label
 _atom_site_symmetry_multiplicity
 _atom_site_fract_x
 _atom_site_fract_y
 _atom_site_fract_z
 _atom_site_occupancy
  H+  H0  1  0.19340873  0.35302672  0.15499725  1
  H+  H1  1  0.38469002  0.52646346  0.65930645  1
  H+  H2  1  0.85092610  0.39607377  0.13429166  1
  H+  H3  1  0.37161697  0.38446824  0.33757252  1
  H+  H4  1  0.15932842  0.07699604  0.34717349  1
  H+  H5  1  0.58438653  0.41860505  0.43283462  1
  H+  H6  1  0.61182947  0.62298998  0.68284804  1
  H+  H7  1  0.35954662  0.87089828  0.48709885  1
  H+  H8  1  0.64918743  0.85102809  0.55395407  1
  H+  H9  1  0.63915970  0.36546032  0.50748619  1
  H+  H10  1  0.63658979  0.51455396  0.84061580  1
  H+  H11  1  0.09805229  0.37839084  1.01443444  1
  H+  H12  1  0.36200433  0.62904849  0.33142291  1
  H+  H13  1  0.08545054  0.39323712  0.79131861  1
  H+  H14  1  0.96910384  0.11316712  0.17713202  1
  H+  H15  1  0.66728936  0.52722650  0.18072589  1
  H+  H16  1  0.89945406  0.32788956  0.59523876  1
  H+  H17  1  0.37422398  0.04183762  0.64806839  1
  H+  H18  1  0.64018894  0.03256156  0.84144674  1
  H+  H19  1  0.84358018  0.93188778  0.44217769  1
  H+  H20  1  0.86068253  0.38415079  0.83966884  1
  H+  H21  1  0.14268821  0.84618620  0.32087264  1
  H+  H22  1  0.38758956  0.61144498  0.16996660  1
  H+  H23  1  0.88277249  0.27319839  0.84309890  1
  H+  H24  1  0.11295821  0.72752245  0.49471400  1
  H+  H25  1  -0.03006691  0.36426893  0.64675317  1
  H+  H26  1  0.35899768  0.38600190  0.49876800  1
  H+  H27  1  0.37683774  0.47884461  0.81870233  1
  H+  H28  1  0.74054337  0.89876754  0.17792670  1
  H+  H29  1  0.06652220  0.11910346  0.34498482  1
  H+  H30  1  0.61337878  0.91000894  0.16561317  1
  H+  H31  1  0.24328152  0.87659188  0.31902523  1
  H+  H32  1  0.48996258  0.12542751  0.32646742  1
  H+  H33  1  0.88630838  0.35154032  0.21134770  1
  H+  H34  1  0.85158521  0.86968872  0.68383900  1
  H+  H35  1  0.73786257  0.12695154  0.35287089  1
  H+  H36  1  0.12976478  0.98419332  0.17556449  1
  H+  H37  1  0.90422785  0.52435991  0.67464194  1
  H+  H38  1  0.61062308  0.99834633  0.33932142  1
  H+  H39  1  0.70858061  0.10676152  0.51420850  1
  H+  H40  1  0.60838080  0.37763439  -0.01899223  1
  H+  H41  1  0.96286643  0.35140629  0.50591133  1
  H+  H42  1  0.86699982  0.73514192  0.15024879  1
  H+  H43  1  0.80301174  0.15749249  0.44127703  1
  H+  H44  1  0.47406043  0.36324766  0.66882581  1
  H+  H45  1  0.13602081  0.86074140  0.17322702  1
  H+  H46  1  0.77358917  0.38290278  0.33896212  1
  H+  H47  1  0.24762495  0.11596618  0.18090222  1
  H+  H48  1  0.63655621  0.26931165  0.32480004  1
  H+  H49  1  0.46463204  0.58827377  0.16165889  1
  H+  H50  1  0.27014263  0.38875552  0.66849241  1
  H+  H51  1  0.27951375  0.90040899  0.67048055  1
  H+  H52  1  0.63985039  0.79319856  0.49623506  1
  H+  H53  1  0.27325794  0.14221038  0.81378383  1
  H+  H54  1  0.30623953  0.14514751  0.35064268  1
  H+  H55  1  0.36770371  0.72492957  0.52415254  1
  H+  H56  1  0.46591022  0.77227740  0.87739165  1
  H+  H57  1  0.13986586  0.78067961  0.81231605  1
  H+  H58  1  0.63615493  0.88087687  0.33747709  1
  H+  H59  1  0.85824204  -0.01085743  0.83129090  1
  H+  H60  1  0.64206716  0.12355431  0.84201784  1
  H+  H61  1  0.47300004  0.86937975  0.65114791  1
  H+  H62  1  0.72802258  0.36574187  0.50821603  1
  H+  H63  1  0.36540135  0.77627449  0.00022680  1
  H+  H64  1  0.88317804  0.03198457  0.99652749  1
  H+  H65  1  0.49350197  0.88474989  0.33956869  1
  H+  H66  1  0.76913186  0.62584938  1.00179623  1
  H+  H67  1  0.61997648  0.65167855  0.33333442  1
  H+  H68  1  0.07738483  -0.06772791  0.34473084  1
  H+  H69  1  0.87316424  0.60223741  -0.00751505  1
  H+  H70  1  0.12217533  0.13059290  0.67520517  1
  H+  H71  1  0.77058581  0.13906370  0.00561659  1
  H+  H72  1  0.35730818  0.47348411  0.16957004  1
  H+  H73  1  0.47961818  0.61689904  0.83680644  1
  H+  H74  1  0.28826935  0.13436620  0.53325047  1
  H+  H75  1  0.36290641  0.72783088  0.17795875  1
  H+  H76  1  0.47664932  0.36019540  0.51213283  1
  H+  H77  1  0.13199079  1.03605652  0.67520315  1
  H+  H78  1  0.77513150  0.88893011  0.35198153  1
  H+  H79  1  -0.02707450  0.12092202  0.00453285  1
  H+  H80  1  0.39248732  0.12402559  0.83155693  1
  H+  H81  1  0.51356096  0.15566997  0.99899873  1
  H+  H82  1  0.85370425  0.71343594  0.33870784  1
  H+  H83  1  0.24186823  0.38841901  0.31804390  1
  H+  H84  1  0.61667639  0.74081803  0.33312559  1
  H+  H85  1  0.15072894  0.61633024  0.65279466  1
  H+  H86  1  0.37072934  0.64549169  0.67120260  1
  H+  H87  1  0.98673173  0.61450626  0.50905529  1
  H+  H88  1  0.91097200  0.58334063  0.22788511  1
  H+  H89  1  0.10567585  0.63543646  0.34613911  1
  H+  H90  1  0.62618358  1.03765197  0.16963375  1
  H+  H91  1  0.62129595  0.24055376  0.83824293  1
  H+  H92  1  0.40642868  0.82145767  -0.06367277  1
  H+  H93  1  0.48151251  0.59543416  -0.00877474  1
  H+  H94  1  0.38451727  0.25550679  0.99963199  1
  H+  H95  1  0.12473303  0.75899848  -0.01177604  1
  H+  H96  1  0.60285475  0.23768290  -0.01400601  1
  H+  H97  1  0.28172400  0.90611067  0.81766486  1
  H+  H98  1  0.62271957  0.34673370  0.66207757  1
  H+  H99  1  0.77271556  0.14449428  0.82881180  1
  H+  H100  1  0.11048460  0.23291958  0.67206313  1
  H+  H101  1  0.29618936  0.38140556  0.19750295  1
  H+  H102  1  0.59489273  0.89752237  0.48727723  1
  H+  H103  1  0.85379907  0.88688107  0.00927635  1
  H+  H104  1  0.15795661  0.56272658  0.24539979  1
  H+  H105  1  0.61101336  0.71121127  0.67726274  1
  H+  H106  1  0.08864257  0.92886759  0.73371268  1
  H+  H107  1  0.25635180  0.63522079  0.01043439  1
  H+  H108  1  0.47493851  0.10603391  0.47458383  1
  H+  H109  1  0.37519770  0.14339603  -0.00625142  1
  H+  H110  1  0.06670847  0.16340653  0.10003795  1
  H+  H111  1  0.63554962  0.51554170  0.98638358  1
  H+  H112  1  0.11156208  0.72678492  0.15280655  1
  H+  H113  1  0.37293567  0.89780281  0.00414927  1
  H+  H114  1  0.10108632  0.46942537  0.16723960  1
  H+  H115  1  0.72038988  0.11776211  0.17138517  1
  H+  H116  1  0.13502974  0.11575499  0.80915127  1
  H+  H117  1  0.95484995  0.83291574  0.31490103  1
  H+  H118  1  0.39534356  0.37082998  0.83193320  1
  H+  H119  1  0.35085112  0.24147915  0.67532277  1
  H+  H120  1  0.15719069  0.02657048  1.02626377  1
  H+  H121  1  0.13378610  0.52636603  0.34111863  1
  H+  H122  1  0.61765032  0.89745535  0.83645428  1
  H+  H123  1  0.53153773  0.15193207  0.82795593  1
  H+  H124  1  0.22201972  0.59152237  0.18920811  1
  H+  H125  1  0.64232885  0.02113833  0.99225405  1
  H+  H126  1  0.12235260  0.62914597  0.76768607  1
  H+  H127  1  0.76489731  0.88555666  0.00958730  1
  H+  H128  1  0.62218942  0.23803874  0.67199714  1
  H+  H129  1  0.65147655  0.29261106  0.16429470  1
  H+  H130  1  0.99728554  0.86352678  0.52204795  1
  H+  H131  1  0.89083895  0.12103795  0.66933945  1
  H+  H132  1  0.64459694  0.37940934  0.16833154  1
  H+  H133  1  0.31733314  0.67416657  0.11867365  1
  H+  H134  1  0.87455809  0.63632125  0.84086661  1
  H+  H135  1  0.13718239  0.02784402  0.80752830  1
  H+  H136  1  0.01525061  0.63030494  0.34216487  1
  H+  H137  1  0.38491949  0.35640935  1.00431883  1
  H+  H138  1  0.37980380  0.86081164  0.18748953  1
  H+  H139  1  0.38882367  0.58584278  0.98522371  1
  H+  H140  1  0.57103491  0.71304077  0.17231102  1
  H+  H141  1  0.86830903  0.26508968  0.50551301  1
  H+  H142  1  0.86312468  0.14552517  0.00665536  1
  H+  H143  1  0.12175972  0.52994744  0.83202926  1
  H+  H144  1  0.12658773  0.75790540  0.70364809  1
  H+  H145  1  0.89694536  0.36750011  0.33563823  1
  H+  H146  1  0.14241873  0.87611252  0.66064186  1
  H+  H147  1  0.10317789  0.13681408  0.16296706  1
  H+  H148  1  0.88300773  0.87076732  0.16732268  1
  H+  H149  1  0.88203532  0.53254513  0.16408878  1
  H+  H150  1  0.23298923  0.85734404  0.51070613  1
  H+  H151  1  0.04937045  0.11022912  0.48199837  1
  H+  H152  1  0.85685208  0.21947219  0.16243359  1
  H+  H153  1  0.87891932  0.11092078  0.17247284  1
  H+  H154  1  0.47958360  0.35890430  -0.00898048  1
  H+  H155  1  0.91059021  0.33024253  0.90511114  1
  H+  H156  1  0.14240362  0.51221160  -0.01366168  1
  H+  H157  1  0.52465687  0.38870715  0.14334007  1
  H+  H158  1  0.11446141  0.26069866  0.17034399  1
  H+  H159  1  0.28169497  0.64132359  0.66361028  1
  H+  H160  1  0.03299428  0.39515842  0.35256642  1
  H+  H161  1  0.28966982  0.14593593  1.01937655  1
  H+  H162  1  0.72629149  0.60456254  0.84256091  1
  H+  H163  1  0.61257734  0.13257444  0.33434610  1
  H+  H164  1  0.52780646  0.38280777  0.83337370  1
  H+  H165  1  0.36319861  0.45865269  0.01478526  1
  H+  H166  1  0.86828219  0.39187647  0.67880202  1
  H+  H167  1  0.96209118  0.13022470  0.51619430  1
  H+  H168  1  0.26348300  0.87763374  0.16489900  1
  H+  H169  1  0.01915436  0.88832206  0.82798119  1
  H+  H170  1  0.39833604  0.03460109  0.33027252  1
  H+  H171  1  0.37302671  0.90421887  0.34130605  1
  H+  H172  1  0.76836568  0.62552478  0.34830804  1
  H+  H173  1  0.15140336  0.86927622  0.51843924  1
  H+  H174  1  0.41871765  0.08270264  0.23263077  1
  H+  H175  1  0.61482530  0.02002472  0.51233293  1
  H+  H176  1  0.36065092  0.71131621  0.31122404  1
  H+  H177  1  0.81353174  0.90002684  0.73909351  1
  H+  H178  1  0.61284759  0.97254416  0.66322687  1
  H+  H179  1  0.86585453  0.47599324  0.49525230  1
  H+  H180  1  0.10614939  0.22497800  0.83795267  1
  H+  H181  1  0.40103080  0.80733520  0.36206516  1
  H+  H182  1  0.74534936  0.62180852  0.17487417  1
  H+  H183  1  -0.02675085  0.12094601  0.84335124  1
  H+  H184  1  -0.02773489  0.15656613  0.33232023  1
  H+  H185  1  1.01673936  0.14163815  0.67454963  1
  H+  H186  1  0.86270416  0.14555882  0.82992641  1
  H+  H187  1  0.22066074  0.35295892  0.50709391  1
  H+  H188  1  0.84333331  0.66961933  0.61716192  1
  H+  H189  1  0.11395293  0.25745833  1.01682598  1
  H+  H190  1  0.37673191  0.01800898  0.17673827  1
  H+  H191  1  0.36491523  0.13668395  0.57351095  1
  H+  H192  1  0.37776327  0.03034333  0.97789023  1
  H+  H193  1  0.86062625  0.38661926  -0.00409087  1
  H+  H194  1  0.60920199  0.88326794  0.65380847  1
  H+  H195  1  0.87677052  0.63121756  0.49710051  1
  H+  H196  1  0.85297866  0.87240736  0.34613368  1
  H+  H197  1  0.87695895  0.27458377  -0.00181272  1
  H+  H198  1  0.17203241  0.83185291  0.23035158  1
  H+  H199  1  0.53010201  0.89603450  0.83097319  1
  H+  H200  1  0.10704428  0.88344976  0.82421846  1
  H+  H201  1  0.66051450  0.82689093  -0.06026558  1
  H+  H202  1  0.77258796  0.38902124  0.84534070  1
  H+  H203  1  0.91230043  0.77120110  0.51549464  1
  H+  H204  1  0.34872324  0.66072605  0.03457971  1
  H+  H205  1  1.03073723  0.90324475  0.67467841  1
  H+  H206  1  0.34194060  0.93755422  0.75951349  1
  H+  H207  1  0.36489195  0.12261423  0.66379132  1
  H+  H208  1  0.96408360  0.85197327  0.99733291  1
  H+  H209  1  -0.02728442  0.87159468  0.17199217  1
  H+  H210  1  0.17395428  0.09962980  0.98165454  1
  H+  H211  1  0.61272019  0.47985229  0.49081712  1
  H+  H212  1  0.11844819  0.48821384  0.64740744  1
  H+  H213  1  0.86637615  0.49578465  -0.00908985  1
  H+  H214  1  0.13613728  0.00058011  0.51461933  1
  H+  H215  1  0.22208000  0.61329117  0.33033498  1
  H+  H216  1  0.63959242  0.77629488  0.84418998  1
  H+  H217  1  0.61135246  0.46235781  0.68148513  1
  H+  H218  1  0.49670027  0.88520961  0.49066595  1
  H+  H219  1  0.38254795  0.78499511  0.65553801  1
  H+  H220  1  0.88822442  0.51004107  0.84747126  1
  H+  H221  1  0.61432366  0.63544118  0.83262417  1
  H+  H222  1  0.41237024  0.98024317  0.04439097  1
  H+  H223  1  0.14851196  0.12933454  0.50524275  1
  H+  H224  1  0.37444962  0.13632313  0.16399827  1
  H+  H225  1  0.13034987  0.35441961  0.86537141  1
  H+  H226  1  0.88117900  0.51717367  0.32118039  1
  H+  H227  1  0.09199476  0.13713882  0.02471527  1
  H+  H228  1  0.76378293  0.39815637  0.14683026  1
  H+  H229  1  0.52626699  0.38146703  0.33818600  1
  H+  H230  1  0.36950734  0.90425934  0.66652297  1
  H+  H231  1  0.36335768  0.23270900  0.82739359  1
  H+  H232  1  0.38872099  0.10428411  0.49152705  1
  H+  H233  1  0.34602913  0.62365014  0.81897320  1
  H+  H234  1  -0.00946009  0.61664051  0.67968744  1
  H+  H235  1  0.12399435  0.51681084  0.50552082  1
  H+  H236  1  0.62546621  0.14023302  0.67930099  1
  H+  H237  1  0.88195280  0.03192272  0.51144503  1
  H+  H238  1  0.39538073  0.26828574  0.52956219  1
  H+  H239  1  0.21370444  0.84937794  0.98194103  1
  H+  H240  1  0.39139947  0.26742959  0.30763372  1
  H+  H241  1  0.32791429  0.18338906  0.73682643  1
  H+  H242  1  0.61864940  0.38393672  0.84092070  1
  H+  H243  1  0.90396439  0.78176636  0.67009525  1
  H+  H244  1  0.86656693  0.98811909  0.16323133  1
  H+  H245  1  0.63153056  0.16500386  0.15273924  1
  H+  H246  1  0.51733382  0.89351182  0.16740734  1
  H+  H247  1  0.10141881  0.37314933  0.50174891  1
  H+  H248  1  0.97147970  0.35983385  0.17967468  1
  H+  H249  1  0.21050267  0.61591003  0.82731951  1
  H+  H250  1  0.22373668  0.13450945  0.67719706  1
  H+  H251  1  0.17119307  0.58927838  0.58557796  1
  H+  H252  1  0.72838709  0.59737102  0.66626682  1
  H+  H253  1  0.13410486  0.36478586  0.65153349  1
  H+  H254  1  0.72040313  0.83672857  0.66268323  1
  H+  H255  1  0.36959393  0.12932858  0.30988501  1
  H+  H256  1  0.84112710  0.13396668  0.50243591  1
  H+  H257  1  0.75455756  0.62927998  0.51223885  1
  H+  H258  1  0.07629984  0.17835623  0.77206129  1
  H+  H259  1  0.88511245  0.78255892  0.84340564  1
  H+  H260  1  0.87947240  0.60505513  0.32359122  1
  H+  H261  1  0.39950056  0.27273309  0.16677786  1
  H+  H262  1  0.02361228  0.63495388  0.00333195  1
  H+  H263  1  0.56502777  0.72665658  0.14091699  1
  H+  H264  1  0.36586225  0.54505548  0.50872145  1
  H+  H265  1  0.51501751  0.88045259  0.00823095  1
  H+  H266  1  0.08354820  0.93521245  -0.03856671  1
  H+  H267  1  0.81665148  0.41628109  0.04971084  1
  H+  H268  1  0.61477610  0.22823032  0.49164887  1
  H+  H269  1  0.72497555  0.36446649  0.95362655  1
  H+  H270  1  0.37484521  0.47454424  0.34069247  1
  H+  H271  1  0.48231630  0.61672399  0.32310081  1
  H+  H272  1  0.86076948  0.90154312  0.83243577  1
  H+  H273  1  0.77808265  0.91170669  0.49574203  1
  H+  H274  1  0.61574167  0.62954861  -0.00259967  1
  H+  H275  1  0.85946630  0.22904291  0.67242279  1
  H+  H276  1  0.57028828  0.48097203  0.11705324  1
  H+  H277  1  0.61600019  0.64895033  0.48198776  1
  H+  H278  1  0.72519703  0.11680177  0.66191301  1
  H+  H279  1  0.67829019  0.78440567  0.60186985  1
  H+  H280  1  0.85839664  0.38389512  0.49213464  1
  H+  H281  1  0.47708186  0.60952975  0.66448021  1
  H+  H282  1  0.08885293  0.37624712  0.15836431  1
  H+  H283  1  0.58265440  0.40358180  0.74082005  1
  H+  H284  1  0.96820907  0.36467340  0.99820976  1
  H+  H285  1  0.61625231  0.38386294  0.34059539  1
  H+  H286  1  0.60335800  0.59409103  0.15253452  1
  H+  H287  1  0.13716579  0.25921722  0.50798859  1
  H+  H288  1  0.67015833  0.33650152  0.26801895  1
  H+  H289  1  0.65834590  0.08690722  0.60476836  1
  H+  H290  1  0.07538969  0.43690573  0.70663922  1
  H+  H291  1  0.57290260  0.91239576  0.06798072  1
  H+  H292  1  0.83093541  0.92670723  0.10293575  1
  H+  H293  1  0.32457080  0.66140009  0.75942541  1
  H+  H294  1  0.35515323  0.17270453  0.10239379  1
  H+  H295  1  0.61091134  0.13750006  0.49382742  1
  H+  H296  1  0.34315665  0.41776102  0.76078319  1
  H+  H297  1  0.15912429  0.12717196  0.91088288  1
  H+  H298  1  0.93194469  0.58189567  0.57113721  1
  H+  H299  1  0.91228841  0.11420168  0.27468578  1
  H+  H300  1  0.60036366  0.19864207  0.09395022  1
  H+  H301  1  0.59917002  0.68864897  0.42307007  1
  H+  H302  1  0.63407532  0.52190818  0.33152933  1
  H+  H303  1  0.91651959  0.08897197  0.61040985  1
  H+  H304  1  0.11237616  0.87604933  -0.00707828  1
  H+  H305  1  0.14788754  0.31216977  0.92180154  1
  H+  H306  1  0.06883371  0.41805517  0.06781740  1
  H+  H307  1  0.91239784  0.57465450  0.93194713  1
  H+  H308  1  0.84545991  0.66228666  0.43743891  1
  H+  H309  1  0.57883603  0.93497275  0.40212504  1
  H+  H310  1  0.70816267  0.67345050  0.54203973  1
  H+  H311  1  0.12877463  0.40888239  0.34585114  1
  H+  H312  1  0.58651687  0.66470885  0.77276354  1
  H+  H313  1  0.87974752  0.62988767  0.66333485  1
  H+  H314  1  0.87627298  0.76378505  0.99285288  1
  H+  H315  1  0.39214018  0.03372254  0.82977625  1
  H+  H316  1  0.60113568  0.18164714  0.74156291  1
  H+  H317  1  0.41461513  0.59894549  0.56551034  1
  H+  H318  1  0.36107642  0.39177683  0.66836637  1
  H+  H319  1  0.32808778  0.90664291  0.10876928  1
  H+  H320  1  0.58705605  0.17409978  0.39309551  1
  H+  H321  1  0.65398217  0.08471194  0.27450117  1
  H+  H322  1  0.17282732  0.35809011  0.26345640  1
  H+  H323  1  0.67470028  0.58387634  0.27416947  1
  H+  H324  1  0.41353525  0.33636083  0.89514095  1
  H+  H325  1  0.66812886  0.57744252  0.92895281  1
  H+  H326  1  0.07601701  0.66798856  0.43315250  1
  H+  H327  1  0.04037847  0.84946588  0.38859322  1
  H+  H328  1  0.72544516  0.86869055  0.84673291  1
  H+  H329  1  0.12704769  0.05123586  0.28113746  1
  H+  H330  1  0.24307512  0.09319749  0.24788945  1
  H+  H331  1  0.08228140  0.67167849  0.06261401  1
  H+  H332  1  0.98420955  0.59369041  0.85195091  1
  H+  H333  1  0.84602928  0.66358150  0.78190520  1
  H+  H334  1  0.65027027  0.81615783  0.18633654  1
  H+  H335  1  0.83220700  0.66023087  0.06083888  1
  H+  H336  1  0.15691625  0.81434293  0.88223133  1
  H+  H337  1  0.41660548  0.57287706  0.89238595  1
  H+  H338  1  0.83323837  0.41822590  0.39797200  1
  H+  H339  1  0.89428526  0.81603322  0.25821758  1
  H+  H340  1  0.09115120  0.17675677  0.40246896  1
  H+  H341  1  0.16695368  0.57884924  0.93143600  1
  H+  H342  1  0.39638921  0.36126785  0.16737915  1
  H+  H343  1  0.07980060  0.40941849  0.44254817  1
  H+  H344  1  0.56907995  0.60760124  0.08823466  1
  H+  H345  1  0.16278176  0.32563603  0.59708465  1
  H+  H346  1  0.43290411  0.33933365  0.25823437  1
  H+  H347  1  0.01598310  0.38333698  0.84026077  1
  H+  H348  1  0.19008591  0.11023244  0.90743372  1
  H+  H349  1  0.66855130  0.57335296  0.60980766  1
  H+  H350  1  0.41053724  0.09026652  0.91630094  1
  H+  H351  1  0.42129788  0.34104829  0.60552614  1
  H+  H352  1  0.38294292  0.74835653  0.84094778  1
  H+  H353  1  0.67172644  0.08407054  0.93512606  1
  H+  H354  1  0.83773692  0.15066070  0.35196301  1
  H+  H355  1  0.12738099  0.60803781  0.50044828  1
  H+  H356  1  0.33266988  0.40290951  0.07614525  1
  H+  H357  1  0.41612293  0.83881261  0.24755430  1
  H+  H358  1  0.91534701  0.09424494  0.90388060  1
  H+  H359  1  0.92964782  0.83662377  0.61005866  1
  H+  H360  1  0.20795674  0.34617540  1.01215701  1
  H+  H361  1  0.32930299  0.91899026  0.39870472  1
  H+  H362  1  0.16929284  0.09763509  0.57444645  1
  H+  H363  1  0.67589653  0.86509560  0.27799195  1
  H+  H364  1  0.84409987  0.42207951  0.74095721  1
  H+  H365  1  0.58550546  0.40538986  0.04694106  1
  H+  H366  1  0.65447453  0.31980050  0.60070507  1
  H+  H367  1  0.87106107  0.64715975  0.15498101  1
  H+  H368  1  0.33188231  0.41134199  0.43736079  1
  H+  H369  1  0.92626869  0.31725841  0.29077326  1
  H+  H370  1  0.62629684  0.85151499  0.99940379  1
  H+  H371  1  0.09408779  0.93690852  0.11222690  1
  H+  H372  1  0.42034109  0.57777886  0.26558646  1
  H+  H373  1  0.83124229  0.17362678  0.73411039  1
  H+  H374  1  0.34807505  0.20208526  0.42820435  1
  H+  H375  1  0.60906097  0.71551558  0.00634556  1
  H+  H376  1  0.82871228  0.16691003  0.09959748  1
  H+  H377  1  0.11542229  0.94436749  0.45496555  1
  H+  H378  1  0.35817955  0.96269944  0.48088204  1
  H+  H379  1  0.16821258  0.83166095  0.60723106  1
  H+  H380  1  0.91081362  0.84007239  0.90208311  1
  H+  H381  1  0.34148686  0.23873273  0.41885889  1
  H+  H382  1  0.41230391  0.84417140  0.55264157  1
  H+  H383  1  0.02212317  0.64078405  0.15155435  1
  O2-  O384  1  0.07050408  0.16400534  0.15055394  1
  O2-  O385  1  0.10703041  0.15969311  0.47972473  1
  O2-  O386  1  0.07476402  0.16747728  0.81635435  1
  O2-  O387  1  0.06235033  0.41140143  0.14641784  1
  O2-  O388  1  0.07016676  0.40260717  0.48793486  1
  O2-  O389  1  0.07932719  0.41660673  0.82966274  1
  O2-  O390  1  0.07971961  0.66963959  0.13287616  1
  O2-  O391  1  0.07837810  0.66748201  0.47967560  1
  O2-  O392  1  0.11096716  0.64495315  0.72610976  1
  O2-  O393  1  0.08796168  0.92848544  0.15612494  1
  O2-  O394  1  0.10686133  0.93704151  0.49862386  1
  O2-  O395  1  0.07807484  0.91565240  0.81056908  1
  O2-  O396  1  0.34889924  0.17284371  0.14681891  1
  O2-  O397  1  0.35231316  0.16122170  0.53635695  1
  O2-  O398  1  0.33784323  0.17361052  0.80980464  1
  O2-  O399  1  0.32893414  0.40917495  0.16074194  1
  O2-  O400  1  0.32614657  0.41208625  0.48227417  1
  O2-  O401  1  0.35356090  0.41865672  0.80533841  1
  O2-  O402  1  0.33541520  0.66860842  0.16007528  1
  O2-  O403  1  0.33433751  0.66857303  0.54809026  1
  O2-  O404  1  0.31808309  0.65646917  0.80562478  1
  O2-  O405  1  0.32698005  0.90758572  0.15347245  1
  O2-  O406  1  0.32257968  0.89937241  0.47332786  1
  O2-  O407  1  0.34223379  0.93958256  0.80516034  1
  O2-  O408  1  0.61803499  0.20919459  0.13714084  1
  O2-  O409  1  0.58715256  0.17050271  0.47265233  1
  O2-  O410  1  0.59373896  0.18345319  0.81637261  1
  O2-  O411  1  0.57965665  0.43104079  0.12206697  1
  O2-  O412  1  0.58455714  0.41962862  0.47863726  1
  O2-  O413  1  0.58936383  0.41307892  0.82005468  1
  O2-  O414  1  0.55231032  0.57114848  0.12552142  1
  O2-  O415  1  0.61192044  0.69785087  0.46747373  1
  O2-  O416  1  0.58644196  0.66817581  0.81844368  1
  O2-  O417  1  0.57356900  0.92650997  0.14618310  1
  O2-  O418  1  0.56317951  0.92747131  0.47702311  1
  O2-  O419  1  0.59165438  0.93155019  0.82216519  1
  O2-  O420  1  0.82609583  0.16063162  0.14497215  1
  O2-  O421  1  0.80884574  0.16240226  0.48896954  1
  O2-  O422  1  0.83398245  0.17700347  0.81363402  1
  O2-  O423  1  0.82177868  0.42756670  0.12326086  1
  O2-  O424  1  0.83037097  0.41732528  0.47794957  1
  O2-  O425  1  0.83324591  0.41896773  0.82785148  1
  O2-  O426  1  0.83809554  0.67364027  0.13671516  1
  O2-  O427  1  0.84835949  0.66433087  0.48300213  1
  O2-  O428  1  0.84287054  0.66502845  0.82613752  1
  O2-  O429  1  0.83368022  0.92586463  0.14828537  1
  O2-  O430  1  0.84023879  0.94114681  0.48675502  1
  O2-  O431  1  0.82669872  0.92751492  0.81785078  1
  O2-  O432  1  0.20401040  0.08101713  0.21263544  1
  O2-  O433  1  0.18038284  0.09416885  0.53116609  1
  O2-  O434  1  0.17037030  0.08965649  0.79736760  1
  O2-  O435  1  0.14283718  0.32439366  0.18103687  1
  O2-  O436  1  0.16079391  0.31944295  0.52370054  1
  O2-  O437  1  0.15004392  0.31426584  0.87647518  1
  O2-  O438  1  0.16175138  0.55401620  0.20070662  1
  O2-  O439  1  0.15629263  0.57803476  0.51770454  1
  O2-  O440  1  0.14800110  0.59329955  0.83516188  1
  O2-  O441  1  0.16584454  0.82899766  0.18362841  1
  O2-  O442  1  0.17366400  0.83090517  0.53046663  1
  O2-  O443  1  0.16296673  0.83163322  0.83897304  1
  O2-  O444  1  0.40738614  0.07958400  0.18798849  1
  O2-  O445  1  0.41157913  0.07103365  0.47067161  1
  O2-  O446  1  0.42366814  0.09489705  0.84741130  1
  O2-  O447  1  0.43227665  0.33581763  0.17857904  1
  O2-  O448  1  0.41914879  0.33240006  0.53128058  1
  O2-  O449  1  0.42152046  0.33622483  0.85107758  1
  O2-  O450  1  0.41015135  0.57275979  0.18274458  1
  O2-  O451  1  0.40977227  0.60351004  0.52065211  1
  O2-  O452  1  0.41735740  0.58488130  0.84861569  1
  O2-  O453  1  0.41292710  0.83320223  0.20250058  1
  O2-  O454  1  0.41028516  0.83196599  0.50870251  1
  O2-  O455  1  0.42869385  0.79537645  0.86705979  1
  O2-  O456  1  0.66034230  0.09734021  0.18488094  1
  O2-  O457  1  0.64838894  0.07956897  0.53092528  1
  O2-  O458  1  0.67358249  0.09423678  0.85580740  1
  O2-  O459  1  0.67979593  0.35547316  0.18266499  1
  O2-  O460  1  0.66742018  0.33432355  0.52370948  1
  O2-  O461  1  0.67262980  0.34057941  0.87093845  1
  O2-  O462  1  0.68748016  0.58598167  0.19484891  1
  O2-  O463  1  0.69858899  0.61619191  0.53306090  1
  O2-  O464  1  0.66547930  0.57626527  0.85546093  1
  O2-  O465  1  0.68159798  0.87722417  0.19656140  1
  O2-  O466  1  0.66233521  0.85380079  0.51070104  1
  O2-  O467  1  0.66524282  0.83456656  0.86270355  1
  O2-  O468  1  0.90784893  0.08093813  0.19079938  1
  O2-  O469  1  0.90502036  0.09150263  0.53213370  1
  O2-  O470  1  0.91231108  0.09280766  0.85834676  1
  O2-  O471  1  0.91309376  0.31884406  0.19855197  1
  O2-  O472  1  0.90175729  0.32703414  0.51945919  1
  O2-  O473  1  0.91433013  0.33407827  0.85967725  1
  O2-  O474  1  0.91286286  0.59047395  0.18225219  1
  O2-  O475  1  0.92579733  0.58112187  0.52646110  1
  O2-  O476  1  0.92450087  0.57369660  0.86280637  1
  O2-  O477  1  0.91033218  0.83599176  0.17991896  1
  O2-  O478  1  0.93974045  0.82499311  0.53933184  1
  O2-  O479  1  0.91399597  0.84310316  0.85678236  1
  O2-  O480  1  0.10899931  0.03674157  0.32382242  1
  O2-  O481  1  0.15934124  0.09935112  0.66161870  1
  O2-  O482  1  0.18476930  0.09001710  1.02403995  1
  O2-  O483  1  0.19606054  0.39570709  0.29908261  1
  O2-  O484  1  0.16245892  0.33052802  0.64320375  1
  O2-  O485  1  0.14756563  0.32059829  0.99993916  1
  O2-  O486  1  0.15970152  0.58392428  0.32031075  1
  O2-  O487  1  0.17589109  0.58552623  0.63250175  1
  O2-  O488  1  0.19024479  0.56419489  0.96678562  1
  O2-  O489  1  0.18677851  0.84124263  0.29801855  1
  O2-  O490  1  0.16694155  0.83832167  0.65278118  1
  O2-  O491  1  0.15421141  0.82030328  0.96811266  1
  O2-  O492  1  0.42834294  0.09207199  0.30967409  1
  O2-  O493  1  0.39252152  0.10146952  0.63532223  1
  O2-  O494  1  0.40494444  0.09029293  0.96310907  1
  O2-  O495  1  0.42586456  0.33097756  0.30313079  1
  O2-  O496  1  0.41525453  0.33972241  0.65125929  1
  O2-  O497  1  0.41418225  0.32657863  0.98355061  1
  O2-  O498  1  0.42104877  0.57853406  0.31057388  1
  O2-  O499  1  0.41921235  0.58797600  0.64667340  1
  O2-  O500  1  0.42019522  0.55597642  0.97672914  1
  O2-  O501  1  0.42680725  0.84848896  0.32876109  1
  O2-  O502  1  0.41072968  0.84516687  0.64121928  1
  O2-  O503  1  0.40374817  0.83311232  0.98062517  1
  O2-  O504  1  0.64673176  0.08182126  0.31883042  1
  O2-  O505  1  0.66296180  0.08901885  0.65088806  1
  O2-  O506  1  0.67458203  0.08203675  0.98026636  1
  O2-  O507  1  0.66797156  0.33331667  0.31290652  1
  O2-  O508  1  0.65070248  0.31481709  0.64607492  1
  O2-  O509  1  0.66502984  0.33776065  0.93924183  1
  O2-  O510  1  0.66673494  0.58357219  0.31897176  1
  O2-  O511  1  0.66659009  0.56820441  0.65483267  1
  O2-  O512  1  0.66835181  0.57740817  0.97511446  1
  O2-  O513  1  0.66600116  0.84974103  0.32166270  1
  O2-  O514  1  0.66329340  0.80506438  0.63818256  1
  O2-  O515  1  0.65820709  0.82219508  0.98538827  1
  O2-  O516  1  0.91506464  0.13904530  0.31496835  1
  O2-  O517  1  0.92519053  0.09475643  0.65528694  1
  O2-  O518  1  0.91452638  0.09241828  0.98259433  1
  O2-  O519  1  0.93620637  0.34415092  0.33080739  1
  O2-  O520  1  0.90671855  0.33124993  0.64093481  1
  O2-  O521  1  0.90709724  0.33629027  0.98268811  1
  O2-  O522  1  0.90916433  0.57686844  0.30408075  1
  O2-  O523  1  0.93612881  0.58612866  0.65757225  1
  O2-  O524  1  0.90331753  0.56938783  0.97830521  1
  O2-  O525  1  0.89383994  0.80929384  0.30326446  1
  O2-  O526  1  0.92791233  0.84155949  0.65614444  1
  O2-  O527  1  0.90495255  0.82587703  0.98147630  1
  O2-  O528  1  0.06252461  0.16697949  0.03849366  1
  O2-  O529  1  0.07521395  0.17457817  0.35868012  1
  O2-  O530  1  0.08053022  0.17304864  0.68996638  1
  O2-  O531  1  0.07021806  0.41401212  0.02234517  1
  O2-  O532  1  0.09351491  0.42796756  0.36931478  1
  O2-  O533  1  0.08152954  0.42660556  0.66403944  1
  O2-  O534  1  0.08331643  0.67185112  0.01584490  1
  O2-  O535  1  0.07188559  0.66137497  0.36221149  1
  O2-  O536  1  0.09650048  0.71682817  0.73873555  1
  O2-  O537  1  0.08667237  0.91447411  0.00189300  1
  O2-  O538  1  0.05583697  0.86926897  0.34686840  1
  O2-  O539  1  0.09237514  0.93759676  0.68853838  1
  O2-  O540  1  0.35440555  0.17975600  0.01823806  1
  O2-  O541  1  0.32595141  0.15135768  0.30872967  1
  O2-  O542  1  0.31444601  0.18146821  0.69205705  1
  O2-  O543  1  0.33333263  0.39884985  0.03139909  1
  O2-  O544  1  0.34219336  0.41373474  0.35492317  1
  O2-  O545  1  0.33050110  0.42186014  0.68333431  1
  O2-  O546  1  0.30682396  0.67975786  0.03630988  1
  O2-  O547  1  0.33326855  0.66321513  0.33940641  1
  O2-  O548  1  0.33678284  0.67199232  0.68639733  1
  O2-  O549  1  0.35834418  0.93947159  0.02489194  1
  O2-  O550  1  0.33834431  0.93106437  0.35346526  1
  O2-  O551  1  0.34076308  0.93655660  0.68196012  1
  O2-  O552  1  0.56584642  0.20040212  0.01882069  1
  O2-  O553  1  0.58550576  0.17357173  0.34773592  1
  O2-  O554  1  0.59865041  0.17582010  0.69567371  1
  O2-  O555  1  0.57784767  0.40432921  0.00171634  1
  O2-  O556  1  0.58538144  0.41411225  0.35572080  1
  O2-  O557  1  0.57765317  0.40169471  0.69546840  1
  O2-  O558  1  0.57993133  0.65228599  0.01561252  1
  O2-  O559  1  0.58604665  0.67885777  0.34590191  1
  O2-  O560  1  0.58159230  0.65326001  0.69712860  1
  O2-  O561  1  0.57504587  0.90648240  0.02285013  1
  O2-  O562  1  0.58297834  0.93236805  0.35650198  1
  O2-  O563  1  0.57683846  0.90979101  0.66864948  1
  O2-  O564  1  0.83186013  0.17528019  0.02143170  1
  O2-  O565  1  0.79469559  0.15827496  0.37529595  1
  O2-  O566  1  0.82962293  0.16910693  0.68880865  1
  O2-  O567  1  0.82644268  0.41816554  0.00404812  1
  O2-  O568  1  0.83474969  0.41666505  0.35255681  1
  O2-  O569  1  0.85108118  0.43186594  0.69678390  1
  O2-  O570  1  0.83113618  0.65593767  0.01499531  1
  O2-  O571  1  0.83068381  0.65645877  0.35953383  1
  O2-  O572  1  0.84338147  0.65922195  0.66078135  1
  O2-  O573  1  0.82580030  0.91893096  0.02389607  1
  O2-  O574  1  0.83433545  0.90917683  0.36639768  1
  O2-  O575  1  0.80279876  0.87654720  0.69721994  1
