# generated using pymatgen
data_H2O
_symmetry_space_group_name_H-M   'P 1'
_cell_length_a   17.99029099
_cell_length_b   17.98597220
_cell_length_c   22.00435057
_cell_angle_alpha   89.99938706
_cell_angle_beta   89.98277756
_cell_angle_gamma   119.98869245
_symmetry_Int_Tables_number   1
_chemical_formula_structural   H2O
_chemical_formula_sum   'H384 O192'
_cell_volume   6166.81242935
_cell_formula_units_Z   192
loop_
 _symmetry_equiv_pos_site_id
 _symmetry_equiv_pos_as_xyz
  1  'x, y, z'
loop_
 _atom_type_symbol
 _atom_type_oxidation_number
  H+  1.0
  O2-  -2.0
loop_
 _atom_site_type_symbol
 _atom_site_label
 _atom_site_symmetry_multiplicity
 _atom_site_fract_x
 _atom_site_fract_y
 _atom_site_fract_z
 _atom_site_occupancy
  H+  H0  1  0.12229937  0.88010070  0.33086427  1
  H+  H1  1  0.33486475  0.72788363  0.00676727  1
  H+  H2  1  0.64652309  0.60851407  -0.01605780  1
  H+  H3  1  0.13328748  0.02051586  0.30903032  1
  H+  H4  1  -0.02264834  0.86224582  0.31912018  1
  H+  H5  1  0.12785053  0.26546524  0.50354164  1
  H+  H6  1  0.38546760  0.04139196  0.17290903  1
  H+  H7  1  0.14439234  0.86701365  0.66854161  1
  H+  H8  1  0.12976778  0.28197084  0.15716970  1
  H+  H9  1  0.88540574  1.10601427  -0.01611499  1
  H+  H10  1  0.09117036  0.41349104  0.43507766  1
  H+  H11  1  0.62510857  0.26487459  0.82909836  1
  H+  H12  1  0.38150756  0.35114802  0.66748005  1
  H+  H13  1  0.79442409  0.40139966  1.03159236  1
  H+  H14  1  0.89139076  0.62130720  0.50559443  1
  H+  H15  1  0.10719556  0.12551949  0.81829288  1
  H+  H16  1  0.33358705  0.66943949  0.38113844  1
  H+  H17  1  0.85556000  0.65794918  0.16858462  1
  H+  H18  1  0.32578032  0.90278874  0.39778748  1
  H+  H19  1  0.91213664  0.54884024  0.21560969  1
  H+  H20  1  0.37302377  0.72324201  0.82995415  1
  H+  H21  1  0.78002536  0.88996873  -0.00850374  1
  H+  H22  1  0.37847939  0.50249955  0.18304675  1
  H+  H23  1  0.90741171  0.32111684  0.23773725  1
  H+  H24  1  0.81808428  0.96552743  0.82428434  1
  H+  H25  1  0.35786509  0.43952171  0.48740341  1
  H+  H26  1  0.63537719  0.51316048  0.33345712  1
  H+  H27  1  0.47004507  0.59462086  0.19065368  1
  H+  H28  1  0.53440117  0.14349991  0.49565724  1
  H+  H29  1  0.77715196  0.40326007  0.48153714  1
  H+  H30  1  0.32493103  0.20115491  0.16883920  1
  H+  H31  1  0.02718318  0.20879211  0.08118807  1
  H+  H32  1  0.10435031  0.21254940  0.81516759  1
  H+  H33  1  0.11895502  0.51782673  0.16838376  1
  H+  H34  1  0.17698218  0.61462099  1.00217372  1
  H+  H35  1  0.66248901  0.33179735  0.59488050  1
  H+  H36  1  0.60177292  0.96243540  0.67940042  1
  H+  H37  1  0.96976405  0.35597726  1.00047941  1
  H+  H38  1  0.96077212  0.35403701  0.17712230  1
  H+  H39  1  0.29852749  0.62729517  0.01185811  1
  H+  H40  1  0.67248915  0.09977122  0.58001963  1
  H+  H41  1  0.27518049  0.64382707  0.68278971  1
  H+  H42  1  0.86333453  0.88531851  0.34015132  1
  H+  H43  1  0.36958659  0.51079678  0.32922422  1
  H+  H44  1  0.63560121  0.36625487  0.34459715  1
  H+  H45  1  0.35993241  -0.03539094  0.33963042  1
  H+  H46  1  0.52227634  0.63247310  0.34431841  1
  H+  H47  1  0.02970497  0.64122706  0.32729033  1
  H+  H48  1  0.07921216  0.41211750  0.77848112  1
  H+  H49  1  0.02287014  0.40550243  0.68543954  1
  H+  H50  1  0.64740361  0.77197576  0.19694758  1
  H+  H51  1  0.02348585  0.87795170  0.82463718  1
  H+  H52  1  0.71380311  0.58678549  0.17933662  1
  H+  H53  1  0.49066228  0.36888861  -0.00381543  1
  H+  H54  1  0.38145177  0.85279617  0.32732540  1
  H+  H55  1  0.78286436  0.63479483  0.49217070  1
  H+  H56  1  0.86655853  0.21791079  0.49699332  1
  H+  H57  1  0.62070057  0.73962112  0.68518521  1
  H+  H58  1  0.25652437  0.04129999  0.18999996  1
  H+  H59  1  0.62211765  0.52439067  0.83253587  1
  H+  H60  1  0.35154301  0.64485141  0.16266668  1
  H+  H61  1  0.36673366  0.88672899  0.49418668  1
  H+  H62  1  0.39203293  0.36196120  0.31407398  1
  H+  H63  1  0.22054329  0.09444128  0.52620704  1
  H+  H64  1  0.10627044  0.96414632  0.67772052  1
  H+  H65  1  1.00014453  0.64429853  0.99604561  1
  H+  H66  1  0.39031590  0.61829338  0.83945028  1
  H+  H67  1  0.10369431  0.50110288  0.51711569  1
  H+  H68  1  0.88054397  0.31991110  0.59275039  1
  H+  H69  1  -0.02456281  0.36123920  0.50449289  1
  H+  H70  1  0.10174275  0.89042539  -0.00076688  1
  H+  H71  1  0.52726907  0.65232231  0.52596372  1
  H+  H72  1  0.11835024  0.72965430  0.98139436  1
  H+  H73  1  0.15884176  0.07978247  0.89957592  1
  H+  H74  1  0.38231518  0.35990661  0.84258566  1
  H+  H75  1  0.97461623  0.62070272  0.83730574  1
  H+  H76  1  0.34786504  0.11251857  0.52795627  1
  H+  H77  1  0.54054908  0.64156368  0.69217350  1
  H+  H78  1  1.02135343  0.15234750  0.95714994  1
  H+  H79  1  0.64725937  0.81487692  0.90972090  1
  H+  H80  1  0.82905366  0.15731064  0.06875499  1
  H+  H81  1  0.63882110  0.28830025  0.49790166  1
  H+  H82  1  0.87593352  0.63804764  0.65932924  1
  H+  H83  1  0.46101339  0.68374225  0.53565169  1
  H+  H84  1  0.64518896  0.26960785  1.01025621  1
  H+  H85  1  0.42326062  0.33973066  0.90043867  1
  H+  H86  1  0.85815901  0.37887763  0.83280051  1
  H+  H87  1  0.81049329  0.90659799  0.73621192  1
  H+  H88  1  0.45974224  0.87714570  0.16836530  1
  H+  H89  1  0.60699759  0.38901360  0.81795410  1
  H+  H90  1  0.13653597  0.09890525  0.50546818  1
  H+  H91  1  0.77520698  0.63743217  0.31434462  1
  H+  H92  1  0.39225490  0.13341165  -0.01189737  1
  H+  H93  1  0.63612152  0.64070531  0.49012929  1
  H+  H94  1  0.20921700  0.60873299  0.17056570  1
  H+  H95  1  0.98627511  0.87475124  0.16692456  1
  H+  H96  1  0.88906924  0.77481207  0.83500512  1
  H+  H97  1  0.42237487  0.07595937  0.27251585  1
  H+  H98  1  0.51947810  0.87985290  0.34507975  1
  H+  H99  1  0.00122064  0.13414745  0.48563907  1
  H+  H100  1  0.38403510  0.01328365  0.48904128  1
  H+  H101  1  0.36122870  0.35325528  0.49232224  1
  H+  H102  1  0.22942421  0.34824359  0.66205489  1
  H+  H103  1  0.61065516  0.22202935  0.67030926  1
  H+  H104  1  0.84983747  0.21057310  0.67122899  1
  H+  H105  1  0.41553274  0.81718006  0.92747644  1
  H+  H106  1  0.10915927  0.46621871  0.83907310  1
  H+  H107  1  0.41473656  0.61359846  0.99260774  1
  H+  H108  1  0.63825442  0.77364605  0.33694969  1
  H+  H109  1  0.51380356  0.37703389  0.15610716  1
  H+  H110  1  0.22419140  0.60748914  0.84918821  1
  H+  H111  1  0.71892608  0.09779373  0.67230180  1
  H+  H112  1  -0.03382723  0.10729855  0.16449686  1
  H+  H113  1  0.48665833  0.52734444  0.63558212  1
  H+  H114  1  0.10435710  0.39087833  0.15966095  1
  H+  H115  1  0.90789020  0.53179815  0.00675159  1
  H+  H116  1  0.41586882  0.14269545  0.18285822  1
  H+  H117  1  0.36402200  0.54363502  0.47907818  1
  H+  H118  1  0.12005949  0.38328401  0.49546514  1
  H+  H119  1  0.38624457  0.26477876  0.66711432  1
  H+  H120  1  0.87911059  0.85608978  0.67536972  1
  H+  H121  1  0.78380391  0.42795490  0.17788092  1
  H+  H122  1  0.51764568  0.38765439  0.82237740  1
  H+  H123  1  0.41339542  0.83630637  0.26431982  1
  H+  H124  1  0.87921355  0.26218779  0.84741854  1
  H+  H125  1  0.88968309  0.87314566  0.16473664  1
  H+  H126  1  0.63003696  0.73502423  -0.02066787  1
  H+  H127  1  0.72286027  0.10393824  0.99727633  1
  H+  H128  1  0.88873749  0.61096864  -0.00276970  1
  H+  H129  1  0.85402102  0.12116112  0.83517082  1
  H+  H130  1  0.86342553  0.13405960  0.34200080  1
  H+  H131  1  0.88214127  0.76729491  -0.00227440  1
  H+  H132  1  0.12311424  1.02688877  -0.00091463  1
  H+  H133  1  0.79552680  0.29051459  0.62930048  1
  H+  H134  1  0.65676752  0.56155877  0.24213135  1
  H+  H135  1  -0.02837962  0.85712559  0.67409796  1
  H+  H136  1  0.51601744  0.66149764  0.83335697  1
  H+  H137  1  0.26659434  0.66217735  0.52913067  1
  H+  H138  1  0.92450134  0.82950610  0.89536976  1
  H+  H139  1  0.08706760  0.16118858  0.73213465  1
  H+  H140  1  0.68105387  0.28828640  0.19061558  1
  H+  H141  1  0.12277030  0.96999548  0.15385524  1
  H+  H142  1  0.03568975  0.65289220  0.68280455  1
  H+  H143  1  0.32830321  0.81154585  0.94900014  1
  H+  H144  1  0.38923276  1.01152741  0.65822305  1
  H+  H145  1  -0.03285017  0.35209376  0.84903006  1
  H+  H146  1  0.85519516  -0.03603587  0.67623908  1
  H+  H147  1  0.02178268  0.13065814  0.32579623  1
  H+  H148  1  0.10993851  0.47199517  0.33712756  1
  H+  H149  1  0.12153507  0.63077410  0.32069445  1
  H+  H150  1  0.11317252  0.48948236  0.68725782  1
  H+  H151  1  0.12540323  0.73956835  0.68390854  1
  H+  H152  1  0.52730815  0.87935895  0.00163094  1
  H+  H153  1  0.40098584  0.85861935  0.60418363  1
  H+  H154  1  0.22638363  0.34047005  0.50455792  1
  H+  H155  1  0.13973702  0.85703208  0.51458970  1
  H+  H156  1  0.60915426  0.88166065  0.34995858  1
  H+  H157  1  0.73275923  0.85855081  0.18291368  1
  H+  H158  1  0.77193252  0.38344327  0.82528545  1
  H+  H159  1  0.35137931  0.20174273  0.53527980  1
  H+  H160  1  0.12342763  0.73504935  0.14459888  1
  H+  H161  1  0.36529704  0.22391748  0.83208128  1
  H+  H162  1  0.60404944  0.21375458  0.34518400  1
  H+  H163  1  0.47418681  0.34467892  0.50936554  1
  H+  H164  1  0.21602964  0.61403304  0.31169438  1
  H+  H165  1  0.13026142  0.85738255  0.16779736  1
  H+  H166  1  0.21228520  0.11696195  -0.00320182  1
  H+  H167  1  0.89211857  0.36593772  0.33282145  1
  H+  H168  1  0.86555831  0.72556767  0.50151133  1
  H+  H169  1  0.53455147  0.45170519  0.46889551  1
  H+  H170  1  0.12386767  0.73176284  0.32535832  1
  H+  H171  1  0.77372776  0.62443759  1.00172592  1
  H+  H172  1  0.36553833  0.13448359  0.31934820  1
  H+  H173  1  0.63404469  0.10396232  0.99565698  1
  H+  H174  1  0.63265690  0.60198814  0.32883264  1
  H+  H175  1  0.09711539  0.47228707  0.00945572  1
  H+  H176  1  0.37896364  0.47711744  1.01108091  1
  H+  H177  1  0.97480579  0.10360110  0.66170167  1
  H+  H178  1  0.22834696  0.36409798  0.01551377  1
  H+  H179  1  0.13429623  0.26936765  0.31599111  1
  H+  H180  1  0.68711299  0.33610597  0.25137044  1
  H+  H181  1  0.26981859  0.37899205  0.16064007  1
  H+  H182  1  0.63476671  0.01571077  0.34004881  1
  H+  H183  1  0.22959806  0.85622457  0.31984461  1
  H+  H184  1  0.88916280  0.53079924  0.83141510  1
  H+  H185  1  0.86029390  0.87769868  0.50180391  1
  H+  H186  1  -0.09418247  0.53431612  0.31379706  1
  H+  H187  1  0.52264659  0.13246635  0.67441773  1
  H+  H188  1  -0.06304279  0.08163843  0.83458808  1
  H+  H189  1  0.10993584  0.64105417  0.13798526  1
  H+  H190  1  0.86833396  0.48927975  0.48604435  1
  H+  H191  1  0.37232782  0.78624556  0.17295868  1
  H+  H192  1  0.62478340  0.47753127  0.00646066  1
  H+  H193  1  0.47440137  0.10033105  0.33500531  1
  H+  H194  1  0.64173232  0.51669735  0.50324432  1
  H+  H195  1  0.37360690  0.66999404  0.67678862  1
  H+  H196  1  0.86460558  0.97300761  0.15320781  1
  H+  H197  1  0.10259921  0.62858406  0.49480313  1
  H+  H198  1  0.61445270  0.96803138  0.00170306  1
  H+  H199  1  0.13752720  0.61167679  0.84622847  1
  H+  H200  1  0.13522485  0.11033235  0.30883949  1
  H+  H201  1  0.77464475  0.88506781  0.34786658  1
  H+  H202  1  0.50075207  0.61284968  -0.01469562  1
  H+  H203  1  0.15187146  0.15563288  0.17191973  1
  H+  H204  1  0.88201624  0.85749747  -0.00737787  1
  H+  H205  1  0.66762224  0.57039288  0.92707289  1
  H+  H206  1  0.62861780  0.85574640  0.66433048  1
  H+  H207  1  0.41294296  0.76051563  0.47787207  1
  H+  H208  1  0.62941686  0.15668252  0.50397243  1
  H+  H209  1  0.35708083  0.72284575  0.32159166  1
  H+  H210  1  0.73336271  0.12701384  0.52057537  1
  H+  H211  1  0.40321642  0.37385033  -0.00091238  1
  H+  H212  1  0.63295052  0.10405781  0.67181312  1
  H+  H213  1  0.39420005  0.02301233  0.85162666  1
  H+  H214  1  0.51751069  0.10378615  0.15882291  1
  H+  H215  1  0.85606558  0.21944456  1.01132387  1
  H+  H216  1  0.88717641  1.01968745  0.32658789  1
  H+  H217  1  0.02350838  0.38256401  0.34275741  1
  H+  H218  1  0.86709394  0.64355904  0.30692049  1
  H+  H219  1  0.63641613  0.10554570  0.33851413  1
  H+  H220  1  0.41098552  0.09964385  0.45441868  1
  H+  H221  1  0.72630998  0.87727544  0.81435565  1
  H+  H222  1  0.87788748  0.10321127  0.17236705  1
  H+  H223  1  0.72728696  0.86270428  0.51223024  1
  H+  H224  1  0.77541379  0.12690678  0.16882964  1
  H+  H225  1  0.09515998  0.67051349  0.43213389  1
  H+  H226  1  0.27781260  0.13727808  0.31060255  1
  H+  H227  1  0.49661658  0.87908072  0.51187127  1
  H+  H228  1  0.36640470  0.13458665  0.83411208  1
  H+  H229  1  0.28399508  0.87736156  0.66687563  1
  H+  H230  1  0.69219588  0.33129017  0.37582312  1
  H+  H231  1  0.14391360  0.62841973  0.67355210  1
  H+  H232  1  0.58363311  0.42194681  0.72853414  1
  H+  H233  1  0.13671731  0.73254412  0.84890032  1
  H+  H234  1  0.77334243  0.13078626  0.34800430  1
  H+  H235  1  0.63917269  0.52763179  0.66319912  1
  H+  H236  1  0.14591988  0.77244355  0.51198627  1
  H+  H237  1  0.86057333  0.12721967  0.67444639  1
  H+  H238  1  0.90653062  0.54415587  0.66305887  1
  H+  H239  1  0.36415175  0.46364549  0.67751080  1
  H+  H240  1  0.19421277  0.19092890  0.16032855  1
  H+  H241  1  0.62611521  0.38854226  1.01500236  1
  H+  H242  1  0.61708172  0.14004325  0.82959483  1
  H+  H243  1  0.35583807  0.90576881  0.15789054  1
  H+  H244  1  0.31617044  0.17204924  0.94105576  1
  H+  H245  1  0.88937026  0.36591725  0.49556863  1
  H+  H246  1  0.48161009  0.11382589  0.84320990  1
  H+  H247  1  0.86180932  0.21801286  0.16642509  1
  H+  H248  1  -0.01950204  0.62128838  0.50253821  1
  H+  H249  1  0.22433702  0.10464473  0.66445084  1
  H+  H250  1  0.61018261  0.88172294  0.50260439  1
  H+  H251  1  0.26849238  0.37794438  0.33213407  1
  H+  H252  1  0.79380621  0.41337398  0.33004179  1
  H+  H253  1  0.64483038  0.10072958  0.18557740  1
  H+  H254  1  0.36874683  0.60393634  0.32208684  1
  H+  H255  1  0.39229198  0.27212932  0.30990018  1
  H+  H256  1  0.87502977  0.40832070  0.67634395  1
  H+  H257  1  0.22426554  0.10944056  0.84340618  1
  H+  H258  1  0.63747183  0.35852764  0.65603879  1
  H+  H259  1  0.60602412  0.47456771  0.16551655  1
  H+  H260  1  0.36752188  0.00556512  1.00564016  1
  H+  H261  1  0.76966761  0.64407978  0.82589922  1
  H+  H262  1  0.52498049  0.38912520  0.66998997  1
  H+  H263  1  0.26526264  0.38006828  0.83245064  1
  H+  H264  1  -0.03013381  0.85498557  0.52316402  1
  H+  H265  1  0.14967384  0.58116086  0.25265044  1
  H+  H266  1  0.37749176  0.92345872  1.01063732  1
  H+  H267  1  0.60486896  0.97727556  0.16123630  1
  H+  H268  1  0.52695993  0.14595043  0.00644390  1
  H+  H269  1  0.11877039  0.13004226  0.67068585  1
  H+  H270  1  0.34081114  0.53328075  0.50928920  1
  H+  H271  1  0.10362179  -0.03968687  0.49810858  1
  H+  H272  1  0.63337046  0.37438972  0.49815946  1
  H+  H273  1  0.12543899  0.34636249  0.84349747  1
  H+  H274  1  0.60698527  0.61903013  0.18427727  1
  H+  H275  1  0.27461985  0.88243516  0.49662595  1
  H+  H276  1  0.13295079  0.23920694  0.66451352  1
  H+  H277  1  0.88055374  0.09675228  0.51167395  1
  H+  H278  1  0.08676155  0.69875843  1.05203670  1
  H+  H279  1  0.11098091  0.38942478  1.01947698  1
  H+  H280  1  0.36591841  0.24113755  0.99008467  1
  H+  H281  1  0.24895047  0.85965475  0.97030249  1
  H+  H282  1  0.63660274  0.85300750  -0.02587023  1
  H+  H283  1  0.87799844  0.39529864  0.02352387  1
  H+  H284  1  0.26107176  0.61965275  0.51907082  1
  H+  H285  1  0.35749235  0.12634793  0.67899407  1
  H+  H286  1  0.28955563  0.87695550  0.85743657  1
  H+  H287  1  1.00887894  0.88070324  1.00479657  1
  H+  H288  1  0.58474788  0.42018279  0.09615231  1
  H+  H289  1  0.89785977  0.07026598  0.91590094  1
  H+  H290  1  0.92388388  0.84638403  0.23160782  1
  H+  H291  1  0.88512785  0.27264604  0.33829017  1
  H+  H292  1  0.32365700  0.92186737  0.79184343  1
  H+  H293  1  0.04602795  0.52084218  0.55973554  1
  H+  H294  1  0.85949714  0.44205394  0.73950747  1
  H+  H295  1  0.05901107  0.88685734  0.44680179  1
  H+  H296  1  0.42916378  0.58783078  0.89480149  1
  H+  H297  1  0.35616682  0.37148940  0.16410367  1
  H+  H298  1  0.16047659  0.07075428  0.60660994  1
  H+  H299  1  0.88516487  0.00930173  0.50876992  1
  H+  H300  1  0.61987866  0.68689474  0.04192628  1
  H+  H301  1  0.57892706  0.66604647  0.13640880  1
  H+  H302  1  0.06821395  0.41589234  0.10171143  1
  H+  H303  1  0.38305821  0.20801000  0.42838841  1
  H+  H304  1  0.67295122  0.07461586  0.24753414  1
  H+  H305  1  0.88735898  0.77399790  0.30675151  1
  H+  H306  1  0.57687361  0.41377633  0.40931600  1
  H+  H307  1  0.86824548  0.97914128  -0.00598317  1
  H+  H308  1  0.72059561  0.85846881  0.66352180  1
  H+  H309  1  0.66274690  0.82594494  0.56931363  1
  H+  H310  1  0.45962034  0.59263310  0.61209581  1
  H+  H311  1  0.32829108  0.39794960  0.39129513  1
  H+  H312  1  0.83250718  0.16262087  0.77544524  1
  H+  H313  1  0.65108736  0.62254215  0.66934192  1
  H+  H314  1  0.66545694  0.08735669  0.89750923  1
  H+  H315  1  0.16414305  0.58998309  0.61435163  1
  H+  H316  1  0.08138143  0.16307785  0.38359910  1
  H+  H317  1  0.13568056  0.35933547  0.32019107  1
  H+  H318  1  0.57980547  0.15058296  0.06605525  1
  H+  H319  1  0.58814145  0.66195835  0.40021751  1
  H+  H320  1  0.34802703  0.41965952  0.07201906  1
  H+  H321  1  0.35453009  0.47095353  0.82940051  1
  H+  H322  1  0.53023451  0.38412890  0.34011104  1
  H+  H323  1  0.33272677  0.66155669  0.77454820  1
  H+  H324  1  0.67344803  0.83880169  0.28110972  1
  H+  H325  1  0.85642783  0.64266399  0.81859906  1
  H+  H326  1  0.58082061  0.16279469  0.76838823  1
  H+  H327  1  0.85026279  0.46243325  0.12224020  1
  H+  H328  1  0.17149286  0.31423113  0.59899689  1
  H+  H329  1  0.81723969  0.56101549  0.14922131  1
  H+  H330  1  0.10993892  0.15431304  -0.03794636  1
  H+  H331  1  0.14006603  0.95253736  0.37811744  1
  H+  H332  1  0.52935967  0.81313582  0.84747659  1
  H+  H333  1  0.91245867  0.07477225  0.26453955  1
  H+  H334  1  0.08085471  0.16429499  0.08724254  1
  H+  H335  1  0.19865626  0.07223494  0.22134165  1
  H+  H336  1  0.07568832  0.91143118  0.09473437  1
  H+  H337  1  0.40083115  0.56481721  0.25537885  1
  H+  H338  1  0.70673239  0.33626623  0.96058422  1
  H+  H339  1  0.90678998  0.32766486  0.94286207  1
  H+  H340  1  0.58945905  0.70158784  0.77267440  1
  H+  H341  1  0.77497255  0.63306388  0.66279178  1
  H+  H342  1  0.58446649  0.16216754  0.40751960  1
  H+  H343  1  0.67264500  0.57722499  0.56292055  1
  H+  H344  1  0.31640938  0.67544000  0.10694121  1
  H+  H345  1  0.32956136  0.15716431  0.73864861  1
  H+  H346  1  0.90831027  0.82874015  0.58122023  1
  H+  H347  1  0.13737120  0.28457713  0.89057328  1
  H+  H348  1  0.62660404  0.61577657  0.84185915  1
  H+  H349  1  0.16101596  0.32873739  0.22254846  1
  H+  H350  1  0.32476089  0.40735628  0.73792209  1
  H+  H351  1  0.10099846  0.68510634  0.78417720  1
  H+  H352  1  0.57198609  0.92823526  0.09645973  1
  H+  H353  1  0.54857869  0.04268369  0.12899447  1
  H+  H354  1  0.17065119  0.83029054  0.25782268  1
  H+  H355  1  0.54737371  0.89029979  0.72835783  1
  H+  H356  1  0.41285767  0.07754012  0.60456942  1
  H+  H357  1  0.82289063  0.64420669  0.06531762  1
  H+  H358  1  0.83501410  0.90834492  0.43955136  1
  H+  H359  1  0.63712050  0.32497431  0.88501425  1
  H+  H360  1  0.92936519  0.59639817  0.59826134  1
  H+  H361  1  0.83392611  0.15605573  0.43972216  1
  H+  H362  1  0.33093827  0.94090777  0.09820925  1
  H+  H363  1  0.36327630  0.88373069  0.70404006  1
  H+  H364  1  0.86712933  0.73163244  0.66943865  1
  H+  H365  1  0.22604921  0.87368991  0.16664842  1
  H+  H366  1  0.17388255  0.83585974  0.60904320  1
  H+  H367  1  0.42008156  0.32434725  0.57254949  1
  H+  H368  1  0.34123194  0.16611532  0.42757231  1
  H+  H369  1  0.08044942  0.90606638  0.73881724  1
  H+  H370  1  0.42317879  0.87807006  0.81804056  1
  H+  H371  1  0.42089470  0.32270412  0.23059138  1
  H+  H372  1  0.11141386  0.96705557  0.82343003  1
  H+  H373  1  0.84794059  0.44173566  0.39140269  1
  H+  H374  1  0.91582199  0.07163629  0.60293896  1
  H+  H375  1  0.35978612  0.66089433  0.47701329  1
  H+  H376  1  0.02003674  0.21190632  0.44422699  1
  H+  H377  1  0.42580062  0.09702528  0.93494703  1
  H+  H378  1  0.83551699  0.91336800  0.09290281  1
  H+  H379  1  0.63624996  0.73159064  0.49057123  1
  H+  H380  1  0.14335795  0.57300833  0.93734284  1
  H+  H381  1  0.72843043  0.12208131  0.84056476  1
  H+  H382  1  0.13903768  0.28307554  0.99455523  1
  H+  H383  1  0.57927239  0.91206598  0.44401576  1
  O2-  O384  1  0.05146436  0.18728564  0.11147043  1
  O2-  O385  1  0.04889995  0.18241791  0.46060202  1
  O2-  O386  1  0.07768051  0.15342493  0.79790595  1
  O2-  O387  1  0.06989300  0.41770969  0.14786519  1
  O2-  O388  1  0.08649829  0.40985168  0.48039283  1
  O2-  O389  1  0.07903387  0.40588887  0.82374067  1
  O2-  O390  1  0.09564135  0.68228253  0.11947271  1
  O2-  O391  1  0.09046632  0.67235258  0.47657776  1
  O2-  O392  1  0.09787649  0.67561793  0.82865569  1
  O2-  O393  1  0.07671966  0.91125292  0.14071661  1
  O2-  O394  1  0.07293167  0.89663899  0.49010179  1
  O2-  O395  1  0.08376062  0.90855561  0.80659962  1
  O2-  O396  1  0.38807055  0.22986949  0.16466653  1
  O2-  O397  1  0.31588799  0.13945477  0.54483393  1
  O2-  O398  1  0.33287855  0.16217919  0.81995304  1
  O2-  O399  1  0.33381050  0.40993670  0.15210332  1
  O2-  O400  1  0.32903384  0.38023069  0.47267257  1
  O2-  O401  1  0.32551243  0.41029910  0.81624641  1
  O2-  O402  1  0.31945166  0.67399076  0.15257317  1
  O2-  O403  1  0.40658269  0.70890400  0.45548371  1
  O2-  O404  1  0.33625136  0.66167596  0.82072639  1
  O2-  O405  1  0.32865260  0.93974601  0.14396348  1
  O2-  O406  1  0.33246342  0.91180347  0.47632547  1
  O2-  O407  1  0.34722905  0.91752672  0.83072686  1
  O2-  O408  1  0.56573245  0.10388390  0.13627022  1
  O2-  O409  1  0.59410564  0.17876175  0.48124016  1
  O2-  O410  1  0.58129081  0.16676421  0.81378335  1
  O2-  O411  1  0.57639989  0.41569888  0.14298215  1
  O2-  O412  1  0.56514740  0.41970827  0.47137463  1
  O2-  O413  1  0.57730351  0.42110678  0.80565956  1
  O2-  O414  1  0.57411173  0.65095082  0.17929391  1
  O2-  O415  1  0.60604346  0.67108863  0.47466977  1
  O2-  O416  1  0.58202360  0.70370104  0.82158765  1
  O2-  O417  1  0.55389136  0.94429076  0.13462630  1
  O2-  O418  1  0.58014132  0.91304284  0.48929654  1
  O2-  O419  1  0.48228010  0.82719724  0.86057141  1
  O2-  O420  1  0.83392689  0.15712949  0.15009010  1
  O2-  O421  1  0.83778851  0.15656050  0.48516680  1
  O2-  O422  1  0.83185547  0.16382101  0.82032973  1
  O2-  O423  1  0.83427354  0.48042010  0.16036374  1
  O2-  O424  1  0.83770245  0.43094174  0.46635043  1
  O2-  O425  1  0.83360283  0.41333116  0.81522392  1
  O2-  O426  1  0.80861307  0.61258840  0.14526135  1
  O2-  O427  1  0.84464911  0.66906128  0.48150798  1
  O2-  O428  1  0.82710907  0.67566125  0.80789577  1
  O2-  O429  1  0.83896949  0.91189597  0.13845412  1
  O2-  O430  1  0.83220804  0.90943637  0.48486204  1
  O2-  O431  1  0.78713691  0.90834622  0.80257346  1
  O2-  O432  1  0.21525914  0.05984368  0.18090984  1
  O2-  O433  1  0.15426110  0.06140871  0.52463942  1
  O2-  O434  1  0.16242699  0.08096401  0.85454940  1
  O2-  O435  1  0.16648675  0.33781178  0.17759619  1
  O2-  O436  1  0.16886136  0.32131461  0.52317856  1
  O2-  O437  1  0.15632346  0.31329997  0.85075376  1
  O2-  O438  1  0.14821222  0.57933935  0.18397440  1
  O2-  O439  1  0.10157988  0.54874499  0.53939361  1
  O2-  O440  1  0.16303810  0.57619586  0.86145006  1
  O2-  O441  1  0.16701394  0.83463864  0.18337549  1
  O2-  O442  1  0.17527713  0.83209767  0.52858603  1
  O2-  O443  1  0.20973800  0.82425902  0.88648217  1
  O2-  O444  1  0.42723146  0.09603057  0.19409052  1
  O2-  O445  1  0.41450027  0.07822583  0.49450020  1
  O2-  O446  1  0.42213436  0.08600625  0.86130667  1
  O2-  O447  1  0.41826367  0.32020253  0.18222364  1
  O2-  O448  1  0.41451938  0.31366657  0.52769279  1
  O2-  O449  1  0.41631775  0.33255645  0.85532674  1
  O2-  O450  1  0.40656629  0.56349701  0.20087447  1
  O2-  O451  1  0.48774294  0.65516694  0.55654394  1
  O2-  O452  1  0.42955461  0.59375136  0.84979428  1
  O2-  O453  1  0.40123213  0.84667343  0.18744230  1
  O2-  O454  1  0.42725202  0.84727899  0.51954445  1
  O2-  O455  1  0.45473238  0.84850218  0.80347752  1
  O2-  O456  1  0.67670126  0.07336334  0.20202612  1
  O2-  O457  1  0.68370097  0.12744499  0.53919155  1
  O2-  O458  1  0.66671002  0.09695759  0.85326668  1
  O2-  O459  1  0.69356174  0.34363601  0.20701451  1
  O2-  O460  1  0.67031811  0.35044287  0.50941190  1
  O2-  O461  1  0.65241699  0.32822540  0.84228787  1
  O2-  O462  1  0.65347952  0.56146119  0.19532394  1
  O2-  O463  1  0.67594025  0.57783034  0.51804833  1
  O2-  O464  1  0.65297363  0.58160891  0.85333114  1
  O2-  O465  1  0.67830320  0.83377637  0.20569131  1
  O2-  O466  1  0.66541745  0.82860690  0.52381600  1
  O2-  O467  1  0.60786967  0.79366666  0.84016110  1
  O2-  O468  1  0.91000269  0.07196241  0.18449077  1
  O2-  O469  1  0.91631645  0.07070539  0.52389192  1
  O2-  O470  1  0.88177486  0.06254711  0.85458863  1
  O2-  O471  1  0.90193266  0.31658989  0.19300666  1
  O2-  O472  1  0.91391749  0.33398951  0.51629817  1
  O2-  O473  1  0.90661140  0.32327734  0.86343288  1
  O2-  O474  1  0.96274366  0.59755123  0.23597685  1
  O2-  O475  1  0.92191703  0.58895575  0.52004106  1
  O2-  O476  1  0.91156293  0.59243924  0.83887099  1
  O2-  O477  1  0.92421197  0.84632364  0.18403381  1
  O2-  O478  1  0.90882645  0.82837995  0.53564070  1
  O2-  O479  1  0.92865066  0.83415851  0.85098572  1
  O2-  O480  1  0.16528670  0.07980334  0.29355535  1
  O2-  O481  1  0.16253467  0.07548242  0.65158374  1
  O2-  O482  1  0.15194455  0.08647755  0.98282659  1
  O2-  O483  1  0.16641648  0.33083253  0.30269663  1
  O2-  O484  1  0.16996478  0.31057529  0.64476860  1
  O2-  O485  1  0.16557948  0.33600799  1.02016476  1
  O2-  O486  1  0.15382483  0.58543837  0.30016253  1
  O2-  O487  1  0.17223714  0.59535952  0.65875489  1
  O2-  O488  1  0.12717701  0.56843237  0.98133899  1
  O2-  O489  1  0.16864403  0.82606880  0.30388577  1
  O2-  O490  1  0.17853632  0.83956175  0.65419391  1
  O2-  O491  1  0.22776328  0.80438397  0.94831355  1
  O2-  O492  1  0.41502248  0.06950446  0.31751567  1
  O2-  O493  1  0.41243716  0.07395155  0.64883619  1
  O2-  O494  1  0.42487693  0.10261615  0.98077414  1
  O2-  O495  1  0.42549029  0.33578734  0.29846861  1
  O2-  O496  1  0.41512233  0.32510476  0.65135670  1
  O2-  O497  1  0.43171475  0.34404248  0.97918730  1
  O2-  O498  1  0.39930317  0.57095492  0.31050041  1
  O2-  O499  1  0.45637220  0.55668262  0.64919174  1
  O2-  O500  1  0.43769849  0.57962329  0.97480988  1
  O2-  O501  1  0.41249993  0.82499732  0.30899470  1
  O2-  O502  1  0.41047415  0.81574859  0.58275076  1
  O2-  O503  1  0.38301552  0.81596667  0.96409014  1
  O2-  O504  1  0.66822297  0.07638391  0.32468788  1
  O2-  O505  1  0.65883164  0.06987650  0.65645999  1
  O2-  O506  1  0.66205782  0.07134016  0.98204072  1
  O2-  O507  1  0.67081734  0.33560961  0.33595293  1
  O2-  O508  1  0.65970130  0.32241717  0.63928366  1
  O2-  O509  1  0.68057471  0.33357437  0.99990664  1
  O2-  O510  1  0.66182556  0.57115925  0.31277629  1
  O2-  O511  1  0.67317466  0.58898486  0.64819229  1
  O2-  O512  1  0.67151590  0.57179986  0.97276744  1
  O2-  O513  1  0.66921867  0.83591995  0.32682646  1
  O2-  O514  1  0.65927246  0.82501007  0.64911550  1
  O2-  O515  1  0.66483052  0.82365592  0.95459714  1
  O2-  O516  1  0.91704852  0.07950039  0.30988128  1
  O2-  O517  1  0.91430827  0.07351333  0.64829375  1
  O2-  O518  1  0.91491335  0.07787445  0.96515711  1
  O2-  O519  1  0.92019041  0.33223889  0.32204582  1
  O2-  O520  1  0.85626861  0.30908874  0.63473522  1
  O2-  O521  1  0.90775344  0.32858619  0.98850039  1
  O2-  O522  1  0.93713020  0.59706887  0.29956497  1
  O2-  O523  1  0.93069787  0.60360690  0.64356704  1
  O2-  O524  1  0.92857020  0.58867402  0.98603189  1
  O2-  O525  1  0.92058743  0.83966580  0.30020907  1
  O2-  O526  1  0.91034603  0.82633450  0.65912716  1
  O2-  O527  1  0.91476026  0.82738348  0.98279631  1
  O2-  O528  1  0.08544762  0.19175854  -0.04660676  1
  O2-  O529  1  0.08417632  0.16213570  0.33871837  1
  O2-  O530  1  0.09109323  0.16506585  0.68402538  1
  O2-  O531  1  0.07183565  0.41301501  0.02781226  1
  O2-  O532  1  0.08628219  0.41383004  0.35440795  1
  O2-  O533  1  0.08094998  0.42847831  0.70092938  1
  O2-  O534  1  0.06906906  0.70854978  0.00972829  1
  O2-  O535  1  0.09259045  0.66915361  0.34135904  1
  O2-  O536  1  0.09445823  0.67922141  0.69994635  1
  O2-  O537  1  0.07149087  0.91558658  0.01980714  1
  O2-  O538  1  0.09668635  0.91394750  0.34920633  1
  O2-  O539  1  0.07805050  0.90347026  0.69112030  1
  O2-  O540  1  0.32686834  0.17717270  -0.01512360  1
  O2-  O541  1  0.34109360  0.17214589  0.31121520  1
  O2-  O542  1  0.32845674  0.15793773  0.69327748  1
  O2-  O543  1  0.34868164  0.41745949  0.02683497  1
  O2-  O544  1  0.32962780  0.41001887  0.34697794  1
  O2-  O545  1  0.32605097  0.40404832  0.69240331  1
  O2-  O546  1  0.29861750  0.67527770  0.03237755  1
  O2-  O547  1  0.32292334  0.66086321  0.33678320  1
  O2-  O548  1  0.33253211  0.67413722  0.70320126  1
  O2-  O549  1  0.33799182  0.94413763  0.02118979  1
  O2-  O550  1  0.32615764  0.90267225  0.35226493  1
  O2-  O551  1  0.34844518  0.90385972  0.66738055  1
  O2-  O552  1  0.58671257  0.16860529  0.02236554  1
  O2-  O553  1  0.57772291  0.15487672  0.36172963  1
  O2-  O554  1  0.58244789  0.16365241  0.68982629  1
  O2-  O555  1  0.59475443  0.41917499  0.02697268  1
  O2-  O556  1  0.58728437  0.41327124  0.35992355  1
  O2-  O557  1  0.58606954  0.42403450  0.68300608  1
  O2-  O558  1  0.60498467  0.67405052  -0.00074676  1
  O2-  O559  1  0.58358546  0.66030155  0.35436812  1
  O2-  O560  1  0.59729272  0.68341288  0.71002635  1
  O2-  O561  1  0.58625798  0.90649417  0.01664154  1
  O2-  O562  1  0.57746692  0.91128612  0.36371871  1
  O2-  O563  1  0.57161631  0.89947821  0.68745228  1
  O2-  O564  1  0.82702922  0.15766287  0.02350314  1
  O2-  O565  1  0.83494987  0.16342181  0.36130385  1
  O2-  O566  1  0.82764750  0.15392398  0.69073795  1
  O2-  O567  1  0.85643660  0.43312054  0.04075011  1
  O2-  O568  1  0.85330538  0.44133748  0.34540099  1
  O2-  O569  1  0.87686689  0.45805605  0.69631213  1
  O2-  O570  1  0.83196253  0.65561137  0.02097000  1
  O2-  O571  1  0.83650499  0.67607696  0.30410393  1
  O2-  O572  1  0.83830133  0.66514375  0.67340147  1
  O2-  O573  1  0.83647476  0.91847716  0.01187505  1
  O2-  O574  1  0.83711860  0.91652766  0.35955888  1
  O2-  O575  1  0.82226566  0.90353258  0.69037423  1
