# generated using pymatgen
data_H2O
_symmetry_space_group_name_H-M   'P 1'
_cell_length_a   17.99387611
_cell_length_b   17.99369807
_cell_length_c   22.00608934
_cell_angle_alpha   89.97445677
_cell_angle_beta   90.01437407
_cell_angle_gamma   120.00887907
_symmetry_Int_Tables_number   1
_chemical_formula_structural   H2O
_chemical_formula_sum   'H384 O192'
_cell_volume   6169.92310129
_cell_formula_units_Z   192
loop_
 _symmetry_equiv_pos_site_id
 _symmetry_equiv_pos_as_xyz
  1  'x, y, z'
loop_
 _atom_type_symbol
 _atom_type_oxidation_number
  H+  1.0
  O2-  -2.0
loop_
 _atom_site_type_symbol
 _atom_site_label
 _atom_site_symmetry_multiplicity
 _atom_site_fract_x
 _atom_site_fract_y
 _atom_site_fract_z
 _atom_site_occupancy
  H+  H0  1  0.60938716  0.58408439  0.83000598  1
  H+  H1  1  0.52116878  0.87872286  0.00663713  1
  H+  H2  1  0.85095623  0.14159641  0.48780707  1
  H+  H3  1  0.11729305  0.89917555  0.34840981  1
  H+  H4  1  0.60083840  0.63570314  -0.00365785  1
  H+  H5  1  0.61273124  0.51964112  -0.01019099  1
  H+  H6  1  0.64356568  0.11706500  0.85158583  1
  H+  H7  1  0.14934480  0.36555506  0.16927103  1
  H+  H8  1  0.39779913  0.79686682  0.83339739  1
  H+  H9  1  0.34376997  0.87738006  0.82569846  1
  H+  H10  1  1.08288264  0.93171981  0.77393365  1
  H+  H11  1  0.67595875  0.69256686  0.70449194  1
  H+  H12  1  0.87479850  0.64314363  0.00533613  1
  H+  H13  1  0.37073073  0.39495193  0.15744330  1
  H+  H14  1  0.12966789  0.60120646  0.98726169  1
  H+  H15  1  0.85552949  0.88776501  0.82116742  1
  H+  H16  1  0.88894920  0.11236015  0.30835772  1
  H+  H17  1  0.79534037  0.68719261  0.86159830  1
  H+  H18  1  0.92383117  0.28342990  0.16347786  1
  H+  H19  1  0.61431043  0.68859305  0.83138234  1
  H+  H20  1  0.86321021  0.88003336  0.00902365  1
  H+  H21  1  0.88967527  0.78228473  0.83251643  1
  H+  H22  1  0.87674109  0.03744997  0.50550047  1
  H+  H23  1  0.88473024  0.79764559  0.50867469  1
  H+  H24  1  0.61058365  0.47729067  0.36179197  1
  H+  H25  1  0.10778672  0.17118321  0.10539696  1
  H+  H26  1  0.11718540  0.11171761  0.33420578  1
  H+  H27  1  0.64598314  1.02820367  0.35452704  1
  H+  H28  1  0.11631480  -0.03050233  1.00786224  1
  H+  H29  1  0.61869268  0.47385176  0.67398365  1
  H+  H30  1  0.86175676  -0.02302386  0.33751764  1
  H+  H31  1  0.13986449  0.57953772  0.23176749  1
  H+  H32  1  0.13009442  0.76704574  0.65787868  1
  H+  H33  1  0.02962864  0.13965024  0.68430262  1
  H+  H34  1  0.72062567  0.10106079  0.64246290  1
  H+  H35  1  0.61641007  0.87428403  0.00547457  1
  H+  H36  1  0.96674406  0.12546474  0.50540699  1
  H+  H37  1  -0.01918523  0.62137077  0.32024193  1
  H+  H38  1  0.76872157  0.90221626  0.49752198  1
  H+  H39  1  -0.02544580  0.85918962  0.16583245  1
  H+  H40  1  0.88804897  0.10706737  0.98263957  1
  H+  H41  1  0.32697379  0.93417526  0.39732854  1
  H+  H42  1  0.35657205  0.72269342  0.35294820  1
  H+  H43  1  0.73125056  0.14645177  0.17959570  1
  H+  H44  1  -0.02634919  0.36546118  0.34489608  1
  H+  H45  1  0.38848594  0.02939366  0.16401946  1
  H+  H46  1  0.13434329  0.78043788  0.50988223  1
  H+  H47  1  0.61847803  0.92636440  0.81981052  1
  H+  H48  1  0.73534466  0.37343652  0.34364583  1
  H+  H49  1  0.87315398  0.68852120  0.54084635  1
  H+  H50  1  0.40643694  0.41354085  0.66621444  1
  H+  H51  1  0.11976746  0.47473768  -0.00347849  1
  H+  H52  1  0.52356287  0.90899766  0.81826043  1
  H+  H53  1  0.21890863  0.87246754  0.50777584  1
  H+  H54  1  1.10140921  0.97152231  0.67649727  1
  H+  H55  1  0.63295211  0.09890352  0.64135744  1
  H+  H56  1  0.58430667  0.08125791  0.18970206  1
  H+  H57  1  0.38797972  0.78042385  0.48980945  1
  H+  H58  1  0.33188509  0.95805591  0.81962520  1
  H+  H59  1  0.92216317  0.37050331  0.17216863  1
  H+  H60  1  0.13965596  0.85574564  1.00314093  1
  H+  H61  1  0.09983657  0.42487432  0.40103143  1
  H+  H62  1  0.85795307  0.61544493  0.67952116  1
  H+  H63  1  0.85142797  0.21169396  0.83000174  1
  H+  H64  1  0.10751332  0.98520812  0.49967203  1
  H+  H65  1  0.38465906  0.61065020  0.18379533  1
  H+  H66  1  0.10016680  0.13462000  0.49900260  1
  H+  H67  1  0.12443518  0.22677485  0.16683566  1
  H+  H68  1  0.36189349  0.22244627  -0.00560915  1
  H+  H69  1  0.16483234  0.33247276  0.26752890  1
  H+  H70  1  0.38332091  0.20543311  0.82607290  1
  H+  H71  1  0.33639369  0.22064199  0.48175029  1
  H+  H72  1  0.87898148  0.10165178  0.83566843  1
  H+  H73  1  0.72146601  0.36844858  0.98451002  1
  H+  H74  1  0.78579457  0.40081218  0.82242058  1
  H+  H75  1  0.85586585  0.89596550  0.67262976  1
  H+  H76  1  0.24268824  0.16298054  0.21626373  1
  H+  H77  1  0.50884104  0.10860145  0.16303022  1
  H+  H78  1  0.23702963  0.36569084  0.17337297  1
  H+  H79  1  0.36924316  0.48272310  0.15739262  1
  H+  H80  1  0.61737678  0.88203829  0.16132921  1
  H+  H81  1  0.60825706  0.38731689  0.00452351  1
  H+  H82  1  0.12719380  0.47964852  0.14992640  1
  H+  H83  1  0.60126631  0.23235299  0.00367236  1
  H+  H84  1  0.85869060  0.13506077  0.67710343  1
  H+  H85  1  0.88899486  0.52943035  0.17761816  1
  H+  H86  1  1.04369783  0.38791608  0.15102446  1
  H+  H87  1  0.86393664  0.37753519  0.97323323  1
  H+  H88  1  0.87635370  0.72577266  0.35032663  1
  H+  H89  1  0.43978453  0.79630760  0.66234413  1
  H+  H90  1  0.74333148  0.61577120  0.35715275  1
  H+  H91  1  0.63671720  0.78477845  0.51068518  1
  H+  H92  1  0.48899286  0.10997677  0.31492377  1
  H+  H93  1  0.54042585  0.14415466  0.82631411  1
  H+  H94  1  0.08744133  0.45937301  0.82327334  1
  H+  H95  1  0.26091715  0.87849264  0.66865862  1
  H+  H96  1  0.13214429  0.36244718  0.32625426  1
  H+  H97  1  0.47274163  0.87420980  0.49488123  1
  H+  H98  1  0.61451308  0.22810895  0.34824982  1
  H+  H99  1  0.61574465  0.17529241  0.14991052  1
  H+  H100  1  -0.02727389  0.35421512  0.66191431  1
  H+  H101  1  0.09996194  0.72344140  0.14734295  1
  H+  H102  1  0.90145053  0.65133134  0.68887735  1
  H+  H103  1  1.04154173  0.61580615  0.65815469  1
  H+  H104  1  0.89827403  0.58997701  0.89513479  1
  H+  H105  1  0.36101580  0.38714080  1.00000459  1
  H+  H106  1  0.51978559  0.64950397  0.15721570  1
  H+  H107  1  0.36984488  0.89487080  0.15765448  1
  H+  H108  1  0.20803722  0.85669427  0.84619255  1
  H+  H109  1  0.66514033  0.09762615  0.94966340  1
  H+  H110  1  0.11263006  0.47788452  0.33959433  1
  H+  H111  1  0.48249155  0.11628818  0.99597595  1
  H+  H112  1  0.90330494  0.02595892  0.16553433  1
  H+  H113  1  0.35137732  0.38179533  0.78932949  1
  H+  H114  1  0.63442964  0.81493261  0.83610224  1
  H+  H115  1  0.87657481  0.86794470  0.16345221  1
  H+  H116  1  0.34840479  0.18421572  0.67899344  1
  H+  H117  1  0.77442738  0.64370368  0.15527981  1
  H+  H118  1  0.39142777  0.67289775  0.82496136  1
  H+  H119  1  0.86390035  0.38692031  0.34936205  1
  H+  H120  1  0.41730953  0.06508976  0.61382563  1
  H+  H121  1  0.80549245  0.38486251  0.14524998  1
  H+  H122  1  0.65465914  0.64222642  0.50803023  1
  H+  H123  1  0.11658263  0.91535154  0.83615965  1
  H+  H124  1  0.71944446  0.35894083  0.51178176  1
  H+  H125  1  0.78060536  0.65387742  0.50868448  1
  H+  H126  1  0.37186418  0.50754489  0.32498894  1
  H+  H127  1  0.60790153  0.65169905  0.14529018  1
  H+  H128  1  0.10522938  0.89378845  0.50000070  1
  H+  H129  1  0.41399941  0.83657837  0.40253125  1
  H+  H130  1  0.45012860  0.27630198  0.61549515  1
  H+  H131  1  0.28331345  0.64186642  0.50288795  1
  H+  H132  1  0.10784785  0.88040914  0.16187788  1
  H+  H133  1  0.59171561  0.65929523  0.74384746  1
  H+  H134  1  0.13661462  0.23102395  0.01318164  1
  H+  H135  1  0.16722358  0.32829059  0.56955943  1
  H+  H136  1  0.40296266  0.32140955  0.64601290  1
  H+  H137  1  0.63892980  0.87030684  0.32820167  1
  H+  H138  1  0.77304299  0.87969154  0.01117668  1
  H+  H139  1  0.23029288  0.10416257  0.98425689  1
  H+  H140  1  0.35959707  -0.02312158  0.49927381  1
  H+  H141  1  0.26474908  0.13889345  0.32855379  1
  H+  H142  1  1.03154587  0.62968561  0.49637599  1
  H+  H143  1  0.62977791  0.74160380  0.34564593  1
  H+  H144  1  0.33491077  0.41867195  0.06020146  1
  H+  H145  1  0.86626695  0.47872351  0.34311583  1
  H+  H146  1  0.43310896  0.41316434  0.69284321  1
  H+  H147  1  0.11749160  0.01513687  0.33861219  1
  H+  H148  1  0.26989460  0.89715043  0.33788134  1
  H+  H149  1  0.77692282  0.38189965  0.67282781  1
  H+  H150  1  0.09979471  0.88165826  0.67905628  1
  H+  H151  1  0.88485377  0.51819279  0.98815713  1
  H+  H152  1  0.88110223  0.76771759  0.16822900  1
  H+  H153  1  0.09241725  0.59442551  0.83433898  1
  H+  H154  1  0.85983010  0.90766858  0.49626006  1
  H+  H155  1  0.52931564  0.89558077  0.36014712  1
  H+  H156  1  0.31232650  0.33845496  0.78282935  1
  H+  H157  1  0.97398490  0.88396173  0.51017616  1
  H+  H158  1  0.61192664  0.21435099  0.67273170  1
  H+  H159  1  0.90939472  0.50439324  0.64830876  1
  H+  H160  1  0.36203974  0.63558637  -0.01440560  1
  H+  H161  1  0.63034803  0.53682838  0.16194398  1
  H+  H162  1  0.64206347  0.78185116  0.17334323  1
  H+  H163  1  0.52262647  0.87241173  0.15966217  1
  H+  H164  1  0.39448118  0.62016192  0.50663912  1
  H+  H165  1  0.42697770  0.08536315  0.22686961  1
  H+  H166  1  0.60246331  0.22466019  0.50002297  1
  H+  H167  1  0.37802383  0.53511398  0.66014142  1
  H+  H168  1  1.01000761  0.63761962  0.15840926  1
  H+  H169  1  0.12713741  0.78108245  0.32121066  1
  H+  H170  1  0.45335449  0.02132127  0.85724687  1
  H+  H171  1  0.48453389  0.61686653  0.83360818  1
  H+  H172  1  0.63824415  0.77250714  0.66534237  1
  H+  H173  1  0.81981422  0.15657319  0.76877707  1
  H+  H174  1  0.21211225  0.09575995  0.66859902  1
  H+  H175  1  0.88722130  0.03142890  0.66094295  1
  H+  H176  1  0.38839512  0.65048621  0.66410418  1
  H+  H177  1  0.63636624  0.56898203  0.92667468  1
  H+  H178  1  0.97523481  0.60416224  0.98707629  1
  H+  H179  1  0.77911980  0.88264756  0.16425891  1
  H+  H180  1  0.88525684  0.01836382  0.99018464  1
  H+  H181  1  0.81997214  0.15925416  0.13806413  1
  H+  H182  1  0.34742716  0.88830773  0.48107172  1
  H+  H183  1  0.39649690  0.86906431  0.99354206  1
  H+  H184  1  0.09982496  0.41877726  0.06131564  1
  H+  H185  1  0.48099424  0.60714928  0.65965851  1
  H+  H186  1  0.71939594  0.86786363  0.66339180  1
  H+  H187  1  0.63454753  0.05282177  0.26438162  1
  H+  H188  1  0.47114756  0.35850036  0.99322613  1
  H+  H189  1  0.38942235  0.10882839  -0.01326160  1
  H+  H190  1  0.89493776  0.60406163  0.49843071  1
  H+  H191  1  0.56731622  0.16567982  0.43973418  1
  H+  H192  1  0.12979322  0.10825526  0.66797874  1
  H+  H193  1  0.60558496  -0.01081450  0.20497024  1
  H+  H194  1  0.12707964  0.34963410  0.66130798  1
  H+  H195  1  0.90034899  0.14722035  0.14451338  1
  H+  H196  1  0.23301478  0.11820597  0.20819199  1
  H+  H197  1  0.00479145  0.36802252  0.82729751  1
  H+  H198  1  0.11800179  0.60753001  0.16831997  1
  H+  H199  1  0.53255418  0.65060172  0.49645182  1
  H+  H200  1  0.98303277  0.85927258  0.32936591  1
  H+  H201  1  0.99041309  0.64766732  0.82978057  1
  H+  H202  1  0.38194800  0.36214817  0.32762317  1
  H+  H203  1  0.08119117  -0.00720293  0.18915430  1
  H+  H204  1  0.86099251  0.62736600  0.84066260  1
  H+  H205  1  0.12592295  0.64626698  0.32266536  1
  H+  H206  1  0.26333688  0.37513625  0.34259911  1
  H+  H207  1  0.25786586  0.41228033  0.67262071  1
  H+  H208  1  0.86175415  0.49679996  0.81795641  1
  H+  H209  1  0.15191585  0.61315949  0.52373449  1
  H+  H210  1  0.61961174  0.14191787  0.35182151  1
  H+  H211  1  0.13862490  0.14281180  1.01220684  1
  H+  H212  1  0.71393653  0.12156339  0.15029896  1
  H+  H213  1  0.36333061  0.48355469  0.49376479  1
  H+  H214  1  0.38688344  0.11549599  0.82399599  1
  H+  H215  1  0.60367386  0.46173494  0.82997747  1
  H+  H216  1  0.86016650  0.98037787  0.82363517  1
  H+  H217  1  0.13851511  0.27249738  0.50832653  1
  H+  H218  1  0.39397345  0.77959359  0.98002598  1
  H+  H219  1  0.63361940  0.77386132  -0.01157148  1
  H+  H220  1  0.15891825  0.60619452  0.65992324  1
  H+  H221  1  0.61988968  0.59205017  0.65789763  1
  H+  H222  1  0.86176998  0.63933340  0.16608495  1
  H+  H223  1  0.11325183  0.71803013  0.00264896  1
  H+  H224  1  0.37450971  0.36607966  0.49711580  1
  H+  H225  1  0.65554391  0.31382701  0.15423839  1
  H+  H226  1  0.73466346  0.88326287  0.83927812  1
  H+  H227  1  0.21182991  0.11532016  0.50557588  1
  H+  H228  1  0.89625180  0.16700665  0.40453702  1
  H+  H229  1  0.08589430  0.08527189  0.18850547  1
  H+  H230  1  0.12921189  0.38002241  -0.00340033  1
  H+  H231  1  0.63558676  0.65659961  0.35544926  1
  H+  H232  1  0.11306125  0.22916409  0.33963986  1
  H+  H233  1  0.87894996  0.43964264  0.09861820  1
  H+  H234  1  0.02557725  0.88362050  0.00800283  1
  H+  H235  1  0.48410716  0.34151258  0.83715821  1
  H+  H236  1  0.99393453  0.11608412  0.16621770  1
  H+  H237  1  0.23834327  0.86842051  0.16334459  1
  H+  H238  1  0.64230812  0.36030318  0.83739310  1
  H+  H239  1  0.21912891  0.60494809  0.97274546  1
  H+  H240  1  0.96610394  0.86492641  0.66860172  1
  H+  H241  1  0.15706916  0.08421081  0.56934960  1
  H+  H242  1  0.57410375  0.40767161  0.45048137  1
  H+  H243  1  0.63789009  0.35216559  0.66446255  1
  H+  H244  1  0.37620158  0.59814921  0.32515185  1
  H+  H245  1  0.34157266  0.92042250  0.09473244  1
  H+  H246  1  0.11838735  0.46474574  0.67656404  1
  H+  H247  1  0.36823589  -0.02427481  1.00368746  1
  H+  H248  1  0.60760402  0.38783026  0.35865115  1
  H+  H249  1  0.72798569  0.13257004  1.00489217  1
  H+  H250  1  0.82419775  0.74395899  0.69222854  1
  H+  H251  1  0.18742333  0.79339312  0.20917078  1
  H+  H252  1  0.13937070  0.48480007  0.49184123  1
  H+  H253  1  0.61426960  0.41529067  0.18089861  1
  H+  H254  1  0.50989203  0.36986304  0.50426515  1
  H+  H255  1  0.14359812  0.26954790  0.84264426  1
  H+  H256  1  0.88556763  0.35773839  0.66491367  1
  H+  H257  1  0.73472927  0.11607882  0.35388607  1
  H+  H258  1  0.89633423  0.77744712  0.99214612  1
  H+  H259  1  0.49181621  0.09881149  0.52023213  1
  H+  H260  1  0.24828596  0.42720161  0.82848512  1
  H+  H261  1  0.40249795  0.28721468  0.17174679  1
  H+  H262  1  0.11616391  0.34376769  0.84398506  1
  H+  H263  1  0.51990606  0.39832436  0.16843407  1
  H+  H264  1  0.70280342  0.58821736  0.83439806  1
  H+  H265  1  0.47303958  0.61752849  0.99134100  1
  H+  H266  1  0.26620800  0.63571727  0.34980175  1
  H+  H267  1  0.88791976  0.28289104  0.36545015  1
  H+  H268  1  0.25338869  0.63306746  0.18058117  1
  H+  H269  1  0.37951124  0.77321309  0.18835952  1
  H+  H270  1  0.35827693  0.09780662  0.68026823  1
  H+  H271  1  0.87476225  0.22774848  -0.01868064  1
  H+  H272  1  0.39023968  0.15356820  0.14999709  1
  H+  H273  1  0.52307833  0.12488891  0.67882680  1
  H+  H274  1  0.85464696  0.38206663  0.50106778  1
  H+  H275  1  0.24717242  0.60590877  0.66352675  1
  H+  H276  1  0.85340343  0.21997082  0.67604849  1
  H+  H277  1  0.87594537  0.27786619  0.50735710  1
  H+  H278  1  0.72229297  0.10384898  0.85553317  1
  H+  H279  1  0.37423892  -0.00116913  0.67011261  1
  H+  H280  1  0.88924571  0.61168732  0.33325760  1
  H+  H281  1  0.13892087  0.26706564  0.66445897  1
  H+  H282  1  0.16042559  0.33033696  0.92982578  1
  H+  H283  1  0.71043599  0.60751459  0.66534589  1
  H+  H284  1  0.65225089  0.27701699  0.83743557  1
  H+  H285  1  0.38412470  0.52564257  0.99022918  1
  H+  H286  1  0.22759104  0.36787013  -0.01152995  1
  H+  H287  1  0.52910396  0.39089223  0.68291088  1
  H+  H288  1  0.06940558  0.69107811  0.37956808  1
  H+  H289  1  0.05127524  0.69980854  0.77456463  1
  H+  H290  1  0.32303574  0.65850091  0.13027537  1
  H+  H291  1  0.92919482  0.08551959  0.25570804  1
  H+  H292  1  0.83901264  0.42353116  0.73127842  1
  H+  H293  1  0.42276780  0.85496903  0.89416331  1
  H+  H294  1  0.13536101  0.39407605  0.49008154  1
  H+  H295  1  0.16583791  0.83054117  0.94119409  1
  H+  H296  1  0.91268816  0.58703455  0.23850384  1
  H+  H297  1  0.33352995  0.66248966  0.43951276  1
  H+  H298  1  0.65679709  0.60850245  0.21224487  1
  H+  H299  1  0.91002932  0.84307339  0.60763166  1
  H+  H300  1  0.33309018  0.52149406  0.82536910  1
  H+  H301  1  0.15338733  0.83215175  0.60225984  1
  H+  H302  1  0.47061314  0.01392267  0.55618650  1
  H+  H303  1  0.38005101  0.30953759  0.55096141  1
  H+  H304  1  0.62305363  0.89582604  0.51132074  1
  H+  H305  1  0.07486062  0.65433592  0.05885273  1
  H+  H306  1  0.08281502  0.92543329  0.40945879  1
  H+  H307  1  0.62741995  0.35495120  0.51564165  1
  H+  H308  1  0.11040494  0.65849816  0.45124500  1
  H+  H309  1  0.07598744  0.40198997  0.73375010  1
  H+  H310  1  0.85110105  0.67728274  0.06478506  1
  H+  H311  1  0.66597877  0.83894343  0.57330974  1
  H+  H312  1  0.11294036  0.77864343  0.85166129  1
  H+  H313  1  0.34080913  0.16641618  0.05353143  1
  H+  H314  1  0.38788929  0.32471226  0.83301310  1
  H+  H315  1  0.57733955  0.67477662  0.05615051  1
  H+  H316  1  0.32199314  0.67014069  0.03455759  1
  H+  H317  1  0.07731519  0.16741566  0.43795241  1
  H+  H318  1  0.38125746  0.86761558  0.34841798  1
  H+  H319  1  0.13264963  0.56690507  0.88721990  1
  H+  H320  1  0.35336928  0.22463122  0.33542407  1
  H+  H321  1  0.10982263  0.05486706  0.26894941  1
  H+  H322  1  0.69882929  0.28913171  0.20575398  1
  H+  H323  1  0.36337489  0.70100545  0.76487619  1
  H+  H324  1  0.42561792  0.84835436  0.23625975  1
  H+  H325  1  0.32488334  0.41057981  0.40142852  1
  H+  H326  1  0.59292850  0.92151364  0.41620099  1
  H+  H327  1  0.66300590  0.33739304  0.92649208  1
  H+  H328  1  0.30600891  0.15853562  0.14981077  1
  H+  H329  1  0.82512119  0.92666174  0.39959753  1
  H+  H330  1  0.16314183  0.85872749  0.27043477  1
  H+  H331  1  0.90429418  0.32944259  0.57002494  1
  H+  H332  1  0.86846112  0.18861945  0.04808374  1
  H+  H333  1  0.42027215  0.34059806  0.23541137  1
  H+  H334  1  0.42575053  0.58790776  0.56344340  1
  H+  H335  1  0.82647350  0.41130966  0.43914644  1
  H+  H336  1  0.34223165  0.13861102  0.75496507  1
  H+  H337  1  0.27870572  0.88456393  0.00591631  1
  H+  H338  1  0.67205192  0.59255072  0.56163871  1
  H+  H339  1  0.64575884  0.02839747  0.55124931  1
  H+  H340  1  0.92081743  0.83937417  0.93339286  1
  H+  H341  1  0.29407945  0.46820775  0.73545224  1
  H+  H342  1  0.72982903  0.87480123  0.32634961  1
  H+  H343  1  0.57808405  0.85538670  0.66791897  1
  H+  H344  1  0.08124263  0.91098010  0.10082503  1
  H+  H345  1  0.91234567  0.07128541  0.89254103  1
  H+  H346  1  0.94179349  0.56161265  0.58672015  1
  H+  H347  1  0.41657560  0.57541231  0.23672701  1
  H+  H348  1  0.13566252  0.07918560  0.81857175  1
  H+  H349  1  0.30326319  0.15522827  0.42738240  1
  H+  H350  1  0.27283099  0.39256346  0.49760361  1
  H+  H351  1  0.83419212  0.90596832  0.09947912  1
  H+  H352  1  0.42955223  0.06981756  0.90795682  1
  H+  H353  1  0.59811480  0.68882346  0.43968490  1
  H+  H354  1  0.21356771  0.67192319  0.28814386  1
  H+  H355  1  0.80819389  0.34186348  0.03070749  1
  H+  H356  1  0.16171997  0.07566626  0.93071378  1
  H+  H357  1  0.66805080  0.35311920  0.29015902  1
  H+  H358  1  0.88772726  0.51100589  0.49695199  1
  H+  H359  1  0.67136458  0.84623148  0.93444306  1
  H+  H360  1  0.31530530  0.89597527  0.72848621  1
  H+  H361  1  0.82573576  0.92520323  0.73139471  1
  H+  H362  1  0.57953000  0.41394118  0.06624011  1
  H+  H363  1  0.02292946  0.14088048  0.33804884  1
  H+  H364  1  0.67396740  0.84172900  0.23429047  1
  H+  H365  1  0.09529075  0.64408858  0.72058414  1
  H+  H366  1  0.58331754  0.40304623  0.77010798  1
  H+  H367  1  0.59541188  0.16590502  0.76520589  1
  H+  H368  1  0.68881198  0.57399054  0.29904726  1
  H+  H369  1  0.92342743  0.82589153  0.27023527  1
  H+  H370  1  0.78949723  0.68719027  0.75436375  1
  H+  H371  1  0.54627134  0.88646502  0.72422084  1
  H+  H372  1  0.66498028  0.32328740  0.60365660  1
  H+  H373  1  0.47224969  0.36483775  0.33109909  1
  H+  H374  1  0.10021313  0.16872740  0.74069757  1
  H+  H375  1  0.39633751  0.02342903  0.31362115  1
  H+  H376  1  0.18870750  0.57800284  0.57573455  1
  H+  H377  1  0.58245608  0.90369333  0.07123570  1
  H+  H378  1  0.85709727  0.67792110  0.41523126  1
  H+  H379  1  0.61065944  0.14979652  0.01346256  1
  H+  H380  1  0.42668644  0.59942493  0.89499727  1
  H+  H381  1  0.91914910  0.09646826  0.60490249  1
  H+  H382  1  0.97688890  0.87529726  0.83770158  1
  H+  H383  1  0.41760600  0.32580862  0.93133821  1
  O2-  O384  1  0.09280904  0.16676333  0.15075540  1
  O2-  O385  1  0.07306923  0.16792421  0.48281982  1
  O2-  O386  1  0.12149049  0.17825064  0.80932944  1
  O2-  O387  1  0.10487393  0.42111479  0.13318416  1
  O2-  O388  1  0.11521558  0.42990666  0.46927573  1
  O2-  O389  1  0.06416965  0.39745333  0.81174979  1
  O2-  O390  1  0.06794085  0.66137375  0.13843752  1
  O2-  O391  1  0.09606466  0.66697595  0.49237595  1
  O2-  O392  1  0.05393820  0.67982471  0.81520291  1
  O2-  O393  1  0.07402304  0.90583311  0.14680708  1
  O2-  O394  1  0.07593976  0.92425109  0.48336564  1
  O2-  O395  1  0.08626720  0.94352909  0.81851117  1
  O2-  O396  1  0.36446611  0.18794023  0.13344191  1
  O2-  O397  1  0.30062739  0.15855067  0.47257717  1
  O2-  O398  1  0.35641064  0.14500673  0.80865798  1
  O2-  O399  1  0.33931378  0.42284911  0.14061230  1
  O2-  O400  1  0.33140747  0.42283137  0.47838756  1
  O2-  O401  1  0.27913785  0.47989351  0.80421638  1
  O2-  O402  1  0.31787828  0.66496973  0.17366526  1
  O2-  O403  1  0.34245688  0.67345864  0.48410700  1
  O2-  O404  1  0.36490813  0.70652490  0.80945779  1
  O2-  O405  1  0.33901592  0.92313865  0.14066436  1
  O2-  O406  1  0.31912637  0.92366210  0.47639553  1
  O2-  O407  1  0.30343555  0.89695513  0.80916513  1
  O2-  O408  1  0.57028687  0.11463997  0.15448089  1
  O2-  O409  1  0.56439532  0.16528248  0.48463524  1
  O2-  O410  1  0.59943550  0.17510038  0.81056275  1
  O2-  O411  1  0.58260008  0.43140896  0.15306583  1
  O2-  O412  1  0.57205512  0.39871418  0.49502874  1
  O2-  O413  1  0.57777300  0.39856275  0.81515496  1
  O2-  O414  1  0.57764434  0.68419084  0.13746397  1
  O2-  O415  1  0.59466019  0.68725589  0.48599832  1
  O2-  O416  1  0.57328664  0.63738854  0.80942406  1
  O2-  O417  1  0.58257969  0.90725306  0.14458297  1
  O2-  O418  1  0.58993971  0.92619371  0.49594547  1
  O2-  O419  1  0.57618255  0.92938460  0.79354725  1
  O2-  O420  1  0.88079138  0.18629810  0.12690970  1
  O2-  O421  1  0.82434273  0.17384565  0.46757173  1
  O2-  O422  1  0.82209281  0.15265126  0.81419309  1
  O2-  O423  1  0.86610656  0.43070510  0.14227802  1
  O2-  O424  1  0.82521153  0.41435231  0.48428835  1
  O2-  O425  1  0.84209128  0.43767557  0.80291391  1
  O2-  O426  1  0.83748030  0.67437406  0.14820649  1
  O2-  O427  1  0.84740881  0.68155786  0.50071022  1
  O2-  O428  1  0.81171862  0.66963632  0.82443035  1
  O2-  O429  1  0.83932392  0.90732169  0.14655246  1
  O2-  O430  1  0.82802181  0.93565272  0.48009687  1
  O2-  O431  1  0.82434195  0.91744701  0.80731048  1
  O2-  O432  1  0.07011248  0.03248237  0.21379867  1
  O2-  O433  1  0.15137048  0.08375678  0.52428361  1
  O2-  O434  1  0.17424573  0.14102954  0.82625299  1
  O2-  O435  1  0.17648506  0.33469916  0.18860372  1
  O2-  O436  1  0.17285200  0.33235106  0.52399755  1
  O2-  O437  1  0.15591353  0.32603537  0.86190473  1
  O2-  O438  1  0.14827224  0.57910494  0.18684484  1
  O2-  O439  1  0.18632228  0.58493516  0.53022422  1
  O2-  O440  1  0.12174666  0.56198359  0.84302708  1
  O2-  O441  1  0.17898051  0.83114473  0.18159823  1
  O2-  O442  1  0.15843854  0.84059382  0.52373460  1
  O2-  O443  1  0.15222503  0.83773956  0.86753683  1
  O2-  O444  1  0.42509668  0.08989560  0.17853523  1
  O2-  O445  1  0.44393720  0.04786327  0.54529290  1
  O2-  O446  1  0.43283657  0.06214551  0.86160531  1
  O2-  O447  1  0.42579239  0.34584205  0.18932645  1
  O2-  O448  1  0.39712065  0.32645034  0.50874114  1
  O2-  O449  1  0.42203190  0.30245508  0.85235358  1
  O2-  O450  1  0.42058839  0.58430397  0.19011442  1
  O2-  O451  1  0.42392482  0.58729664  0.51794073  1
  O2-  O452  1  0.42657913  0.60652806  0.85053438  1
  O2-  O453  1  0.41812358  0.83674361  0.19264087  1
  O2-  O454  1  0.41297302  0.84306508  0.47966000  1
  O2-  O455  1  0.41700899  0.85797653  0.84969221  1
  O2-  O456  1  0.59325374  0.02751208  0.22988132  1
  O2-  O457  1  0.64717598  0.01840944  0.50598477  1
  O2-  O458  1  0.66601628  0.08568674  0.87492758  1
  O2-  O459  1  0.69373584  0.29085409  0.16160558  1
  O2-  O460  1  0.66063285  0.32599624  0.52950058  1
  O2-  O461  1  0.67781302  0.33655707  0.85426618  1
  O2-  O462  1  0.66400846  0.60086423  0.16921895  1
  O2-  O463  1  0.68831289  0.61372080  0.51954651  1
  O2-  O464  1  0.64162586  0.55349014  0.84846712  1
  O2-  O465  1  0.67894772  0.84226624  0.18810727  1
  O2-  O466  1  0.66712259  0.84549819  0.52755855  1
  O2-  O467  1  0.67638424  0.86356568  0.85981858  1
  O2-  O468  1  0.93135975  0.08588011  0.18006399  1
  O2-  O469  1  0.90569250  0.09921173  0.51898116  1
  O2-  O470  1  0.90836179  0.06934878  0.84715593  1
  O2-  O471  1  0.95501883  0.34182171  0.18180947  1
  O2-  O472  1  0.90140702  0.33570878  0.52514175  1
  O2-  O473  1  0.90217007  0.31853569  0.87341155  1
  O2-  O474  1  0.91229712  0.58926632  0.19218769  1
  O2-  O475  1  0.92734270  0.57470664  0.50741025  1
  O2-  O476  1  0.89781047  0.59763516  0.85060677  1
  O2-  O477  1  0.91258396  0.83198494  0.18065744  1
  O2-  O478  1  0.91329350  0.85660990  0.52542553  1
  O2-  O479  1  0.91554466  0.84108746  0.85066275  1
  O2-  O480  1  0.13778223  0.07251372  0.31463990  1
  O2-  O481  1  0.15538133  0.07373587  0.64978766  1
  O2-  O482  1  0.16726010  0.07129075  0.97457283  1
  O2-  O483  1  0.15948670  0.32820471  0.31279730  1
  O2-  O484  1  0.16250274  0.32508213  0.64525506  1
  O2-  O485  1  0.16512728  0.33676679  0.97711625  1
  O2-  O486  1  0.16619898  0.62085664  0.30671147  1
  O2-  O487  1  0.18621875  0.57128822  0.64953294  1
  O2-  O488  1  0.15576909  0.56844053  0.96894509  1
  O2-  O489  1  0.16300726  0.84836628  0.31412434  1
  O2-  O490  1  0.15198419  0.82842904  0.64765219  1
  O2-  O491  1  0.17071143  0.82700836  0.98685749  1
  O2-  O492  1  0.43573896  0.07609300  0.29043719  1
  O2-  O493  1  0.40749543  0.06424242  0.65907866  1
  O2-  O494  1  0.42173253  0.07832587  0.97749781  1
  O2-  O495  1  0.41550161  0.33624302  0.30997669  1
  O2-  O496  1  0.39422671  0.26730870  0.62832090  1
  O2-  O497  1  0.41143567  0.32880485  0.97605968  1
  O2-  O498  1  0.40053104  0.56555522  0.30597730  1
  O2-  O499  1  0.42639965  0.59213258  0.64030674  1
  O2-  O500  1  0.41188001  0.58669451  0.97644592  1
  O2-  O501  1  0.41259675  0.83550593  0.35672465  1
  O2-  O502  1  0.37971718  0.75327819  0.64465055  1
  O2-  O503  1  0.43061434  0.84335319  0.97665680  1
  O2-  O504  1  0.67653904  0.08770698  0.33663060  1
  O2-  O505  1  0.66524890  0.07552318  0.62044728  1
  O2-  O506  1  0.66642111  0.10575115  0.99506220  1
  O2-  O507  1  0.67075017  0.34248451  0.33318980  1
  O2-  O508  1  0.66580798  0.32025462  0.64963996  1
  O2-  O509  1  0.66074764  0.34130351  0.97253514  1
  O2-  O510  1  0.68206670  0.58419150  0.34157267  1
  O2-  O511  1  0.65540824  0.56659937  0.64419122  1
  O2-  O512  1  0.63428169  0.57686903  0.97139702  1
  O2-  O513  1  0.66929878  0.84336303  0.30854377  1
  O2-  O514  1  0.65984704  0.83072664  0.64721321  1
  O2-  O515  1  0.66634213  0.83790863  0.98008300  1
  O2-  O516  1  0.92559834  0.08767800  0.30143831  1
  O2-  O517  1  0.92272573  0.09355512  0.64968403  1
  O2-  O518  1  0.91657871  0.07448873  0.97009822  1
  O2-  O519  1  0.91040654  0.33352923  0.33881445  1
  O2-  O520  1  0.91172076  0.32404057  0.64825355  1
  O2-  O521  1  0.90639527  0.32483130  0.93239106  1
  O2-  O522  1  0.91640645  0.58241831  0.31185658  1
  O2-  O523  1  0.95574836  0.55852373  0.62970972  1
  O2-  O524  1  0.91355372  0.57830748  0.97537232  1
  O2-  O525  1  0.92710480  0.81409735  0.31317297  1
  O2-  O526  1  0.90601705  0.83897383  0.65266808  1
  O2-  O527  1  0.92339522  0.83978840  0.97872877  1
  O2-  O528  1  0.13613708  0.18583921  0.03874595  1
  O2-  O529  1  0.08205698  0.16803470  0.35559231  1
  O2-  O530  1  0.09164148  0.16546564  0.69401372  1
  O2-  O531  1  0.09648681  0.41486592  0.01482995  1
  O2-  O532  1  0.08731037  0.41922308  0.35480228  1
  O2-  O533  1  0.07986494  0.40367700  0.68829804  1
  O2-  O534  1  0.08073196  0.65551993  0.01383446  1
  O2-  O535  1  0.07842816  0.68789919  0.33628301  1
  O2-  O536  1  0.10115918  0.65718881  0.67725229  1
  O2-  O537  1  0.08480972  0.91091721  0.02631606  1
  O2-  O538  1  0.08485835  0.92779655  0.36335149  1
  O2-  O539  1  0.07088726  0.91261869  0.69511388  1
  O2-  O540  1  0.33430694  0.16117212  0.00862732  1
  O2-  O541  1  0.31981112  0.16437344  0.34973944  1
  O2-  O542  1  0.32477605  0.12823853  0.70074482  1
  O2-  O543  1  0.33177094  0.41854693  0.01481194  1
  O2-  O544  1  0.32445052  0.40474448  0.35610015  1
  O2-  O545  1  0.30635835  0.46444656  0.69078338  1
  O2-  O546  1  0.33012107  0.66940040  -0.00902609  1
  O2-  O547  1  0.32713216  0.65946849  0.36075571  1
  O2-  O548  1  0.35369773  0.67645830  0.68145765  1
  O2-  O549  1  0.34016705  0.91525107  0.01985431  1
  O2-  O550  1  0.33052008  0.92703043  0.35247579  1
  O2-  O551  1  0.32098050  0.90522878  0.68392873  1
  O2-  O552  1  0.57259338  0.17510344  0.02320176  1
  O2-  O553  1  0.58107662  0.16616531  0.35817867  1
  O2-  O554  1  0.58485043  0.15447243  0.68925842  1
  O2-  O555  1  0.57315784  0.41166332  0.02176674  1
  O2-  O556  1  0.57256675  0.41465377  0.36887250  1
  O2-  O557  1  0.58958238  0.41324184  0.69177868  1
  O2-  O558  1  0.57645295  0.67373270  0.01097221  1
  O2-  O559  1  0.60483677  0.68636462  0.36799302  1
  O2-  O560  1  0.61412160  0.67504302  0.69865420  1
  O2-  O561  1  0.58166122  0.90184870  0.02473513  1
  O2-  O562  1  0.59119979  0.92341851  0.37075754  1
  O2-  O563  1  0.53046918  0.86368425  0.68184093  1
  O2-  O564  1  0.84678608  0.17462279  0.00578611  1
  O2-  O565  1  0.84606778  0.17475609  0.40278843  1
  O2-  O566  1  0.82178382  0.15894484  0.69030664  1
  O2-  O567  1  0.83698832  0.39440140  0.00654822  1
  O2-  O568  1  0.83212553  0.41922730  0.35967146  1
  O2-  O569  1  0.83807011  0.41364402  0.68557305  1
  O2-  O570  1  0.85511353  0.68244634  0.02024851  1
  O2-  O571  1  0.84626970  0.66772730  0.37133024  1
  O2-  O572  1  0.77385750  0.69468250  0.71141231  1
  O2-  O573  1  0.83143949  0.90618329  0.02937521  1
  O2-  O574  1  0.82365507  0.91976858  0.35463038  1
  O2-  O575  1  0.82537366  0.92692483  0.68561846  1
