# generated using pymatgen
data_H2O
_symmetry_space_group_name_H-M   'P 1'
_cell_length_a   17.97674842
_cell_length_b   17.97892065
_cell_length_c   21.99235926
_cell_angle_alpha   90.01460134
_cell_angle_beta   89.98786448
_cell_angle_gamma   119.97921504
_symmetry_Int_Tables_number   1
_chemical_formula_structural   H2O
_chemical_formula_sum   'H384 O192'
_cell_volume   6156.98527491
_cell_formula_units_Z   192
loop_
 _symmetry_equiv_pos_site_id
 _symmetry_equiv_pos_as_xyz
  1  'x, y, z'
loop_
 _atom_type_symbol
 _atom_type_oxidation_number
  H+  1.0
  O2-  -2.0
loop_
 _atom_site_type_symbol
 _atom_site_label
 _atom_site_symmetry_multiplicity
 _atom_site_fract_x
 _atom_site_fract_y
 _atom_site_fract_z
 _atom_site_occupancy
  H+  H0  1  0.88972426  0.99013713  0.51313694  1
  H+  H1  1  0.67075975  0.83974826  -0.06721660  1
  H+  H2  1  0.86239862  0.48120154  0.34326976  1
  H+  H3  1  0.10979861  0.62061298  0.68001474  1
  H+  H4  1  0.13937264  0.76280795  0.51681210  1
  H+  H5  1  0.77690720  0.10766234  0.01081798  1
  H+  H6  1  0.74613857  0.18198690  0.19051999  1
  H+  H7  1  0.37912254  0.48063448  0.33716130  1
  H+  H8  1  0.81130090  0.83581525  0.46520499  1
  H+  H9  1  0.72426505  0.35928365  0.50031485  1
  H+  H10  1  0.72976184  0.09816244  0.65292951  1
  H+  H11  1  0.63398313  0.00240174  0.14831699  1
  H+  H12  1  0.12091552  0.89488437  0.14784492  1
  H+  H13  1  0.38052422  0.12022340  0.83154260  1
  H+  H14  1  0.37409766  0.13627021  0.67591020  1
  H+  H15  1  0.10761632  0.25021572  0.83217832  1
  H+  H16  1  0.48027700  0.11913402  0.48575921  1
  H+  H17  1  0.12618578  -0.02631480  0.49077799  1
  H+  H18  1  0.90159341  0.29982354  1.06002695  1
  H+  H19  1  0.61972971  0.52859267  0.64802627  1
  H+  H20  1  0.04546635  0.40626235  0.16402256  1
  H+  H21  1  0.52501767  0.87898362  0.67176534  1
  H+  H22  1  0.11480782  0.41142629  0.49462078  1
  H+  H23  1  0.45938612  0.35782173  -0.01110584  1
  H+  H24  1  0.99641409  0.87473361  0.98838555  1
  H+  H25  1  0.12121471  0.89424350  0.33414380  1
  H+  H26  1  0.37371374  0.01633050  0.16579265  1
  H+  H27  1  0.59398934  0.25600241  0.98667615  1
  H+  H28  1  0.72596469  0.11539739  0.49611478  1
  H+  H29  1  0.36940908  0.35330278  0.65172374  1
  H+  H30  1  0.87560491  0.14261867  0.33231218  1
  H+  H31  1  0.45054050  0.83282909  0.16583128  1
  H+  H32  1  0.39952124  0.52667655  0.49263168  1
  H+  H33  1  0.78595892  0.04979651  0.05878700  1
  H+  H34  1  0.34364143  0.13819856  -0.00230548  1
  H+  H35  1  0.90493866  0.78495020  0.51356701  1
  H+  H36  1  0.63304512  0.28526635  0.32045158  1
  H+  H37  1  0.88643235  0.27856505  0.31979078  1
  H+  H38  1  0.47956734  0.86374662  0.50877819  1
  H+  H39  1  0.64911420  0.62315727  0.49872245  1
  H+  H40  1  0.12666371  0.48122301  0.00655170  1
  H+  H41  1  0.86674209  0.20969561  0.66244473  1
  H+  H42  1  1.03102963  0.14675644  0.34410880  1
  H+  H43  1  0.87935000  0.24878916  0.16578683  1
  H+  H44  1  0.76522080  0.39050809  0.83678995  1
  H+  H45  1  0.49157371  0.64871287  0.99918604  1
  H+  H46  1  0.63827419  0.52254669  0.18613066  1
  H+  H47  1  0.78261770  0.13816031  0.32905880  1
  H+  H48  1  0.46669436  0.11425850  0.83725834  1
  H+  H49  1  0.38148230  0.26967362  0.65558859  1
  H+  H50  1  0.12411329  0.88589357  0.68436723  1
  H+  H51  1  0.02743241  0.13253912  -0.00456389  1
  H+  H52  1  0.63477882  0.36769631  0.65170419  1
  H+  H53  1  0.11350863  0.14514695  0.16748319  1
  H+  H54  1  0.89565566  0.81226207  0.12516502  1
  H+  H55  1  0.60908691  0.11346606  0.67655054  1
  H+  H56  1  0.91833688  0.43466456  0.04049816  1
  H+  H57  1  0.87243390  0.89202834  1.00404520  1
  H+  H58  1  0.60533746  0.89056696  0.00052825  1
  H+  H59  1  0.90021522  0.02084868  0.98731091  1
  H+  H60  1  0.88628965  0.35963077  0.82241205  1
  H+  H61  1  0.07443620  0.41121903  0.41246223  1
  H+  H62  1  0.40762789  0.63322460  0.83286443  1
  H+  H63  1  0.48436854  0.87996866  0.32797526  1
  H+  H64  1  0.91359633  0.52624912  1.03036604  1
  H+  H65  1  0.73579914  0.86723966  0.49903048  1
  H+  H66  1  0.04217492  0.32136377  0.38377555  1
  H+  H67  1  0.61023133  0.72878344  0.65802430  1
  H+  H68  1  0.88082470  0.36057970  0.50138676  1
  H+  H69  1  0.73555759  0.87117826  0.83536631  1
  H+  H70  1  0.11856052  0.62208129  0.35951539  1
  H+  H71  1  -0.00963133  0.13280687  0.18536831  1
  H+  H72  1  0.72999207  0.85958202  0.65847545  1
  H+  H73  1  0.61154244  0.49026737  0.34222623  1
  H+  H74  1  0.90473250  0.31847993  0.98958813  1
  H+  H75  1  0.87574472  0.63720817  0.19044397  1
  H+  H76  1  0.58605747  0.42153211  0.56962904  1
  H+  H77  1  0.13484616  1.02360073  0.32622368  1
  H+  H78  1  0.61963834  0.72552380  0.17381022  1
  H+  H79  1  0.10041907  0.36917520  0.82020771  1
  H+  H80  1  0.62032200  0.39038237  0.15946726  1
  H+  H81  1  0.87329191  0.12635604  0.67124710  1
  H+  H82  1  0.58133914  0.90972938  0.76787972  1
  H+  H83  1  0.89964611  0.10703729  0.99547554  1
  H+  H84  1  0.35413315  0.22898991  0.15591753  1
  H+  H85  1  0.39246061  0.36799013  0.17215612  1
  H+  H86  1  0.15456765  0.36797012  0.33583541  1
  H+  H87  1  0.32693310  0.91462331  0.39711803  1
  H+  H88  1  0.10690597  0.92095248  -0.06630447  1
  H+  H89  1  0.88438392  0.50299269  0.18289068  1
  H+  H90  1  0.37196488  0.36081560  0.99009725  1
  H+  H91  1  0.42679586  0.55565305  0.84239300  1
  H+  H92  1  0.09023354  0.91496853  0.39765176  1
  H+  H93  1  0.36542068  0.14457479  0.47171329  1
  H+  H94  1  0.50839612  0.14250121  0.33079888  1
  H+  H95  1  0.08393333  0.16704565  0.43962489  1
  H+  H96  1  0.79057452  0.67800349  0.04679875  1
  H+  H97  1  0.87005603  0.72334977  0.18791059  1
  H+  H98  1  0.53569590  0.64173465  0.47819595  1
  H+  H99  1  0.39602188  0.37715095  0.32195165  1
  H+  H100  1  0.67132173  0.10503088  0.37511840  1
  H+  H101  1  0.86082982  -0.02737761  0.82639334  1
  H+  H102  1  0.11774987  0.14250490  0.34291165  1
  H+  H103  1  0.61952218  0.88793732  0.33932040  1
  H+  H104  1  0.09835147  0.12736282  0.81129426  1
  H+  H105  1  0.30978109  0.44617512  0.81230839  1
  H+  H106  1  0.87309878  0.52941275  0.66233944  1
  H+  H107  1  0.70384513  0.48510180  0.76417379  1
  H+  H108  1  0.15642520  0.79475734  0.29806949  1
  H+  H109  1  0.68535241  0.33943336  0.98276853  1
  H+  H110  1  0.37721066  1.02257116  0.32799838  1
  H+  H111  1  0.22581996  0.12173186  0.17340772  1
  H+  H112  1  0.90214774  0.34461216  0.65062292  1
  H+  H113  1  0.13891268  0.11002299  0.50591911  1
  H+  H114  1  0.93325293  0.46168349  0.69658653  1
  H+  H115  1  0.61567355  0.38807385  0.51470652  1
  H+  H116  1  0.23251993  0.60553599  0.34059745  1
  H+  H117  1  0.88538208  0.27377902  0.49289907  1
  H+  H118  1  0.15463922  0.02459299  0.66117925  1
  H+  H119  1  0.79943174  0.37133267  -0.02799223  1
  H+  H120  1  0.11677746  0.22929733  -0.00432791  1
  H+  H121  1  0.57367575  0.82920477  0.15417034  1
  H+  H122  1  0.18129006  0.34376109  0.23861943  1
  H+  H123  1  1.00551788  0.12068494  0.81722734  1
  H+  H124  1  0.72191578  0.10751936  0.83778009  1
  H+  H125  1  0.36333765  0.38730915  0.49079857  1
  H+  H126  1  0.61805360  0.40459914  0.33230245  1
  H+  H127  1  0.73849616  0.87120797  0.33007961  1
  H+  H128  1  -0.00667628  0.87455875  0.66887475  1
  H+  H129  1  0.86779441  0.14183995  0.47573141  1
  H+  H130  1  0.36577356  0.61856408  0.35229725  1
  H+  H131  1  0.71449977  0.35398053  0.66179851  1
  H+  H132  1  0.72870705  0.60819765  0.19518389  1
  H+  H133  1  0.97262343  0.35918451  0.80202046  1
  H+  H134  1  0.11944432  0.23581277  0.16742869  1
  H+  H135  1  0.61447706  0.96707664  0.67022992  1
  H+  H136  1  0.59764408  0.98624327  0.17091366  1
  H+  H137  1  0.39047071  0.86295239  0.50859232  1
  H+  H138  1  0.47363019  0.36149422  0.51066013  1
  H+  H139  1  0.88288063  0.74286297  0.68732282  1
  H+  H140  1  0.25548859  0.38825821  0.65974166  1
  H+  H141  1  0.38760412  0.76727286  0.65599857  1
  H+  H142  1  0.78912273  0.64786372  0.49748094  1
  H+  H143  1  0.36428279  0.63110186  -0.00268298  1
  H+  H144  1  0.01977782  0.39880304  0.49617419  1
  H+  H145  1  0.90111956  0.13298070  0.19131780  1
  H+  H146  1  0.10971963  0.54092345  0.50681488  1
  H+  H147  1  0.97361686  0.36463108  0.33047362  1
  H+  H148  1  0.28188171  0.38768068  0.16445409  1
  H+  H149  1  0.88787063  0.53055427  0.85481758  1
  H+  H150  1  0.99776156  0.62486365  0.18950403  1
  H+  H151  1  0.80739175  0.41302472  0.95803118  1
  H+  H152  1  0.60802030  0.22142725  0.82466323  1
  H+  H153  1  0.36370528  0.23293631  0.47842330  1
  H+  H154  1  0.12067192  0.89079692  0.84241791  1
  H+  H155  1  0.22384657  0.37686122  0.49202291  1
  H+  H156  1  0.59054409  0.38144309  0.00528281  1
  H+  H157  1  0.35781917  0.97225388  0.48710185  1
  H+  H158  1  0.86275962  0.05144403  0.54244521  1
  H+  H159  1  0.98408236  0.87129333  0.15599445  1
  H+  H160  1  0.39268612  0.60247107  0.17504809  1
  H+  H161  1  0.48567823  0.60999212  0.17849941  1
  H+  H162  1  0.49476223  0.60875756  0.32632558  1
  H+  H163  1  0.61589878  0.60723293  0.98937723  1
  H+  H164  1  0.27322609  0.63211314  0.67242973  1
  H+  H165  1  0.36175474  0.88845414  0.13383426  1
  H+  H166  1  0.87575263  0.10643043  0.83464964  1
  H+  H167  1  0.13802051  0.03092690  0.17483395  1
  H+  H168  1  0.87275125  0.73078708  0.83904749  1
  H+  H169  1  0.91026961  0.78980192  0.00971141  1
  H+  H170  1  0.37256145  0.47434714  0.16145989  1
  H+  H171  1  0.61196206  0.01124908  0.99850886  1
  H+  H172  1  0.01739143  0.62216992  0.83451302  1
  H+  H173  1  0.40178106  0.32241087  0.56034478  1
  H+  H174  1  0.09351302  0.28348349  0.66268930  1
  H+  H175  1  0.26479263  0.37549245  0.00742488  1
  H+  H176  1  0.13424471  0.35783167  0.99024202  1
  H+  H177  1  0.58418020  0.42099243  0.10417679  1
  H+  H178  1  0.14517748  0.03685685  0.97737075  1
  H+  H179  1  0.87457247  0.88794641  0.67659371  1
  H+  H180  1  0.47178600  0.85799136  0.84707166  1
  H+  H181  1  0.89466596  0.61640035  0.50986639  1
  H+  H182  1  0.38432776  0.61213647  0.65063943  1
  H+  H183  1  0.77717937  0.65550289  0.34819142  1
  H+  H184  1  0.15345586  0.53827748  0.18015991  1
  H+  H185  1  0.22712041  0.87169815  0.85514049  1
  H+  H186  1  0.61300949  0.14137588  0.15827625  1
  H+  H187  1  0.27161542  0.14648567  0.81669577  1
  H+  H188  1  0.50850145  0.38717372  0.66166285  1
  H+  H189  1  0.92137562  0.60209966  0.94608034  1
  H+  H190  1  0.38238021  0.52294693  0.64597907  1
  H+  H191  1  0.61799457  0.88719721  0.49082458  1
  H+  H192  1  0.48210549  0.08968293  0.67736623  1
  H+  H193  1  0.58228789  0.46650333  1.00435084  1
  H+  H194  1  0.59511735  0.13926782  0.33017652  1
  H+  H195  1  0.74022800  0.62726846  0.84494912  1
  H+  H196  1  0.28150709  0.63295553  0.16133263  1
  H+  H197  1  0.15572490  0.58113541  0.60352729  1
  H+  H198  1  1.02914899  0.88834410  0.83542623  1
  H+  H199  1  0.46479269  0.09619445  0.17405422  1
  H+  H200  1  0.61175508  0.22690435  0.48552622  1
  H+  H201  1  0.35565940  0.78551248  0.19542923  1
  H+  H202  1  0.10866730  0.61107108  0.82919654  1
  H+  H203  1  0.90881492  0.38618504  0.17746972  1
  H+  H204  1  0.35049705  0.23262652  -0.00238971  1
  H+  H205  1  0.09704265  0.92021125  0.74256469  1
  H+  H206  1  0.64664736  0.50448394  0.80654957  1
  H+  H207  1  0.12852453  0.64880590  0.16890075  1
  H+  H208  1  0.14012145  0.51042502  0.65360388  1
  H+  H209  1  0.14382891  0.52106996  0.33197339  1
  H+  H210  1  0.36420857  0.72578206  0.83044411  1
  H+  H211  1  0.15117798  0.27808638  0.33297735  1
  H+  H212  1  0.22664205  0.60855891  0.98443025  1
  H+  H213  1  0.13455444  0.51028879  0.83259091  1
  H+  H214  1  -0.02205761  0.61490016  0.35116026  1
  H+  H215  1  0.37923188  0.85987227  1.01444291  1
  H+  H216  1  0.90589063  0.87396897  0.51125289  1
  H+  H217  1  0.61120097  0.97032864  0.82699824  1
  H+  H218  1  0.51456363  0.63690266  0.65415064  1
  H+  H219  1  0.37675401  0.70602590  0.14099486  1
  H+  H220  1  0.04115008  0.39477291  0.02416486  1
  H+  H221  1  0.64845878  0.53441543  0.51193207  1
  H+  H222  1  0.71481628  0.86244368  0.17115134  1
  H+  H223  1  0.22880559  0.11477284  0.49749004  1
  H+  H224  1  0.24264098  0.88016716  0.31661867  1
  H+  H225  1  0.93567235  0.84495247  0.60822253  1
  H+  H226  1  0.12508101  0.13589966  0.99132033  1
  H+  H227  1  0.62226050  0.63664735  0.17047775  1
  H+  H228  1  0.98504361  0.87109476  0.32372078  1
  H+  H229  1  0.64221571  0.79659704  0.99981676  1
  H+  H230  1  0.28805258  0.39042652  0.33689287  1
  H+  H231  1  0.35299433  0.12448283  0.32891970  1
  H+  H232  1  0.64150184  0.86134286  0.65850147  1
  H+  H233  1  0.91872276  0.83613201  0.90641452  1
  H+  H234  1  0.63914095  0.65866333  0.82416223  1
  H+  H235  1  0.72592416  0.37051331  0.32631106  1
  H+  H236  1  0.85221732  0.89698498  0.15758905  1
  H+  H237  1  0.56838609  0.12173978  -0.00708632  1
  H+  H238  1  0.49398975  0.38258316  0.32053850  1
  H+  H239  1  0.19819543  0.33562774  0.83044397  1
  H+  H240  1  0.04042195  0.65505878  0.01240845  1
  H+  H241  1  0.25084281  0.88170971  1.02489940  1
  H+  H242  1  0.37620444  0.28442228  0.83113041  1
  H+  H243  1  0.40220147  0.07438442  0.26413851  1
  H+  H244  1  0.14018730  0.61267289  0.98947704  1
  H+  H245  1  0.27181256  0.86600549  0.67224409  1
  H+  H246  1  0.33854524  0.37312861  0.81875352  1
  H+  H247  1  0.63786121  0.36823214  0.82667932  1
  H+  H248  1  0.60777771  0.13204983  0.83127692  1
  H+  H249  1  0.23253150  0.13105183  0.98632508  1
  H+  H250  1  0.37620924  0.76954499  1.00076555  1
  H+  H251  1  0.14090732  0.76473083  0.66677969  1
  H+  H252  1  0.15148700  0.32107221  0.92722880  1
  H+  H253  1  0.25576615  0.12488092  0.32990430  1
  H+  H254  1  0.92176400  0.31643279  0.58696687  1
  H+  H255  1  0.87660712  0.97684104  0.68178017  1
  H+  H256  1  0.88114483  0.65415493  0.68494401  1
  H+  H257  1  1.02290600  0.62635545  0.67780973  1
  H+  H258  1  0.85405388  0.21853118  0.80720121  1
  H+  H259  1  0.62420426  0.73149365  0.48154862  1
  H+  H260  1  0.64029401  0.86707290  0.83453780  1
  H+  H261  1  0.54579081  0.86277389  0.09475308  1
  H+  H262  1  0.28068428  0.63197284  0.82655034  1
  H+  H263  1  0.12232767  0.70846207  0.37977652  1
  H+  H264  1  0.43266485  0.09933681  -0.01049452  1
  H+  H265  1  0.85906749  0.47393974  0.49473163  1
  H+  H266  1  0.02540883  0.13206628  0.49889068  1
  H+  H267  1  0.13491631  0.29000014  0.49880537  1
  H+  H268  1  0.86219429  0.39204537  0.33735576  1
  H+  H269  1  0.15421596  0.37841401  0.18029057  1
  H+  H270  1  0.13770363  0.02922931  0.83395335  1
  H+  H271  1  0.66546574  0.83704095  0.23577354  1
  H+  H272  1  0.36977914  0.86499963  0.66590725  1
  H+  H273  1  0.22962167  0.87103426  0.14733787  1
  H+  H274  1  0.18616992  0.85842862  0.21363621  1
  H+  H275  1  0.35345435  -0.02430683  0.83178525  1
  H+  H276  1  0.66791753  0.11030385  1.01800834  1
  H+  H277  1  0.36953443  0.89743236  0.33757758  1
  H+  H278  1  0.68069561  0.29062350  0.18069404  1
  H+  H279  1  0.32672679  0.40584499  0.06563599  1
  H+  H280  1  0.03663674  0.88752174  0.49442771  1
  H+  H281  1  0.34885143  0.60196604  0.45223099  1
  H+  H282  1  0.54811370  0.66133755  0.82097044  1
  H+  H283  1  0.15820894  0.79199991  1.01376047  1
  H+  H284  1  0.89481323  0.63518937  1.00711053  1
  H+  H285  1  0.87190130  0.90268681  0.34107152  1
  H+  H286  1  0.27208938  0.88088850  0.49475618  1
  H+  H287  1  0.13748111  0.85162671  0.50953548  1
  H+  H288  1  0.78327850  0.89443675  -0.00232849  1
  H+  H289  1  0.50930689  0.87981416  0.00590403  1
  H+  H290  1  0.41060917  0.83021680  0.90563742  1
  H+  H291  1  0.42908195  0.86351593  0.26812799  1
  H+  H292  1  0.12231363  0.73467222  0.16024530  1
  H+  H293  1  0.86892079  0.73889479  0.34053136  1
  H+  H294  1  0.65775638  0.77632130  0.32607311  1
  H+  H295  1  0.54361249  0.74912931  0.07145127  1
  H+  H296  1  0.94138743  0.59614967  0.25338125  1
  H+  H297  1  0.09815014  0.93814040  0.09334091  1
  H+  H298  1  0.91585394  0.58317919  0.60275351  1
  H+  H299  1  0.43012098  0.58365044  0.27037086  1
  H+  H300  1  0.79108662  0.41188265  0.16793613  1
  H+  H301  1  0.82197029  0.91532183  0.09502703  1
  H+  H302  1  0.18367811  0.59579393  0.24035284  1
  H+  H303  1  0.93120683  0.09770858  0.27330089  1
  H+  H304  1  0.61095762  0.62958059  0.65322168  1
  H+  H305  1  0.83515567  0.91026840  0.76824068  1
  H+  H306  1  0.82145310  0.14661751  0.75835869  1
  H+  H307  1  0.28344199  0.13314796  0.66673338  1
  H+  H308  1  0.63663825  0.11467252  0.49748157  1
  H+  H309  1  0.88230976  0.46644951  0.10486737  1
  H+  H310  1  0.93513921  0.34985108  0.23377145  1
  H+  H311  1  0.09130688  0.40455853  0.75595561  1
  H+  H312  1  0.92217697  0.33844459  0.91227592  1
  H+  H313  1  0.55211979  0.14851669  0.05761929  1
  H+  H314  1  0.84649082  0.67586751  0.10090122  1
  H+  H315  1  0.58741384  0.91434752  0.39944959  1
  H+  H316  1  0.41938697  0.83172891  0.59601662  1
  H+  H317  1  0.63890187  0.32756950  0.89189488  1
  H+  H318  1  0.68388445  0.35073321  0.23314050  1
  H+  H319  1  0.16740572  0.09892035  0.88652349  1
  H+  H320  1  0.89303952  0.62331907  0.34069493  1
  H+  H321  1  0.58071680  0.17263295  0.42309515  1
  H+  H322  1  0.42347696  0.59439157  0.54532273  1
  H+  H323  1  0.83944856  0.92250032  0.40399908  1
  H+  H324  1  0.48199454  0.36608878  0.17303862  1
  H+  H325  1  0.34254121  0.41975573  0.42954864  1
  H+  H326  1  0.63586555  0.02102692  0.33628246  1
  H+  H327  1  0.04160510  0.15031847  0.72102443  1
  H+  H328  1  0.83130553  0.41842827  0.43277655  1
  H+  H329  1  0.66421592  0.07927727  0.89870051  1
  H+  H330  1  0.89652676  0.03616278  0.33415193  1
  H+  H331  1  0.32373459  0.64428111  0.05769247  1
  H+  H332  1  0.16452255  0.08429336  0.26517049  1
  H+  H333  1  0.45307792  0.62171038  0.93122658  1
  H+  H334  1  0.18085980  0.07859604  0.59932155  1
  H+  H335  1  0.16136045  0.56926814  0.89394698  1
  H+  H336  1  0.16944079  0.82449107  0.60715255  1
  H+  H337  1  0.67350994  0.83510246  0.55782870  1
  H+  H338  1  0.84907481  0.67531344  0.77770359  1
  H+  H339  1  0.35375574  0.88767805  0.83526745  1
  H+  H340  1  0.87555973  0.30291332  0.91517587  1
  H+  H341  1  0.58135141  0.14644125  0.73650817  1
  H+  H342  1  0.42719284  0.34566227  0.25669839  1
  H+  H343  1  0.11016731  0.43552027  0.10705862  1
  H+  H344  1  0.95762212  0.08459129  0.61576374  1
  H+  H345  1  0.58541132  0.42921257  0.71219607  1
  H+  H346  1  0.36602736  0.95863241  0.68198439  1
  H+  H347  1  0.89298184  0.37660789  0.73516050  1
  H+  H348  1  0.83052647  0.42884488  0.78144722  1
  H+  H349  1  0.65596738  0.60515050  0.28252505  1
  H+  H350  1  0.41634537  0.10504504  0.53969978  1
  H+  H351  1  0.65597420  0.58468136  0.89085026  1
  H+  H352  1  0.89731139  0.62379877  0.84918611  1
  H+  H353  1  0.38655355  0.08387012  0.92603669  1
  H+  H354  1  0.54501453  0.05521367  0.12684295  1
  H+  H355  1  0.41738477  0.05189489  0.62089647  1
  H+  H356  1  0.32704263  0.16701808  0.38949030  1
  H+  H357  1  0.84879177  0.67992606  0.43909673  1
  H+  H358  1  0.83267232  0.16877731  0.11832631  1
  H+  H359  1  0.61488776  0.97516117  0.49006600  1
  H+  H360  1  0.03277716  0.36133287  0.65616190  1
  H+  H361  1  0.09673618  0.66886582  0.07114861  1
  H+  H362  1  0.88816206  0.86301745  0.84542964  1
  H+  H363  1  0.31120648  0.40451188  0.71815644  1
  H+  H364  1  0.08915845  0.63575797  0.45978107  1
  H+  H365  1  0.33619801  0.17604139  0.76017359  1
  H+  H366  1  0.92367817  0.84617471  0.26590097  1
  H+  H367  1  0.64104261  0.76004195  0.82888765  1
  H+  H368  1  0.61275793  0.65769783  0.38970169  1
  H+  H369  1  0.58396653  0.69278174  0.08377411  1
  H+  H370  1  0.91231503  0.08146335  0.89413410  1
  H+  H371  1  0.66706609  0.07439249  0.59576495  1
  H+  H372  1  0.07525581  0.64556672  0.76735176  1
  H+  H373  1  0.66559962  0.59753376  0.59299843  1
  H+  H374  1  0.18087460  0.85003749  0.91940097  1
  H+  H375  1  0.66713261  0.32556113  0.56051470  1
  H+  H376  1  0.52645417  0.55410361  0.96039789  1
  H+  H377  1  0.31614865  0.17398139  0.09520592  1
  H+  H378  1  0.68131150  0.15443612  0.24593045  1
  H+  H379  1  0.97597604  0.60123455  0.51789958  1
  H+  H380  1  0.39844366  0.34172491  0.89073873  1
  H+  H381  1  0.13885205  0.89904041  -0.00625973  1
  H+  H382  1  0.33627657  0.66490387  0.72998052  1
  H+  H383  1  0.83721440  0.17020009  0.41711469  1
  O2-  O384  1  0.08294454  0.17546176  0.15426610  1
  O2-  O385  1  0.08529960  0.16659767  0.48501757  1
  O2-  O386  1  0.06309266  0.15338732  0.79733262  1
  O2-  O387  1  0.10742992  0.43796174  0.15237294  1
  O2-  O388  1  0.07983296  0.43919225  0.48241175  1
  O2-  O389  1  0.08078424  0.40716692  0.80020837  1
  O2-  O390  1  0.09154747  0.67122515  0.15245896  1
  O2-  O391  1  0.08655802  0.64015833  0.50525871  1
  O2-  O392  1  0.07604347  0.64224837  0.81433441  1
  O2-  O393  1  0.08825702  0.92539618  0.13667189  1
  O2-  O394  1  0.09585809  0.91238036  0.47666618  1
  O2-  O395  1  0.09076976  0.92092723  0.82361949  1
  O2-  O396  1  0.31430607  0.17099194  0.14034810  1
  O2-  O397  1  0.33298127  0.17382559  0.45945182  1
  O2-  O398  1  0.33373070  0.17807417  0.80562842  1
  O2-  O399  1  0.34097630  0.41400770  0.14616815  1
  O2-  O400  1  0.33876414  0.42223944  0.47461611  1
  O2-  O401  1  0.29689477  0.39021258  0.79708477  1
  O2-  O402  1  0.33466247  0.64490919  0.13782445  1
  O2-  O403  1  0.29666349  0.58329949  0.42679556  1
  O2-  O404  1  0.34091605  0.66647651  0.81235844  1
  O2-  O405  1  0.32896593  0.91539290  0.11793795  1
  O2-  O406  1  0.32997609  0.91101930  0.47524667  1
  O2-  O407  1  0.31993121  0.91368546  0.82130788  1
  O2-  O408  1  0.56196245  0.11582839  0.13009913  1
  O2-  O409  1  0.58121981  0.16676002  0.46829843  1
  O2-  O410  1  0.57659480  0.15966534  0.81349330  1
  O2-  O411  1  0.58887172  0.42096345  0.14956297  1
  O2-  O412  1  0.58666344  0.42204957  0.52507891  1
  O2-  O413  1  0.64564313  0.45809391  0.78072350  1
  O2-  O414  1  0.59101176  0.66608484  0.15560663  1
  O2-  O415  1  0.59795808  0.67116205  0.46597252  1
  O2-  O416  1  0.61122187  0.69301858  0.80966847  1
  O2-  O417  1  0.52359548  0.81855968  0.12757091  1
  O2-  O418  1  0.58453530  0.91455611  0.47564817  1
  O2-  O419  1  0.58300170  0.90901292  0.81346571  1
  O2-  O420  1  0.83640136  0.18617883  0.16115698  1
  O2-  O421  1  0.83444671  0.16857169  0.46330046  1
  O2-  O422  1  0.82255568  0.15478827  0.80349856  1
  O2-  O423  1  0.85548909  0.44585293  0.15924034  1
  O2-  O424  1  0.82966565  0.41423711  0.47823185  1
  O2-  O425  1  0.82781242  0.42682965  0.82613462  1
  O2-  O426  1  0.83913559  0.66166943  0.17660118  1
  O2-  O427  1  0.85062812  0.67711233  0.48430753  1
  O2-  O428  1  0.84308128  0.66968234  0.82415785  1
  O2-  O429  1  0.81119921  0.91135212  0.13936049  1
  O2-  O430  1  0.83166433  0.89627595  0.47385958  1
  O2-  O431  1  0.83136236  0.91043026  0.81402074  1
  O2-  O432  1  0.16651878  0.08845613  0.19377442  1
  O2-  O433  1  0.17114782  0.07951896  0.51589907  1
  O2-  O434  1  0.16321826  0.09240462  0.84147975  1
  O2-  O435  1  0.18211043  0.34516513  0.19332596  1
  O2-  O436  1  0.16153869  0.35301643  0.49884745  1
  O2-  O437  1  0.13970044  0.31027972  0.84930745  1
  O2-  O438  1  0.18523064  0.59950909  0.19514165  1
  O2-  O439  1  0.13579248  0.59918616  0.52730568  1
  O2-  O440  1  0.16168161  0.57080830  0.84811898  1
  O2-  O441  1  0.17302157  0.84541834  0.16964588  1
  O2-  O442  1  0.16872463  0.82416752  0.52850427  1
  O2-  O443  1  0.16890872  0.84758305  0.87539596  1
  O2-  O444  1  0.40728568  0.06628550  0.19251249  1
  O2-  O445  1  0.41677308  0.09037666  0.49712937  1
  O2-  O446  1  0.40548177  0.08640138  0.84970371  1
  O2-  O447  1  0.42233645  0.33749086  0.18975973  1
  O2-  O448  1  0.40999465  0.32719055  0.51503705  1
  O2-  O449  1  0.39615255  0.34424569  0.84545410  1
  O2-  O450  1  0.42495985  0.57664030  0.19365583  1
  O2-  O451  1  0.42934934  0.59031073  0.50093037  1
  O2-  O452  1  0.45149390  0.61736726  0.84794854  1
  O2-  O453  1  0.40400353  0.84134221  0.18442003  1
  O2-  O454  1  0.42152020  0.83643031  0.52765331  1
  O2-  O455  1  0.41104683  0.82554323  0.86061026  1
  O2-  O456  1  0.69558394  0.18500534  0.20698314  1
  O2-  O457  1  0.66671816  0.08436248  0.51262517  1
  O2-  O458  1  0.66164672  0.07653060  0.85393118  1
  O2-  O459  1  0.69204436  0.34940530  0.18746870  1
  O2-  O460  1  0.66335290  0.32632358  0.51501184  1
  O2-  O461  1  0.65642731  0.33189913  0.84835327  1
  O2-  O462  1  0.66633503  0.58139682  0.20432514  1
  O2-  O463  1  0.68121936  0.59761088  0.51929674  1
  O2-  O464  1  0.67509525  0.59790233  0.84803127  1
  O2-  O465  1  0.65654529  0.82872571  0.19088752  1
  O2-  O466  1  0.67272095  0.83674411  0.51275600  1
  O2-  O467  1  0.67289041  0.83783029  0.85032756  1
  O2-  O468  1  0.93132048  0.10333430  0.20519834  1
  O2-  O469  1  0.91399721  0.04814703  0.53289925  1
  O2-  O470  1  0.90566068  0.07523459  0.84918199  1
  O2-  O471  1  0.93833165  0.35376595  0.18792795  1
  O2-  O472  1  0.91354982  0.33097791  0.51309527  1
  O2-  O473  1  0.90871981  0.33158435  0.79527217  1
  O2-  O474  1  0.93803425  0.59469258  0.20768740  1
  O2-  O475  1  0.91413560  0.57754843  0.52784025  1
  O2-  O476  1  0.92629596  0.59214444  0.86642897  1
  O2-  O477  1  0.92060875  0.83641806  0.16487428  1
  O2-  O478  1  0.93772675  0.84565281  0.52808126  1
  O2-  O479  1  0.91957233  0.83424005  0.86119153  1
  O2-  O480  1  0.16607913  0.08472129  0.31190156  1
  O2-  O481  1  0.18837153  0.08314875  0.64402860  1
  O2-  O482  1  0.17006407  0.09906015  0.96734377  1
  O2-  O483  1  0.18415232  0.33932635  0.31802241  1
  O2-  O484  1  0.13392135  0.34491351  0.65262157  1
  O2-  O485  1  0.15634152  0.32126932  0.97268331  1
  O2-  O486  1  0.17292679  0.58243218  0.32276035  1
  O2-  O487  1  0.16234705  0.57274731  0.64768752  1
  O2-  O488  1  0.16472764  0.57843243  0.97139373  1
  O2-  O489  1  0.18485103  0.85704824  0.29461054  1
  O2-  O490  1  0.17434056  0.82513660  0.65268121  1
  O2-  O491  1  0.18894020  0.85415762  1.00466460  1
  O2-  O492  1  0.40312466  0.08228214  0.31017626  1
  O2-  O493  1  0.41615468  0.05758544  0.66482119  1
  O2-  O494  1  0.37642155  0.08099132  0.97086245  1
  O2-  O495  1  0.43053436  0.34965450  0.30439162  1
  O2-  O496  1  0.40631567  0.32934266  0.63840085  1
  O2-  O497  1  0.40192865  0.33150921  0.96974616  1
  O2-  O498  1  0.43321549  0.58318923  0.31601254  1
  O2-  O499  1  0.41508899  0.58399520  0.63252714  1
  O2-  O500  1  0.44515600  0.60293437  0.97403002  1
  O2-  O501  1  0.42516884  0.85933813  0.31270321  1
  O2-  O502  1  0.41738412  0.82917316  0.64353539  1
  O2-  O503  1  0.40667639  0.83160754  0.99016188  1
  O2-  O504  1  0.66378982  0.08647370  0.33267893  1
  O2-  O505  1  0.66802614  0.06863090  0.64063432  1
  O2-  O506  1  0.64307574  0.07287271  0.98273191  1
  O2-  O507  1  0.66792623  0.34607682  0.30680150  1
  O2-  O508  1  0.66435793  0.33750285  0.63639599  1
  O2-  O509  1  0.62545246  0.31688136  0.97067585  1
  O2-  O510  1  0.65970865  0.60978681  0.32819949  1
  O2-  O511  1  0.65121633  0.59135053  0.63794385  1
  O2-  O512  1  0.58401254  0.55930460  0.96149519  1
  O2-  O513  1  0.67772196  0.83650475  0.31457965  1
  O2-  O514  1  0.67066357  0.83053522  0.64169268  1
  O2-  O515  1  0.67643997  0.85173775  0.97716134  1
  O2-  O516  1  0.92872867  0.09771473  0.32064506  1
  O2-  O517  1  0.94944655  0.09286833  0.65940461  1
  O2-  O518  1  0.93029530  0.08287011  0.97296894  1
  O2-  O519  1  0.91739646  0.34122619  0.30900658  1
  O2-  O520  1  0.92804942  0.31253479  0.63224682  1
  O2-  O521  1  0.92640188  0.34540345  1.02958584  1
  O2-  O522  1  0.92297329  0.59124552  0.32852883  1
  O2-  O523  1  0.91994115  0.58474173  0.64879723  1
  O2-  O524  1  0.92511131  0.60590842  0.99152902  1
  O2-  O525  1  0.92341425  0.84204976  0.31023605  1
  O2-  O526  1  0.93264759  0.84499799  0.65357739  1
  O2-  O527  1  0.93176054  0.84358669  0.98640767  1
  O2-  O528  1  0.08997011  0.16579502  0.00887677  1
  O2-  O529  1  0.09217931  0.17631163  0.35942974  1
  O2-  O530  1  0.03597008  0.16239590  0.67689575  1
  O2-  O531  1  0.10435743  0.42435175  0.02775857  1
  O2-  O532  1  0.06537043  0.38115067  0.37127798  1
  O2-  O533  1  0.09188026  0.39237197  0.67564176  1
  O2-  O534  1  0.09953699  0.67342013  0.02591283  1
  O2-  O535  1  0.08578799  0.64620831  0.38165270  1
  O2-  O536  1  0.08117764  0.65210610  0.69684456  1
  O2-  O537  1  0.10334230  0.92678161  -0.02216482  1
  O2-  O538  1  0.08769477  0.91911200  0.35214186  1
  O2-  O539  1  0.09628838  0.91896497  0.69717824  1
  O2-  O540  1  0.31679372  0.17278735  0.01485976  1
  O2-  O541  1  0.32106978  0.15660233  0.34319624  1
  O2-  O542  1  0.34485022  0.16957051  0.68311753  1
  O2-  O543  1  0.32529291  0.40471530  0.02050184  1
  O2-  O544  1  0.34981257  0.41858250  0.35017682  1
  O2-  O545  1  0.31561589  0.41081234  0.67296955  1
  O2-  O546  1  0.32780103  0.65433294  0.01298323  1
  O2-  O547  1  0.32887318  0.63838179  0.37260286  1
  O2-  O548  1  0.33480339  0.66425126  0.68468658  1
  O2-  O549  1  0.33722813  0.91334754  0.05063275  1
  O2-  O550  1  0.33144905  0.92167037  0.35179150  1
  O2-  O551  1  0.33447567  0.89307334  0.68604520  1
  O2-  O552  1  0.54693781  0.15632129  0.01316062  1
  O2-  O553  1  0.57032715  0.17452084  0.34397022  1
  O2-  O554  1  0.57365215  0.13773088  0.69166857  1
  O2-  O555  1  0.56451991  0.41218573  0.02619512  1
  O2-  O556  1  0.58102305  0.42733898  0.34739507  1
  O2-  O557  1  0.57279595  0.42247185  0.66780066  1
  O2-  O558  1  0.56858406  0.71900182  0.04892125  1
  O2-  O559  1  0.61342666  0.65672150  0.34354649  1
  O2-  O560  1  0.57632965  0.66553977  0.66943566  1
  O2-  O561  1  0.57104287  0.91290660  0.02103482  1
  O2-  O562  1  0.59082981  0.91995807  0.35375355  1
  O2-  O563  1  0.58472652  0.90766687  0.68811620  1
  O2-  O564  1  0.81538889  0.10845463  0.04282663  1
  O2-  O565  1  0.84253935  0.17414192  0.34316404  1
  O2-  O566  1  0.83496701  0.15032466  0.67964004  1
  O2-  O567  1  0.91927861  0.48548299  0.05984919  1
  O2-  O568  1  0.82950570  0.41895036  0.35409852  1
  O2-  O569  1  0.87916403  0.40839911  0.70302303  1
  O2-  O570  1  0.84939464  0.69292494  0.05662042  1
  O2-  O571  1  0.83871732  0.67966120  0.35816224  1
  O2-  O572  1  0.85551960  0.68441466  0.70580604  1
  O2-  O573  1  0.84286564  0.92487342  0.01475594  1
  O2-  O574  1  0.84071267  0.93078521  0.35731505  1
  O2-  O575  1  0.84045619  0.91524340  0.69157889  1
