# generated using pymatgen
data_H2O
_symmetry_space_group_name_H-M   'P 1'
_cell_length_a   17.98238663
_cell_length_b   17.99354129
_cell_length_c   22.00750468
_cell_angle_alpha   89.98812357
_cell_angle_beta   90.00138713
_cell_angle_gamma   120.00639837
_symmetry_Int_Tables_number   1
_chemical_formula_structural   H2O
_chemical_formula_sum   'H384 O192'
_cell_volume   6166.48095831
_cell_formula_units_Z   192
loop_
 _symmetry_equiv_pos_site_id
 _symmetry_equiv_pos_as_xyz
  1  'x, y, z'
loop_
 _atom_type_symbol
 _atom_type_oxidation_number
  H+  1.0
  O2-  -2.0
loop_
 _atom_site_type_symbol
 _atom_site_label
 _atom_site_symmetry_multiplicity
 _atom_site_fract_x
 _atom_site_fract_y
 _atom_site_fract_z
 _atom_site_occupancy
  H+  H0  1  0.22321919  0.35597241  -0.00561974  1
  H+  H1  1  0.10773960  0.90810184  0.67433564  1
  H+  H2  1  0.08857865  0.42260953  0.10555697  1
  H+  H3  1  0.08567315  0.50666884  0.61086834  1
  H+  H4  1  0.33549594  0.09108139  0.18442401  1
  H+  H5  1  0.62948802  0.65330740  0.48121117  1
  H+  H6  1  0.06427384  0.16264084  0.10337320  1
  H+  H7  1  0.65252983  -0.01631578  0.11882110  1
  H+  H8  1  0.36553945  0.85448064  0.99688638  1
  H+  H9  1  0.61860259  0.88376402  0.02909703  1
  H+  H10  1  0.22757806  0.60537655  -0.00201085  1
  H+  H11  1  0.51939542  0.38190892  0.49020130  1
  H+  H12  1  0.98800877  0.62605576  0.66221929  1
  H+  H13  1  0.13497787  0.08367328  0.32803900  1
  H+  H14  1  0.63536406  0.89129607  0.85907035  1
  H+  H15  1  1.00307090  0.63623971  0.16283256  1
  H+  H16  1  0.85523007  0.36219274  0.66064550  1
  H+  H17  1  0.27982303  0.13453994  0.33363502  1
  H+  H18  1  0.82874679  0.65022390  0.73804111  1
  H+  H19  1  0.63030507  0.26594775  0.82284260  1
  H+  H20  1  0.28237331  0.13655865  0.51697791  1
  H+  H21  1  1.01682429  0.90272696  0.67243234  1
  H+  H22  1  0.47480321  0.60346289  -0.00179595  1
  H+  H23  1  0.15754605  0.09576331  0.57610191  1
  H+  H24  1  0.61049315  0.00893295  1.00003006  1
  H+  H25  1  0.07168718  0.43282178  0.48805613  1
  H+  H26  1  0.51662274  0.38820584  0.66259877  1
  H+  H27  1  0.16892631  0.32590303  0.89980657  1
  H+  H28  1  0.75737329  0.12591249  0.34266867  1
  H+  H29  1  0.62479812  0.37594184  0.33626261  1
  H+  H30  1  0.36956013  0.75906882  0.99108110  1
  H+  H31  1  0.13677907  0.51684661  1.00074336  1
  H+  H32  1  0.13038184  0.27016100  -0.00332111  1
  H+  H33  1  0.34781082  -0.02406407  0.82839217  1
  H+  H34  1  0.87967364  0.85665212  0.83903325  1
  H+  H35  1  0.93050566  0.54355270  0.83168344  1
  H+  H36  1  0.50208429  0.04442724  -0.03887188  1
  H+  H37  1  0.61255302  0.39028125  0.80369584  1
  H+  H38  1  0.70397781  0.87432827  0.33273621  1
  H+  H39  1  0.06696869  0.11846828  0.67627887  1
  H+  H40  1  0.09923548  0.22607553  0.82622995  1
  H+  H41  1  0.14398380  0.36976612  0.16917281  1
  H+  H42  1  0.38863111  0.36728761  0.65544065  1
  H+  H43  1  0.38564432  0.74042892  0.35861468  1
  H+  H44  1  0.13217295  0.03257263  0.98602198  1
  H+  H45  1  0.09430587  0.22259815  0.16221504  1
  H+  H46  1  0.70858745  0.61307203  0.65622759  1
  H+  H47  1  0.83800878  0.12326929  0.84549281  1
  H+  H48  1  0.60853098  0.14026153  0.82586989  1
  H+  H49  1  0.37982565  0.74015656  0.14513335  1
  H+  H50  1  0.28572259  0.38428495  0.48766971  1
  H+  H51  1  0.38061203  0.52649854  0.63750067  1
  H+  H52  1  0.36194777  0.46583564  0.00633601  1
  H+  H53  1  0.84034633  0.95376343  0.82950960  1
  H+  H54  1  0.12931666  0.30320520  0.32216548  1
  H+  H55  1  0.82076908  0.20685520  0.49426389  1
  H+  H56  1  0.10934173  0.64469577  0.47717161  1
  H+  H57  1  0.11063661  0.59973587  0.85327908  1
  H+  H58  1  0.63954254  0.75831147  0.18000143  1
  H+  H59  1  0.50124999  0.87769976  0.13425755  1
  H+  H60  1  0.85255947  0.22205358  0.34626074  1
  H+  H61  1  1.10437924  0.11752528  0.83892595  1
  H+  H62  1  0.34405773  0.13839238  0.68394350  1
  H+  H63  1  0.90098419  0.62074510  0.15928222  1
  H+  H64  1  0.91104868  0.85322837  0.31214724  1
  H+  H65  1  0.86421604  0.62565965  0.34525966  1
  H+  H66  1  0.59957261  0.25274961  0.19047021  1
  H+  H67  1  0.40206730  0.63903601  0.17968722  1
  H+  H68  1  0.70387838  0.93942226  0.55061336  1
  H+  H69  1  0.05357739  0.87747131  0.35574599  1
  H+  H70  1  0.37117020  0.48889050  0.34104342  1
  H+  H71  1  0.60455739  0.34357649  0.18042917  1
  H+  H72  1  0.27172395  0.59509571  0.68901623  1
  H+  H73  1  0.51574093  0.89231240  0.83974953  1
  H+  H74  1  0.74017855  0.11407688  0.67590752  1
  H+  H75  1  0.37881256  0.57757235  0.84556834  1
  H+  H76  1  0.60744442  0.85226084  0.31707599  1
  H+  H77  1  0.11827972  0.47983822  0.83857233  1
  H+  H78  1  0.52405663  0.37821463  -0.00015946  1
  H+  H79  1  0.47391297  0.28870193  0.20023203  1
  H+  H80  1  0.02402792  0.37927368  0.01528927  1
  H+  H81  1  0.78009077  0.56770758  0.69862165  1
  H+  H82  1  0.85791118  0.09240674  0.17839762  1
  H+  H83  1  1.03271289  0.34294577  0.68850322  1
  H+  H84  1  0.58853859  0.42114057  0.09341981  1
  H+  H85  1  0.23386472  0.86476758  0.99021464  1
  H+  H86  1  0.86574219  0.88308273  0.16501485  1
  H+  H87  1  0.85782482  0.23680719  0.05441842  1
  H+  H88  1  0.41500733  0.56712619  0.93898862  1
  H+  H89  1  0.84477495  0.37431649  0.33610800  1
  H+  H90  1  0.55937337  0.67779665  0.47066334  1
  H+  H91  1  0.59312881  0.11414679  0.42102164  1
  H+  H92  1  0.10854206  0.14528202  0.50689446  1
  H+  H93  1  0.88579106  0.11423919  0.33267239  1
  H+  H94  1  0.92121562  0.20805267  0.11041519  1
  H+  H95  1  0.39314216  0.90072284  0.34270115  1
  H+  H96  1  -0.00072994  0.34874108  0.54962436  1
  H+  H97  1  0.11372167  0.38095035  0.01124384  1
  H+  H98  1  0.11515038  0.89707980  0.50999727  1
  H+  H99  1  0.12597841  0.68393715  0.69392316  1
  H+  H100  1  0.53399328  0.64014441  0.17209053  1
  H+  H101  1  0.87975160  0.64333859  0.82653786  1
  H+  H102  1  0.78462348  0.63383837  0.82946375  1
  H+  H103  1  0.59491488  0.86020125  0.48850913  1
  H+  H104  1  0.91697933  0.41685103  0.14980595  1
  H+  H105  1  0.48324706  0.08871219  0.16271241  1
  H+  H106  1  0.77322420  -0.01262499  0.88159090  1
  H+  H107  1  0.37801153  0.84559960  0.50629817  1
  H+  H108  1  0.03626400  0.13459470  0.34243426  1
  H+  H109  1  0.92428655  0.53685090  0.15396437  1
  H+  H110  1  0.61544178  0.47830660  0.33991957  1
  H+  H111  1  0.72324549  0.60560466  0.98869727  1
  H+  H112  1  0.43032084  0.85152274  0.08734510  1
  H+  H113  1  0.86872246  0.49419635  0.66666895  1
  H+  H114  1  0.35276171  0.87972173  0.67441383  1
  H+  H115  1  0.27461724  0.87149783  0.49279054  1
  H+  H116  1  0.51821041  0.88050940  0.66107644  1
  H+  H117  1  0.86341443  0.72157476  0.49492926  1
  H+  H118  1  0.75224446  0.37854459  0.48715584  1
  H+  H119  1  0.14938404  0.41720840  0.48301167  1
  H+  H120  1  0.93897702  0.59379649  0.92794150  1
  H+  H121  1  0.85750196  0.23059944  0.68717375  1
  H+  H122  1  0.77535569  0.12803503  0.13224772  1
  H+  H123  1  0.18512992  0.60454556  0.23239827  1
  H+  H124  1  0.62426222  0.76026314  0.65855146  1
  H+  H125  1  0.12188373  0.79498292  0.67428484  1
  H+  H126  1  0.13165459  0.03437431  0.51754872  1
  H+  H127  1  0.85684520  0.87996036  0.00930422  1
  H+  H128  1  0.77312217  0.37384265  0.82137044  1
  H+  H129  1  0.13836162  0.19772258  0.35068599  1
  H+  H130  1  0.46251348  0.11481189  0.67480572  1
  H+  H131  1  0.52819782  0.39966726  0.82079664  1
  H+  H132  1  1.03767184  0.38734710  0.82901689  1
  H+  H133  1  0.60959118  0.96781356  0.66751505  1
  H+  H134  1  0.17356063  0.56395060  0.48656876  1
  H+  H135  1  0.34260255  0.00721312  0.18417111  1
  H+  H136  1  0.64817715  0.52493722  0.83014981  1
  H+  H137  1  0.35305196  0.21946290  -0.00296356  1
  H+  H138  1  0.15162026  0.78019591  0.33204365  1
  H+  H139  1  0.71962655  0.12118206  0.84772560  1
  H+  H140  1  0.78524733  0.39915576  0.01231844  1
  H+  H141  1  0.22165995  0.12252945  0.98916139  1
  H+  H142  1  0.65157035  0.52983613  0.16741284  1
  H+  H143  1  0.84962981  0.13079070  0.49166397  1
  H+  H144  1  0.39451317  1.01882718  0.48620400  1
  H+  H145  1  0.62261109  0.10287815  0.00263102  1
  H+  H146  1  0.63554289  0.01567149  0.32277172  1
  H+  H147  1  0.10940539  -0.01239782  0.15059792  1
  H+  H148  1  0.61222489  0.62884804  0.81543909  1
  H+  H149  1  0.10914367  0.02073560  0.83585265  1
  H+  H150  1  0.39662573  0.62641060  0.34683686  1
  H+  H151  1  0.84544391  0.31789809  0.20308973  1
  H+  H152  1  0.60174245  0.98119785  0.83320766  1
  H+  H153  1  0.11841840  0.41235846  0.32834371  1
  H+  H154  1  0.87641644  0.48644397  -0.00488940  1
  H+  H155  1  0.19478565  0.77105845  0.56264934  1
  H+  H156  1  0.62086143  0.23215633  0.02947372  1
  H+  H157  1  0.73354327  0.85514363  0.17940640  1
  H+  H158  1  0.24061577  0.63310816  0.33058910  1
  H+  H159  1  0.88359510  0.60370175  0.50434128  1
  H+  H160  1  0.62255690  0.63622499  0.16782017  1
  H+  H161  1  0.85591792  0.96806806  0.16739734  1
  H+  H162  1  0.37726084  0.96968754  -0.00014043  1
  H+  H163  1  -0.02346105  0.13033252  0.51153727  1
  H+  H164  1  0.46972646  0.10981774  0.83529138  1
  H+  H165  1  0.28126662  0.40172939  0.33394889  1
  H+  H166  1  0.23193878  0.67541404  0.64293367  1
  H+  H167  1  0.62283686  0.52149750  0.65285195  1
  H+  H168  1  0.26961303  0.88703890  0.15012280  1
  H+  H169  1  0.00092534  0.85617271  0.00085653  1
  H+  H170  1  0.84659478  -0.01682240  0.35338419  1
  H+  H171  1  0.13123963  0.75963880  0.51087720  1
  H+  H172  1  0.15763036  0.58168281  0.90960552  1
  H+  H173  1  0.88877389  0.27643572  0.15764048  1
  H+  H174  1  0.11572296  0.11053083  0.17586234  1
  H+  H175  1  0.37665612  1.02554223  0.67813346  1
  H+  H176  1  0.82652434  0.32790362  0.50224692  1
  H+  H177  1  0.15051876  0.54514020  0.32443975  1
  H+  H178  1  1.01306627  0.63049438  0.48359066  1
  H+  H179  1  0.87456708  1.01292813  0.00593318  1
  H+  H180  1  0.51848419  0.61390164  0.82184348  1
  H+  H181  1  0.64893834  0.08272149  0.90151939  1
  H+  H182  1  0.72494305  0.60597933  0.50462866  1
  H+  H183  1  0.86477214  0.63353669  0.99711397  1
  H+  H184  1  0.87308335  0.76532496  0.98739244  1
  H+  H185  1  0.25313027  0.13860424  0.15516009  1
  H+  H186  1  0.35056015  0.21644625  0.16085335  1
  H+  H187  1  0.28907814  0.65345837  0.15972489  1
  H+  H188  1  0.11817514  0.63435043  0.00736362  1
  H+  H189  1  0.70452926  0.23732854  0.15321091  1
  H+  H190  1  0.13950689  0.85527969  -0.01236931  1
  H+  H191  1  0.26684662  0.88740452  0.67620931  1
  H+  H192  1  0.36612151  0.63264485  1.00399174  1
  H+  H193  1  0.64088883  0.36723627  1.00493504  1
  H+  H194  1  1.01242337  0.13395095  1.00966856  1
  H+  H195  1  0.38095776  0.49132713  0.84160338  1
  H+  H196  1  0.10580822  0.26390878  0.64452620  1
  H+  H197  1  0.36613122  0.78566802  0.84452213  1
  H+  H198  1  -0.02445825  0.87041053  0.50449148  1
  H+  H199  1  0.66564745  0.82994894  0.24151071  1
  H+  H200  1  0.47724443  0.36810574  0.32916704  1
  H+  H201  1  0.98750105  0.87064809  0.15816479  1
  H+  H202  1  0.14381570  0.87475113  0.16162081  1
  H+  H203  1  0.12374159  0.50473656  0.62338837  1
  H+  H204  1  0.89314609  1.04019795  0.52121676  1
  H+  H205  1  0.37812665  0.43743809  0.15582067  1
  H+  H206  1  0.77193690  0.89701267  0.51192283  1
  H+  H207  1  0.03760763  0.34293019  0.65443492  1
  H+  H208  1  0.12669967  0.04220797  0.66735760  1
  H+  H209  1  0.63455015  0.60605424  -0.00933111  1
  H+  H210  1  0.88453139  0.52182214  0.32882045  1
  H+  H211  1  0.12746953  0.64976250  0.15942092  1
  H+  H212  1  0.62739047  0.85368755  0.65853707  1
  H+  H213  1  0.38646439  0.24186626  0.83145117  1
  H+  H214  1  0.21374396  0.13209246  0.67083947  1
  H+  H215  1  0.15078725  0.00593880  0.32389373  1
  H+  H216  1  0.69132490  0.08771274  0.47789511  1
  H+  H217  1  0.38699054  0.11373339  0.33569055  1
  H+  H218  1  0.13918914  0.62954203  0.61239534  1
  H+  H219  1  0.83305008  0.35525196  0.77999681  1
  H+  H220  1  0.71523903  0.36836396  0.65548408  1
  H+  H221  1  0.06395835  0.67151446  0.74989010  1
  H+  H222  1  0.56574824  0.65754522  0.72482327  1
  H+  H223  1  0.20312105  0.83157886  0.83526610  1
  H+  H224  1  0.37093610  0.87600710  0.84823082  1
  H+  H225  1  0.08338459  0.70491843  0.84114438  1
  H+  H226  1  0.41824683  0.33364766  0.59688879  1
  H+  H227  1  0.37569522  -0.02017499  0.34412514  1
  H+  H228  1  0.27913754  0.39310590  0.67577979  1
  H+  H229  1  0.70805548  0.86315583  0.85321656  1
  H+  H230  1  -0.02728319  0.36229454  0.33225492  1
  H+  H231  1  0.33921095  0.66417049  0.81626259  1
  H+  H232  1  0.11811106  0.64680074  0.33377691  1
  H+  H233  1  0.71865458  0.85340128  1.00727832  1
  H+  H234  1  0.47657999  0.43453585  0.87702044  1
  H+  H235  1  0.53282518  0.39988714  0.15398654  1
  H+  H236  1  0.47497592  0.11171828  0.13762121  1
  H+  H237  1  0.15312757  0.54147346  0.17489553  1
  H+  H238  1  0.03663972  0.40095421  0.16763193  1
  H+  H239  1  0.28044151  0.36915799  0.82587800  1
  H+  H240  1  0.37967328  0.38288873  0.82758745  1
  H+  H241  1  0.46716420  1.10304013  0.45445115  1
  H+  H242  1  0.46353809  0.61583666  0.64193574  1
  H+  H243  1  0.87175396  0.85644227  0.65786395  1
  H+  H244  1  0.39231716  0.35447155  0.98652004  1
  H+  H245  1  0.39191975  0.35392414  0.50295812  1
  H+  H246  1  0.36538433  0.89655132  0.14887772  1
  H+  H247  1  0.36381181  0.22574756  0.33916131  1
  H+  H248  1  0.46381462  0.83907696  0.50703569  1
  H+  H249  1  -0.02607059  0.61164117  0.32689895  1
  H+  H250  1  0.98759419  0.61741331  0.99130548  1
  H+  H251  1  0.78435053  0.63528040  0.15628125  1
  H+  H252  1  0.13976706  0.28658380  0.49925174  1
  H+  H253  1  0.82364705  0.88486156  0.35585109  1
  H+  H254  1  0.87289283  0.72503579  0.14962102  1
  H+  H255  1  0.62897226  0.36079793  0.49962937  1
  H+  H256  1  0.18171677  0.43874938  0.68190573  1
  H+  H257  1  0.85197496  0.70973826  0.34928349  1
  H+  H258  1  0.58370535  0.93796362  0.46694811  1
  H+  H259  1  0.38863828  0.54971489  0.19959049  1
  H+  H260  1  0.84942345  0.46129348  0.48677783  1
  H+  H261  1  0.75375198  0.86920457  0.67435005  1
  H+  H262  1  0.38675080  0.11764798  0.84463424  1
  H+  H263  1  0.86479637  0.88544891  0.49775821  1
  H+  H264  1  0.87135953  0.09971114  1.00680325  1
  H+  H265  1  0.89072533  0.35578524  0.85820292  1
  H+  H266  1  0.95457045  0.10894420  0.17485285  1
  H+  H267  1  0.24714073  0.86483975  0.33659235  1
  H+  H268  1  0.34210160  0.41828929  0.73111986  1
  H+  H269  1  0.62168918  0.72375637  0.32145958  1
  H+  H270  1  0.89434937  0.16745761  0.69000447  1
  H+  H271  1  0.88649516  0.26400471  0.85895167  1
  H+  H272  1  0.77259212  0.41833465  0.19466439  1
  H+  H273  1  0.39496047  0.26586285  0.51805232  1
  H+  H274  1  0.14173495  0.78474163  0.16291482  1
  H+  H275  1  0.76914667  0.37747389  0.20649181  1
  H+  H276  1  0.35960243  0.34444289  0.15460917  1
  H+  H277  1  0.61072206  0.22764262  0.67074170  1
  H+  H278  1  0.99228394  0.38681646  0.54748929  1
  H+  H279  1  0.71754816  0.36461984  0.32562955  1
  H+  H280  1  0.72959268  0.60042902  0.32823174  1
  H+  H281  1  0.37899655  0.76839488  0.65961949  1
  H+  H282  1  0.24665276  0.64928754  0.83257866  1
  H+  H283  1  0.53736412  0.63507494  0.32887038  1
  H+  H284  1  0.35296159  0.23016890  0.67558703  1
  H+  H285  1  0.33865016  0.18062263  0.77653801  1
  H+  H286  1  0.14725305  0.88562702  0.35345590  1
  H+  H287  1  0.61229800  0.47102859  -0.00105612  1
  H+  H288  1  0.32289092  0.91287414  0.77069117  1
  H+  H289  1  0.43813687  0.06917816  0.92798274  1
  H+  H290  1  0.59467144  0.63202036  0.66356044  1
  H+  H291  1  0.67187992  0.57961618  0.89226272  1
  H+  H292  1  0.34424876  0.41051815  0.42928674  1
  H+  H293  1  0.68232427  0.58167792  0.23027358  1
  H+  H294  1  0.14642042  0.09070569  0.89849287  1
  H+  H295  1  0.36880417  0.13139119  0.50814288  1
  H+  H296  1  0.65793228  0.57973699  0.55895486  1
  H+  H297  1  0.42716495  0.60815216  0.28431003  1
  H+  H298  1  0.58140876  0.41850550  0.40296420  1
  H+  H299  1  0.22403162  0.35179997  0.16849461  1
  H+  H300  1  0.65828492  0.33094010  0.55871316  1
  H+  H301  1  0.12306631  0.72632856  0.00300427  1
  H+  H302  1  0.67964515  0.85006324  0.58118877  1
  H+  H303  1  0.40658343  0.82515808  0.60006813  1
  H+  H304  1  0.16614346  0.45919378  0.74786239  1
  H+  H305  1  0.03358761  0.80788668  0.04189665  1
  H+  H306  1  0.63552199  0.10341792  0.32158613  1
  H+  H307  1  0.61623858  0.14136316  0.67456046  1
  H+  H308  1  0.04556881  0.15576549  0.77416303  1
  H+  H309  1  0.86350299  0.04956123  0.91287059  1
  H+  H310  1  0.84012272  0.29139218  0.56686058  1
  H+  H311  1  0.62002024  0.17714456  0.11902366  1
  H+  H312  1  0.36828083  0.71300369  0.50655201  1
  H+  H313  1  0.33383476  0.91823898  0.06406297  1
  H+  H314  1  0.58370257  0.65813608  0.06830979  1
  H+  H315  1  0.90710333  0.83034787  0.93036348  1
  H+  H316  1  0.91115889  0.32496735  0.93860002  1
  H+  H317  1  0.14934906  0.36500273  0.84187865  1
  H+  H318  1  0.38895873  0.06943850  0.27387498  1
  H+  H319  1  0.64864179  0.33973295  0.87135009  1
  H+  H320  1  0.57851441  0.42286186  0.72135848  1
  H+  H321  1  0.83781244  0.17247478  0.78432701  1
  H+  H322  1  0.89082536  0.44699141  0.08771549  1
  H+  H323  1  0.43125950  0.33610532  0.92690629  1
  H+  H324  1  0.83290604  0.65741875  0.43810207  1
  H+  H325  1  0.63358584  0.32285697  0.27379803  1
  H+  H326  1  0.69212447  0.09601704  0.61374907  1
  H+  H327  1  0.69063335  0.10427817  0.16750869  1
  H+  H328  1  0.91225827  0.83743802  0.56210055  1
  H+  H329  1  0.07886235  0.16437999  0.44416032  1
  H+  H330  1  0.08149858  0.92166933  0.09199694  1
  H+  H331  1  0.82288480  0.92184931  0.44172351  1
  H+  H332  1  0.60318485  0.06454635  0.50942623  1
  H+  H333  1  0.09928905  0.92192652  0.44420445  1
  H+  H334  1  0.60852700  0.47393402  0.48905058  1
  H+  H335  1  0.17640403  0.34409894  0.55700744  1
  H+  H336  1  0.62405600  0.36167564  0.65419397  1
  H+  H337  1  0.33565997  0.90218556  0.43285172  1
  H+  H338  1  0.83421254  0.65923645  0.05778876  1
  H+  H339  1  0.93447194  0.35237620  0.64159682  1
  H+  H340  1  0.20652835  0.64079437  0.53394956  1
  H+  H341  1  0.64497098  0.60849596  0.31430597  1
  H+  H342  1  0.82953661  0.90692889  0.07193155  1
  H+  H343  1  0.82866851  0.44037877  0.72776670  1
  H+  H344  1  0.39459508  0.82842373  0.92817712  1
  H+  H345  1  0.29010360  0.67253415  0.73103778  1
  H+  H346  1  0.93883914  0.82473547  0.21783696  1
  H+  H347  1  0.09848810  0.44129470  0.39131924  1
  H+  H348  1  0.40848055  0.61626689  0.54841404  1
  H+  H349  1  0.31502568  0.16517893  0.05821020  1
  H+  H350  1  0.92055608  0.57550458  0.55958621  1
  H+  H351  1  0.88183578  0.37096387  -0.00204563  1
  H+  H352  1  0.10277197  0.13662778  0.00848757  1
  H+  H353  1  0.91664875  0.32262491  0.27282452  1
  H+  H354  1  0.67505069  0.32133926  0.95913689  1
  H+  H355  1  0.50976835  0.11826679  0.32837561  1
  H+  H356  1  0.38966798  0.37124813  0.32314123  1
  H+  H357  1  0.60896595  0.71869519  0.01061048  1
  H+  H358  1  0.84178754  0.95935249  0.67775313  1
  H+  H359  1  0.42609259  0.32430511  0.24078334  1
  H+  H360  1  0.09593888  0.67305705  0.09667064  1
  H+  H361  1  0.01771571  0.89963996  0.82836911  1
  H+  H362  1  0.33942811  0.66506343  0.06386686  1
  H+  H363  1  0.90649395  0.07730410  0.27381662  1
  H+  H364  1  0.88415476  0.77510936  0.65459177  1
  H+  H365  1  0.19214457  0.26654118  0.63300671  1
  H+  H366  1  0.07609541  0.93830648  0.76817867  1
  H+  H367  1  0.81340675  0.40339010  0.39482197  1
  H+  H368  1  0.57936940  0.16633308  0.76302917  1
  H+  H369  1  0.15856599  0.80878323  0.89981042  1
  H+  H370  1  0.15429693  0.83796046  0.60946656  1
  H+  H371  1  0.89233854  0.77454965  0.83939555  1
  H+  H372  1  0.81820606  0.15747200  0.41643585  1
  H+  H373  1  0.65987035  0.84011135  0.95039640  1
  H+  H374  1  0.16994274  0.34737845  0.25909225  1
  H+  H375  1  0.81892127  0.89802354  0.76862807  1
  H+  H376  1  0.07916124  0.67142138  0.39097493  1
  H+  H377  1  0.15308184  0.07430413  0.22884072  1
  H+  H378  1  0.34630255  0.67292855  0.41335127  1
  H+  H379  1  0.33242631  0.39588293  0.05956632  1
  H+  H380  1  0.89744399  0.61978289  0.65554757  1
  H+  H381  1  0.81887131  0.79225350  0.28643633  1
  H+  H382  1  0.97030630  0.13872501  0.61729536  1
  H+  H383  1  0.53543562  0.14076225  0.02632760  1
  O2-  O384  1  0.05902339  0.16177654  0.14896435  1
  O2-  O385  1  0.07798049  0.17452209  0.48829430  1
  O2-  O386  1  0.05962086  0.16373030  0.81789761  1
  O2-  O387  1  0.09504636  0.42784480  0.15100953  1
  O2-  O388  1  0.12608200  0.45388362  0.46636189  1
  O2-  O389  1  0.09915191  0.42256777  0.81965524  1
  O2-  O390  1  0.09492764  0.67698046  0.14219014  1
  O2-  O391  1  0.07214174  0.67066600  0.46775099  1
  O2-  O392  1  0.04660422  0.64017988  0.82447370  1
  O2-  O393  1  0.08140877  0.92573214  0.13695135  1
  O2-  O394  1  0.08545412  0.92251835  0.48882539  1
  O2-  O395  1  0.07714319  0.94041249  0.81353899  1
  O2-  O396  1  0.31252842  0.16271292  0.13871378  1
  O2-  O397  1  0.34416193  0.16578213  0.52513512  1
  O2-  O398  1  0.35057868  0.18145998  0.82077442  1
  O2-  O399  1  0.33492689  0.38032693  0.14220777  1
  O2-  O400  1  0.34486055  0.40406784  0.47382781  1
  O2-  O401  1  0.33949644  0.40378058  0.80926154  1
  O2-  O402  1  0.34782288  0.67588308  0.14194014  1
  O2-  O403  1  0.34917072  0.65300788  0.49097560  1
  O2-  O404  1  0.30263936  0.68923776  0.81103375  1
  O2-  O405  1  0.33148590  0.92221457  0.13425784  1
  O2-  O406  1  0.33476008  0.90097578  0.47846075  1
  O2-  O407  1  0.31870621  0.91390717  0.81624023  1
  O2-  O408  1  0.64559242  0.19241050  0.16076066  1
  O2-  O409  1  0.57069315  0.15132369  0.40629614  1
  O2-  O410  1  0.57847811  0.17026595  0.80887814  1
  O2-  O411  1  0.59248298  0.42673455  0.13888697  1
  O2-  O412  1  0.57940256  0.41433146  0.47166806  1
  O2-  O413  1  0.58688679  0.42674710  0.79654851  1
  O2-  O414  1  0.59301246  0.66838350  0.15432294  1
  O2-  O415  1  0.62092709  0.70006695  0.46582727  1
  O2-  O416  1  0.57346748  0.64881729  0.80046052  1
  O2-  O417  1  0.60751852  0.92228008  0.11003154  1
  O2-  O418  1  0.55418406  0.87498332  0.47052882  1
  O2-  O419  1  0.57542063  0.91870640  0.82534934  1
  O2-  O420  1  0.87130489  0.21540469  0.11391919  1
  O2-  O421  1  0.81041191  0.14879414  0.47203159  1
  O2-  O422  1  0.83047461  0.17174873  0.82928701  1
  O2-  O423  1  0.92599883  0.46741870  0.12530679  1
  O2-  O424  1  0.81370644  0.40267058  0.46971579  1
  O2-  O425  1  0.83511959  0.39695266  0.80939616  1
  O2-  O426  1  0.84362222  0.66349039  0.13741145  1
  O2-  O427  1  0.83508395  0.66024480  0.48390162  1
  O2-  O428  1  0.84479311  0.66791725  0.81183821  1
  O2-  O429  1  0.82822891  0.90693184  0.15315262  1
  O2-  O430  1  0.83240538  0.91890611  0.48786700  1
  O2-  O431  1  0.82052110  0.89506047  0.81366746  1
  O2-  O432  1  0.14973927  0.08167331  0.18389084  1
  O2-  O433  1  0.15778521  0.09495875  0.53059992  1
  O2-  O434  1  0.13791460  0.08696020  0.85303605  1
  O2-  O435  1  0.16593572  0.33191578  0.18516232  1
  O2-  O436  1  0.17543532  0.34777345  0.51204680  1
  O2-  O437  1  0.17167858  0.32661690  0.85454603  1
  O2-  O438  1  0.18347833  0.60302858  0.18661672  1
  O2-  O439  1  0.18438919  0.62309328  0.49272589  1
  O2-  O440  1  0.15395665  0.58274563  0.86395252  1
  O2-  O441  1  0.17609270  0.84617622  0.17378823  1
  O2-  O442  1  0.17541123  0.80477153  0.53862948  1
  O2-  O443  1  0.14780988  0.79363089  0.85581897  1
  O2-  O444  1  0.33729031  0.04805873  0.21128884  1
  O2-  O445  1  0.42698058  0.08203316  0.48890014  1
  O2-  O446  1  0.41236844  0.08029573  0.85522936  1
  O2-  O447  1  0.43458888  0.31220382  0.19648213  1
  O2-  O448  1  0.42730253  0.33118136  0.52240886  1
  O2-  O449  1  0.45173915  0.37711430  0.85942962  1
  O2-  O450  1  0.43148642  0.61045421  0.20070036  1
  O2-  O451  1  0.42337641  0.64314626  0.50664318  1
  O2-  O452  1  0.41101320  0.55177906  0.86130416  1
  O2-  O453  1  0.43710560  0.84800496  0.13103705  1
  O2-  O454  1  0.40475093  0.81381981  0.52579198  1
  O2-  O455  1  0.39875448  0.84243762  0.86545161  1
  O2-  O456  1  0.72406604  0.07876364  0.15192832  1
  O2-  O457  1  0.62827943  0.05684992  0.47230754  1
  O2-  O458  1  0.65696261  0.09107606  0.85662780  1
  O2-  O459  1  0.58454910  0.29442900  0.20888827  1
  O2-  O460  1  0.66197146  0.33304476  0.51383995  1
  O2-  O461  1  0.66682883  0.33146170  0.83152799  1
  O2-  O462  1  0.68370562  0.58922835  0.18467672  1
  O2-  O463  1  0.66253804  0.57673972  0.51402841  1
  O2-  O464  1  0.68164920  0.58447669  0.84753684  1
  O2-  O465  1  0.67157679  0.82204181  0.19483327  1
  O2-  O466  1  0.69735172  0.88370852  0.53999353  1
  O2-  O467  1  0.68146537  0.88493900  0.88192585  1
  O2-  O468  1  0.89597552  0.07170166  0.19312686  1
  O2-  O469  1  0.91623110  0.10169078  0.52871564  1
  O2-  O470  1  0.83316971  0.03515206  0.87311916  1
  O2-  O471  1  0.90217487  0.32804585  0.19135484  1
  O2-  O472  1  0.82700762  0.27814735  0.52326606  1
  O2-  O473  1  0.91916277  0.32552895  0.87584444  1
  O2-  O474  1  0.93862987  0.59694789  0.17391602  1
  O2-  O475  1  0.91291883  0.57037345  0.51489329  1
  O2-  O476  1  0.95708311  0.60351624  0.84649854  1
  O2-  O477  1  0.92661998  0.83278652  0.17598017  1
  O2-  O478  1  0.91328781  0.84055626  0.51649152  1
  O2-  O479  1  0.91662312  0.83369534  0.85597832  1
  O2-  O480  1  0.16713815  0.06247764  0.30445233  1
  O2-  O481  1  0.15279091  0.10372119  0.65453640  1
  O2-  O482  1  0.15763598  0.09243368  0.97361163  1
  O2-  O483  1  0.17109978  0.35788312  0.30434632  1
  O2-  O484  1  0.16707539  0.30370160  0.63424029  1
  O2-  O485  1  0.16201657  0.33043287  0.98098943  1
  O2-  O486  1  0.18385380  0.60566435  0.30967063  1
  O2-  O487  1  0.19071002  0.68565952  0.61718439  1
  O2-  O488  1  0.16602773  0.57708169  0.98501015  1
  O2-  O489  1  0.18580485  0.84361991  0.32619425  1
  O2-  O490  1  0.15503217  0.85122388  0.65348192  1
  O2-  O491  1  0.17351595  0.82827635  0.97502160  1
  O2-  O492  1  0.41162063  0.07901343  0.31717133  1
  O2-  O493  1  0.39979275  0.08735272  0.67061448  1
  O2-  O494  1  0.45444438  0.05594664  0.96874774  1
  O2-  O495  1  0.41872737  0.33835335  0.31061779  1
  O2-  O496  1  0.41684622  0.33399805  0.64291987  1
  O2-  O497  1  0.42462267  0.32591288  0.97300496  1
  O2-  O498  1  0.42373121  0.59472734  0.32807280  1
  O2-  O499  1  0.40675568  0.58537602  0.62157866  1
  O2-  O500  1  0.41350744  0.57324576  0.98414131  1
  O2-  O501  1  0.46448785  0.85472682  0.32403389  1
  O2-  O502  1  0.40748383  0.82853484  0.64598674  1
  O2-  O503  1  0.39396804  0.82100768  0.97700118  1
  O2-  O504  1  0.67369177  0.07777301  0.31587858  1
  O2-  O505  1  0.68187112  0.08933778  0.65737105  1
  O2-  O506  1  0.61146929  0.05515152  0.97471159  1
  O2-  O507  1  0.65326766  0.33971372  0.31754290  1
  O2-  O508  1  0.65544127  0.33066316  0.64222248  1
  O2-  O509  1  0.67756159  0.33817934  1.00143900  1
  O2-  O510  1  0.67299835  0.57223328  0.30657049  1
  O2-  O511  1  0.65079910  0.58324374  0.63824944  1
  O2-  O512  1  0.66277411  0.57474787  0.97371072  1
  O2-  O513  1  0.65314247  0.83679491  0.30764923  1
  O2-  O514  1  0.66132117  0.82368130  0.64687851  1
  O2-  O515  1  0.65709362  0.82510755  0.99481936  1
  O2-  O516  1  0.91341739  0.08125752  0.31897290  1
  O2-  O517  1  0.99493524  0.17153240  0.65551716  1
  O2-  O518  1  0.90251231  0.07338783  0.98922237  1
  O2-  O519  1  0.91275640  0.32267823  0.31796756  1
  O2-  O520  1  0.87205392  0.31962846  0.64627251  1
  O2-  O521  1  0.90824756  0.33038254  0.98850711  1
  O2-  O522  1  0.91133510  0.58295301  0.31737357  1
  O2-  O523  1  0.93109355  0.59302985  0.64127359  1
  O2-  O524  1  0.92861621  0.58772687  0.97243158  1
  O2-  O525  1  0.85180676  0.81345139  0.32405867  1
  O2-  O526  1  0.90825855  0.83393167  0.63975778  1
  O2-  O527  1  0.90522216  0.82765391  0.97640692  1
  O2-  O528  1  0.07232388  0.16580426  0.02568292  1
  O2-  O529  1  0.08834702  0.14514926  0.36515024  1
  O2-  O530  1  0.01220167  0.11338614  0.69324694  1
  O2-  O531  1  0.08440725  0.41198224  0.02843975  1
  O2-  O532  1  0.08528200  0.43733227  0.34675776  1
  O2-  O533  1  0.20865119  0.48033007  0.71459449  1
  O2-  O534  1  0.08867465  0.66667790  0.02007525  1
  O2-  O535  1  0.08235841  0.67262783  0.34544086  1
  O2-  O536  1  0.07630435  0.68928966  0.70618434  1
  O2-  O537  1  0.05449670  0.86364193  0.02240159  1
  O2-  O538  1  0.11180552  0.91612085  0.36987862  1
  O2-  O539  1  0.07561429  0.93694670  0.68911212  1
  O2-  O540  1  0.31105090  0.16166906  0.01310446  1
  O2-  O541  1  0.33658498  0.16571596  0.35339102  1
  O2-  O542  1  0.31605371  0.17305511  0.69501112  1
  O2-  O543  1  0.33093637  0.40266416  0.01511544  1
  O2-  O544  1  0.34099802  0.42499072  0.34783161  1
  O2-  O545  1  0.34031135  0.42164377  0.68573969  1
  O2-  O546  1  0.33540181  0.66337896  0.01826297  1
  O2-  O547  1  0.34545652  0.67946188  0.36810444  1
  O2-  O548  1  0.29069755  0.65730260  0.68783531  1
  O2-  O549  1  0.33503646  0.91130316  0.01757265  1
  O2-  O550  1  0.35255712  0.91854667  0.35758616  1
  O2-  O551  1  0.32492986  0.90990148  0.69380032  1
  O2-  O552  1  0.59379688  0.17186574  0.04394776  1
  O2-  O553  1  0.57362689  0.14457460  0.33993219  1
  O2-  O554  1  0.58365819  0.16878546  0.68891836  1
  O2-  O555  1  0.58508299  0.41130998  0.01620514  1
  O2-  O556  1  0.58271981  0.41734377  0.35577468  1
  O2-  O557  1  0.57934719  0.42139686  0.67562963  1
  O2-  O558  1  0.58090378  0.65667679  0.02337300  1
  O2-  O559  1  0.59712771  0.66205326  0.31356284  1
  O2-  O560  1  0.56664021  0.66402471  0.67927478  1
  O2-  O561  1  0.59348096  0.91960344  0.04415242  1
  O2-  O562  1  0.54764796  0.89585520  0.33303492  1
  O2-  O563  1  0.58116331  0.90489845  0.66657554  1
  O2-  O564  1  0.84025154  0.24386075  0.00790764  1
  O2-  O565  1  0.82111065  0.16092715  0.36184791  1
  O2-  O566  1  0.84594563  0.17449520  0.70435062  1
  O2-  O567  1  0.84947687  0.42786175  0.01493904  1
  O2-  O568  1  0.81387043  0.40440602  0.34868564  1
  O2-  O569  1  0.82709415  0.43523228  0.68321711  1
  O2-  O570  1  0.83113290  0.65988485  0.01250260  1
  O2-  O571  1  0.82776324  0.65036378  0.36326839  1
  O2-  O572  1  0.81481313  0.63002278  0.69427704  1
  O2-  O573  1  0.82765851  0.91015277  0.02691437  1
  O2-  O574  1  0.80756673  0.92606307  0.37307137  1
  O2-  O575  1  0.81657959  0.89904160  0.68881253  1
