# generated using pymatgen
data_H2O
_symmetry_space_group_name_H-M   'P 1'
_cell_length_a   17.99438788
_cell_length_b   17.99210975
_cell_length_c   22.01171988
_cell_angle_alpha   90.03670842
_cell_angle_beta   89.98554923
_cell_angle_gamma   120.00330464
_symmetry_Int_Tables_number   1
_chemical_formula_structural   H2O
_chemical_formula_sum   'H384 O192'
_cell_volume   6171.47856696
_cell_formula_units_Z   192
loop_
 _symmetry_equiv_pos_site_id
 _symmetry_equiv_pos_as_xyz
  1  'x, y, z'
loop_
 _atom_type_symbol
 _atom_type_oxidation_number
  H+  1.0
  O2-  -2.0
loop_
 _atom_site_type_symbol
 _atom_site_label
 _atom_site_symmetry_multiplicity
 _atom_site_fract_x
 _atom_site_fract_y
 _atom_site_fract_z
 _atom_site_occupancy
  H+  H0  1  0.72616087  0.61918965  0.64826688  1
  H+  H1  1  0.88309849  0.32395617  0.17738251  1
  H+  H2  1  0.38026175  0.51576814  0.17272197  1
  H+  H3  1  0.87811247  0.35268797  0.99147203  1
  H+  H4  1  0.98482487  0.38840632  0.84515936  1
  H+  H5  1  0.88943648  0.11327286  0.50990966  1
  H+  H6  1  0.17555381  0.33272632  0.93016811  1
  H+  H7  1  0.94655293  0.09272846  0.17455246  1
  H+  H8  1  0.52707439  0.14008472  0.82585093  1
  H+  H9  1  0.76863155  0.38990408  -0.00952409  1
  H+  H10  1  0.61187506  0.86033383  0.18136946  1
  H+  H11  1  0.90156201  0.55141823  0.44857882  1
  H+  H12  1  0.60339666  0.88434738  0.48973027  1
  H+  H13  1  0.35977552  -0.02379949  0.34108339  1
  H+  H14  1  0.89667955  0.44452623  0.13900544  1
  H+  H15  1  0.40243310  0.82832697  0.23292229  1
  H+  H16  1  0.63816024  0.02265784  0.98748205  1
  H+  H17  1  0.09865242  0.59194592  0.49285166  1
  H+  H18  1  0.17789351  0.16746906  0.14885575  1
  H+  H19  1  0.59383702  0.91291814  0.07492992  1
  H+  H20  1  0.85331312  0.69195607  0.79640353  1
  H+  H21  1  0.64623177  0.43185821  0.68080066  1
  H+  H22  1  0.66509458  0.58439892  0.89417541  1
  H+  H23  1  0.50888751  0.11409744  0.67233183  1
  H+  H24  1  0.12604655  0.90615464  0.16071346  1
  H+  H25  1  0.37981999  0.26642754  0.18196061  1
  H+  H26  1  0.61799870  0.50004196  0.67233196  1
  H+  H27  1  0.09389527  0.76060019  0.50268466  1
  H+  H28  1  0.87415504  0.73266561  -0.00476718  1
  H+  H29  1  0.35511159  -0.01618433  0.16733920  1
  H+  H30  1  0.87782283  0.85900251  0.49401337  1
  H+  H31  1  0.13367590  0.32406141  0.26312141  1
  H+  H32  1  0.55285572  0.17305224  0.13959495  1
  H+  H33  1  0.37661255  0.44690506  0.74445466  1
  H+  H34  1  0.23194447  0.37429633  0.17522097  1
  H+  H35  1  0.21657687  0.11544128  0.23199897  1
  H+  H36  1  0.60102104  0.31086636  0.66521398  1
  H+  H37  1  0.35662094  0.13408068  -0.00233769  1
  H+  H38  1  0.22017107  0.87409062  0.83615456  1
  H+  H39  1  0.37358160  0.77168459  0.17204998  1
  H+  H40  1  0.88956647  0.11436710  -0.00473807  1
  H+  H41  1  0.26329362  0.63771184  0.16372364  1
  H+  H42  1  0.52865900  0.81829595  0.69566188  1
  H+  H43  1  0.08257591  0.13820779  0.15590337  1
  H+  H44  1  0.59376174  -0.03063847  0.65624315  1
  H+  H45  1  0.85249874  -0.03268858  0.33614164  1
  H+  H46  1  0.46285989  0.86336275  0.66759238  1
  H+  H47  1  0.98080039  0.11666725  0.99189376  1
  H+  H48  1  0.13647963  0.88113433  0.83582532  1
  H+  H49  1  0.64950369  0.61637697  0.82847951  1
  H+  H50  1  0.48975124  0.84521791  0.84005528  1
  H+  H51  1  0.35757844  0.22401824  1.00072315  1
  H+  H52  1  0.62445185  0.53477371  0.14684119  1
  H+  H53  1  0.35626539  0.90034684  0.82111578  1
  H+  H54  1  0.71690413  0.85417865  0.32286579  1
  H+  H55  1  0.62312817  0.23758264  0.66269199  1
  H+  H56  1  0.35779765  0.73071111  0.00918033  1
  H+  H57  1  0.36866595  0.14363400  0.33709839  1
  H+  H58  1  0.48906408  0.36180767  0.32958089  1
  H+  H59  1  0.89646067  0.11659511  0.65963147  1
  H+  H60  1  0.77757718  0.39968007  0.82876991  1
  H+  H61  1  0.86796316  0.88823874  0.00311256  1
  H+  H62  1  0.86175384  0.47713954  0.52898161  1
  H+  H63  1  0.12643262  0.12738291  0.82298589  1
  H+  H64  1  0.26991953  0.89206509  0.49098602  1
  H+  H65  1  0.13839149  0.61926773  0.84463086  1
  H+  H66  1  1.02935892  0.38255054  0.15643750  1
  H+  H67  1  0.65605366  0.79322947  0.67524297  1
  H+  H68  1  0.14648033  0.12724913  0.32034313  1
  H+  H69  1  0.34906941  0.18130483  0.43123219  1
  H+  H70  1  0.83905710  0.40403044  0.36304939  1
  H+  H71  1  0.60751890  0.62508604  0.33933336  1
  H+  H72  1  0.61796366  0.88677216  0.82089281  1
  H+  H73  1  -0.03614673  0.61852836  0.49531304  1
  H+  H74  1  0.28104062  0.64035214  0.68443483  1
  H+  H75  1  0.63747510  0.73849783  0.79798369  1
  H+  H76  1  0.61974181  0.41382884  0.15184012  1
  H+  H77  1  0.60220602  0.11893884  0.34345396  1
  H+  H78  1  0.50941162  0.87365253  0.48794714  1
  H+  H79  1  0.63517515  0.36408576  0.83011121  1
  H+  H80  1  0.36209737  0.89389721  0.00529940  1
  H+  H81  1  0.86943988  0.89216611  0.66986683  1
  H+  H82  1  0.29073501  0.63490581  0.50067121  1
  H+  H83  1  0.81811622  0.16857019  0.35276405  1
  H+  H84  1  0.85355863  0.87910646  0.33520558  1
  H+  H85  1  0.03190479  0.66256401  0.15625870  1
  H+  H86  1  0.59562096  -0.03778483  0.16700699  1
  H+  H87  1  0.63289673  0.36343485  0.32744710  1
  H+  H88  1  0.14187701  0.12090588  0.98935312  1
  H+  H89  1  0.36457531  0.46758057  0.00812860  1
  H+  H90  1  0.78227362  0.37480231  0.30539576  1
  H+  H91  1  0.82027821  0.14910915  0.09846361  1
  H+  H92  1  0.77613126  0.65669897  0.14283247  1
  H+  H93  1  0.78040717  0.64556831  0.84919420  1
  H+  H94  1  0.61854018  0.13830210  0.98688533  1
  H+  H95  1  0.38884612  0.11562951  0.50439470  1
  H+  H96  1  0.76747335  0.38141907  0.53521872  1
  H+  H97  1  0.88493013  0.52259252  0.65782363  1
  H+  H98  1  0.68900794  0.06198629  0.33174899  1
  H+  H99  1  0.22592489  0.87186224  0.32724986  1
  H+  H100  1  0.13568233  0.62241160  0.16699424  1
  H+  H101  1  0.63104743  0.01449111  0.83255554  1
  H+  H102  1  0.36336328  0.38683692  0.16335743  1
  H+  H103  1  0.84193163  0.10885409  0.15812191  1
  H+  H104  1  0.60394969  0.71159539  0.33521872  1
  H+  H105  1  0.11364895  0.65414996  0.27181253  1
  H+  H106  1  0.15989270  0.27551989  0.83844172  1
  H+  H107  1  0.35679063  0.88449569  0.33815051  1
  H+  H108  1  0.14139919  0.53157952  0.84608274  1
  H+  H109  1  0.88134299  0.62267486  0.85155233  1
  H+  H110  1  0.62669819  0.09549816  0.17300239  1
  H+  H111  1  0.88531925  1.02198313  0.84009055  1
  H+  H112  1  0.11405282  0.89862977  0.34088507  1
  H+  H113  1  0.40218147  0.37740478  0.66498297  1
  H+  H114  1  0.96433753  0.34554746  0.99343284  1
  H+  H115  1  0.23076303  0.87712673  0.17042565  1
  H+  H116  1  0.58952243  0.09767294  0.67046342  1
  H+  H117  1  0.36097836  0.23469059  0.67616906  1
  H+  H118  1  0.21557252  0.59365369  0.36003182  1
  H+  H119  1  0.10875862  -0.02414142  0.66548962  1
  H+  H120  1  0.76645953  0.37629573  0.68183133  1
  H+  H121  1  1.02843738  0.39786432  0.68378078  1
  H+  H122  1  0.88782726  0.77704493  0.63951525  1
  H+  H123  1  0.12387516  0.74601072  0.15606245  1
  H+  H124  1  0.52298381  0.13537046  0.49983206  1
  H+  H125  1  0.22663588  0.88285784  0.99037296  1
  H+  H126  1  0.12496841  0.89914885  0.50334717  1
  H+  H127  1  0.46707525  0.59333079  0.19868541  1
  H+  H128  1  0.47767115  0.11775887  0.98627028  1
  H+  H129  1  0.11058229  0.26660667  0.49391131  1
  H+  H130  1  0.15039629  0.04107298  0.32391968  1
  H+  H131  1  0.35710613  0.37640904  1.01266004  1
  H+  H132  1  0.38838867  1.03519001  0.83487490  1
  H+  H133  1  0.89897161  0.56077731  0.16109841  1
  H+  H134  1  0.37980622  0.27061737  0.83995884  1
  H+  H135  1  0.50266471  0.87378972  0.16433354  1
  H+  H136  1  0.98536432  0.87460691  0.99897641  1
  H+  H137  1  0.86565664  0.65766901  0.15212204  1
  H+  H138  1  0.35335496  0.63255591  0.34543271  1
  H+  H139  1  0.97568585  0.10439178  0.32285610  1
  H+  H140  1  0.71630056  0.09668197  0.17413904  1
  H+  H141  1  0.40465009  0.68406971  0.83416217  1
  H+  H142  1  0.67247665  0.32450100  0.16808780  1
  H+  H143  1  0.88922401  0.52894812  0.31048164  1
  H+  H144  1  1.17377565  0.34996962  0.32801182  1
  H+  H145  1  0.86451513  -0.00210481  0.17040342  1
  H+  H146  1  0.34775379  -0.02095729  0.67156905  1
  H+  H147  1  0.43466512  0.60843613  0.57323079  1
  H+  H148  1  0.80103168  0.42739292  0.15254593  1
  H+  H149  1  0.36505042  0.76216532  0.32597686  1
  H+  H150  1  0.64326706  0.87368975  0.67354177  1
  H+  H151  1  0.39766959  0.63065684  0.65942494  1
  H+  H152  1  0.60414331  0.62602698  0.49132671  1
  H+  H153  1  0.61133512  0.47581051  0.82798898  1
  H+  H154  1  0.45896111  0.59792930  0.32954564  1
  H+  H155  1  0.48495108  0.36922866  0.66027872  1
  H+  H156  1  0.22697864  0.36003035  0.99386816  1
  H+  H157  1  0.58143777  0.15695443  0.76531724  1
  H+  H158  1  0.45773221  0.84326464  0.32557365  1
  H+  H159  1  0.32502261  0.17090911  0.73396503  1
  H+  H160  1  0.40757791  0.83624078  0.57046856  1
  H+  H161  1  0.18125969  0.57818925  0.61221202  1
  H+  H162  1  0.88978440  0.36993063  0.67083813  1
  H+  H163  1  0.83550675  0.66961201  0.40066302  1
  H+  H164  1  0.63510093  0.10679026  0.83426984  1
  H+  H165  1  0.86458434  0.97578903  0.48900693  1
  H+  H166  1  0.52341615  0.66360772  0.12395194  1
  H+  H167  1  0.38833995  0.02840434  0.99092604  1
  H+  H168  1  0.63158858  0.65205808  0.69662642  1
  H+  H169  1  0.88380983  0.52235908  0.98518956  1
  H+  H170  1  0.47482354  0.86505070  0.99288096  1
  H+  H171  1  0.24176029  0.37122856  0.84119047  1
  H+  H172  1  0.35875592  0.13780072  0.82530790  1
  H+  H173  1  0.12094578  0.36572931  0.65815064  1
  H+  H174  1  0.49717558  0.63037113  0.50453728  1
  H+  H175  1  1.02692392  0.13138545  0.67720734  1
  H+  H176  1  0.88664598  0.27929734  0.51772080  1
  H+  H177  1  0.13289026  0.53245452  0.17101458  1
  H+  H178  1  0.38686547  0.79299255  0.83324009  1
  H+  H179  1  0.47076501  0.35527473  0.16964985  1
  H+  H180  1  0.86638466  0.88729910  0.15625559  1
  H+  H181  1  0.36374770  0.73304522  0.68028080  1
  H+  H182  1  0.06118726  0.93942465  0.52204235  1
  H+  H183  1  0.38121456  0.11996001  0.66201530  1
  H+  H184  1  0.23231292  0.11328461  0.65036160  1
  H+  H185  1  0.15093818  0.28411649  0.16585166  1
  H+  H186  1  0.02872389  0.62891111  0.00563022  1
  H+  H187  1  0.35993859  0.89567817  0.16133284  1
  H+  H188  1  0.62081229  0.84562845  0.32760954  1
  H+  H189  1  0.08935111  0.66559794  0.06430550  1
  H+  H190  1  0.88273667  0.23707611  0.17230252  1
  H+  H191  1  0.92241071  0.27881155  0.32901746  1
  H+  H192  1  1.01621032  0.13200624  0.48539955  1
  H+  H193  1  0.39158725  0.27902096  0.50786819  1
  H+  H194  1  0.13941199  1.02673803  -0.00343011  1
  H+  H195  1  0.14289241  0.61576364  0.66338027  1
  H+  H196  1  0.56031573  0.88285567  0.39939371  1
  H+  H197  1  0.09359067  0.94727092  0.76456646  1
  H+  H198  1  0.11062671  0.72319395  0.67064609  1
  H+  H199  1  0.12046812  0.22960040  -0.00444696  1
  H+  H200  1  -0.01315015  0.87863471  0.17316317  1
  H+  H201  1  0.33949769  0.11459389  0.18820182  1
  H+  H202  1  0.89112806  0.61728384  0.98819990  1
  H+  H203  1  0.82625691  0.91401831  0.43031750  1
  H+  H204  1  0.03202194  0.63910833  0.30883510  1
  H+  H205  1  0.68531819  0.95903083  0.04776815  1
  H+  H206  1  0.39176519  0.26371281  0.32742320  1
  H+  H207  1  0.10437340  0.22412360  0.67592855  1
  H+  H208  1  0.09870104  0.36686570  1.00045288  1
  H+  H209  1  1.09410297  0.22144548  0.32605279  1
  H+  H210  1  0.85076221  0.72059851  0.49100113  1
  H+  H211  1  0.90537248  0.36030885  0.30953559  1
  H+  H212  1  0.58311763  0.93881319  0.33738720  1
  H+  H213  1  0.24056638  0.12212853  -0.00684366  1
  H+  H214  1  0.89235892  0.14585569  0.34354284  1
  H+  H215  1  0.30982225  0.42315055  0.69379200  1
  H+  H216  1  0.09432804  0.47168544  0.39955173  1
  H+  H217  1  0.37830096  0.86366872  0.50903797  1
  H+  H218  1  0.01684818  0.89086446  0.66847632  1
  H+  H219  1  0.36629439  0.73545627  0.50011202  1
  H+  H220  1  0.64056758  0.26902477  0.50961955  1
  H+  H221  1  0.48091174  0.59263284  -0.02087102  1
  H+  H222  1  0.12126002  0.90510571  0.00456177  1
  H+  H223  1  0.09113516  0.37748285  0.48653696  1
  H+  H224  1  0.63871971  0.27734357  0.98004869  1
  H+  H225  1  0.64605665  0.85818793  0.98002747  1
  H+  H226  1  0.13900281  0.61494421  0.99559834  1
  H+  H227  1  0.64703668  0.12076141  0.50983778  1
  H+  H228  1  0.13897348  0.78379919  0.31599948  1
  H+  H229  1  0.73586675  0.86205126  0.97930691  1
  H+  H230  1  0.84817881  0.62936302  0.48892710  1
  H+  H231  1  0.28277287  0.15332263  0.33695857  1
  H+  H232  1  0.12164949  0.39493866  0.15518427  1
  H+  H233  1  0.12123173  0.39179599  0.83464780  1
  H+  H234  1  0.15662497  0.50642072  0.51266441  1
  H+  H235  1  0.34620369  0.38132982  0.49517010  1
  H+  H236  1  0.86697624  0.72945658  0.33994055  1
  H+  H237  1  0.87180339  0.11324083  0.84116162  1
  H+  H238  1  0.73743431  0.61298694  0.33932672  1
  H+  H239  1  0.73379755  0.61355502  -0.01591267  1
  H+  H240  1  0.44161359  0.11280075  0.19028279  1
  H+  H241  1  0.87852871  0.52354957  0.84100660  1
  H+  H242  1  -0.02547881  0.60850617  0.65601158  1
  H+  H243  1  0.14839668  0.04170915  0.48733164  1
  H+  H244  1  0.40525668  0.63943845  0.50849345  1
  H+  H245  1  0.47418332  0.36062268  -0.00622733  1
  H+  H246  1  0.91292597  0.80162730  0.84988834  1
  H+  H247  1  0.65339937  0.31490302  0.57371273  1
  H+  H248  1  0.73840209  0.87032540  0.82593608  1
  H+  H249  1  0.28273373  0.14912365  0.48563414  1
  H+  H250  1  0.78396551  0.14857862  0.50185996  1
  H+  H251  1  0.09632528  0.60151691  0.52579088  1
  H+  H252  1  0.31796711  0.45552620  0.34224764  1
  H+  H253  1  0.11211984  0.73750365  0.82542258  1
  H+  H254  1  0.19841312  0.35248288  0.63699613  1
  H+  H255  1  0.71440050  0.60698900  0.50632033  1
  H+  H256  1  0.86609095  0.38390960  0.53759652  1
  H+  H257  1  0.89135680  0.02490196  0.66018677  1
  H+  H258  1  0.37419759  0.86622862  0.66396648  1
  H+  H259  1  1.02680782  0.64700612  0.82711168  1
  H+  H260  1  0.76928142  0.12430608  0.82826535  1
  H+  H261  1  0.62238194  0.72546570  -0.02093770  1
  H+  H262  1  0.11110903  0.14505190  0.48088103  1
  H+  H263  1  -0.02367180  0.86825704  0.32764227  1
  H+  H264  1  0.61785715  0.47083448  0.35254883  1
  H+  H265  1  0.12313917  0.85782148  0.66259497  1
  H+  H266  1  0.62207399  0.21527721  0.34734254  1
  H+  H267  1  0.79802787  0.16358308  0.68030665  1
  H+  H268  1  0.62822827  0.77816039  0.17211695  1
  H+  H269  1  0.64008858  0.27668396  0.82954927  1
  H+  H270  1  0.52056778  0.38102114  0.49807254  1
  H+  H271  1  0.62854161  0.51574741  0.50875583  1
  H+  H272  1  0.91657092  0.34738381  0.89893802  1
  H+  H273  1  0.68515624  0.04642146  0.65975266  1
  H+  H274  1  0.61254917  0.38759185  0.99875705  1
  H+  H275  1  0.23515940  0.51165271  0.54672554  1
  H+  H276  1  0.96292966  0.85110143  0.48970710  1
  H+  H277  1  0.41464958  0.55155422  0.66003677  1
  H+  H278  1  0.61017797  0.37947411  0.50001463  1
  H+  H279  1  0.60657526  0.65335257  0.13393648  1
  H+  H280  1  0.40163011  0.55980461  0.82799787  1
  H+  H281  1  0.46773161  0.11056806  0.32827421  1
  H+  H282  1  0.35273816  0.63771550  0.16291589  1
  H+  H283  1  0.72698832  0.87859159  0.51136892  1
  H+  H284  1  0.87950163  0.90325352  0.82785486  1
  H+  H285  1  0.76984660  0.12918877  1.00232202  1
  H+  H286  1  0.25862316  0.88770987  0.67254544  1
  H+  H287  1  0.23888952  0.62479202  -0.00553204  1
  H+  H288  1  0.65112499  0.58881956  0.60108578  1
  H+  H289  1  0.33504495  0.92631894  0.06510534  1
  H+  H290  1  0.58183110  0.40384014  0.40812971  1
  H+  H291  1  0.90372176  0.07189560  0.26938333  1
  H+  H292  1  0.84189463  0.16622262  0.77560769  1
  H+  H293  1  0.33094874  0.91676721  0.43253068  1
  H+  H294  1  0.88742670  0.24579394  0.68390803  1
  H+  H295  1  0.10159956  0.17336004  0.05574677  1
  H+  H296  1  0.58012129  0.42302933  0.76703428  1
  H+  H297  1  0.91734428  0.84425779  0.58752612  1
  H+  H298  1  0.41873382  0.09113148  0.89566478  1
  H+  H299  1  0.69057645  0.37702800  0.22784303  1
  H+  H300  1  0.08453360  0.66697338  0.73082803  1
  H+  H301  1  0.61537405  0.47787443  -0.00143683  1
  H+  H302  1  0.36588549  0.64586155  0.76970026  1
  H+  H303  1  0.60239527  0.28495887  0.28285168  1
  H+  H304  1  0.85524219  0.18408365  0.44763613  1
  H+  H305  1  0.85110852  0.92994104  0.76541819  1
  H+  H306  1  0.09452079  0.93650614  0.06663675  1
  H+  H307  1  0.40754587  0.08613775  0.60174537  1
  H+  H308  1  0.21666088  0.92854015  0.54610976  1
  H+  H309  1  0.91240536  0.08237534  0.90401361  1
  H+  H310  1  0.86190502  0.70524623  0.74633375  1
  H+  H311  1  0.07622491  0.16382281  0.38640318  1
  H+  H312  1  0.66496009  0.06969243  0.56093037  1
  H+  H313  1  0.41896355  0.53768223  0.92588676  1
  H+  H314  1  0.12095565  0.48395705  0.68280330  1
  H+  H315  1  0.67466478  0.85841180  0.57297962  1
  H+  H316  1  0.57041278  0.90134951  0.76346205  1
  H+  H317  1  0.42145949  0.82737067  0.93280123  1
  H+  H318  1  0.16528533  0.85503035  0.93228836  1
  H+  H319  1  0.64482214  0.61471791  0.98419940  1
  H+  H320  1  0.66523309  0.33826660  0.92172374  1
  H+  H321  1  0.67858147  0.56290225  0.28409038  1
  H+  H322  1  0.25449266  0.37394205  0.49639807  1
  H+  H323  1  0.59505412  0.68098593  0.04268118  1
  H+  H324  1  0.22038807  0.03713101  0.61205438  1
  H+  H325  1  0.47395647  0.35604746  0.83979034  1
  H+  H326  1  0.86392375  0.63264434  0.64225241  1
  H+  H327  1  0.88912484  0.61745018  0.32489558  1
  H+  H328  1  0.08903603  0.70644866  0.44641968  1
  H+  H329  1  0.14105651  1.00069070  0.16023276  1
  H+  H330  1  0.09275123  0.42239995  0.77624321  1
  H+  H331  1  0.12755638  0.32055548  0.55627249  1
  H+  H332  1  0.17138253  0.85010568  0.23041943  1
  H+  H333  1  0.42942958  0.33353827  0.26438294  1
  H+  H334  1  0.17675207  0.09596996  0.54789380  1
  H+  H335  1  0.17424452  0.59284978  0.92906475  1
  H+  H336  1  0.64977886  0.82590329  0.24557688  1
  H+  H337  1  0.39311526  0.57183190  0.27459249  1
  H+  H338  1  0.93541411  0.31544810  0.25645036  1
  H+  H339  1  0.83064181  0.35699542  0.43320479  1
  H+  H340  1  0.92041911  0.07863555  0.56484404  1
  H+  H341  1  0.39851062  0.07741086  0.27063099  1
  H+  H342  1  0.50384093  0.07709084  0.12012934  1
  H+  H343  1  0.86533931  0.97600710  0.00234712  1
  H+  H344  1  0.91986216  0.83558086  0.26720531  1
  H+  H345  1  0.41349703  0.33071034  0.93553910  1
  H+  H346  1  0.32372874  0.92589778  0.76170938  1
  H+  H347  1  0.58086224  0.16085747  0.44015864  1
  H+  H348  1  0.85624689  0.21922731  0.00744027  1
  H+  H349  1  0.12926772  0.59516237  0.35193823  1
  H+  H350  1  0.92020215  0.60906540  0.22540636  1
  H+  H351  1  0.08370288  0.93040661  0.39848725  1
  H+  H352  1  0.33679847  0.67288460  0.40487086  1
  H+  H353  1  0.15557428  0.83613722  0.60113706  1
  H+  H354  1  0.93339595  0.85247880  0.93693667  1
  H+  H355  1  0.29010642  0.39817808  0.40025785  1
  H+  H356  1  0.26170052  0.11724183  0.81955697  1
  H+  H357  1  0.38246968  0.39795063  0.83545574  1
  H+  H358  1  0.57185572  0.65327077  0.43120410  1
  H+  H359  1  0.83338938  0.40050419  0.43370195  1
  H+  H360  1  0.10151136  0.17002299  0.77032252  1
  H+  H361  1  0.91623824  0.58405355  0.90909031  1
  H+  H362  1  0.78353506  0.89816244  0.67850135  1
  H+  H363  1  0.67453158  0.83028572  0.88143235  1
  H+  H364  1  0.32411955  0.67016311  0.06772014  1
  H+  H365  1  0.64661189  0.05851413  0.26771870  1
  H+  H366  1  0.99818141  0.89497975  0.84274463  1
  H+  H367  1  0.84166974  0.67511699  0.05397619  1
  H+  H368  1  0.59355343  0.16700872  0.04720007  1
  H+  H369  1  0.57934354  0.42266872  0.08943467  1
  H+  H370  1  0.83025448  0.42065311  0.73787022  1
  H+  H371  1  0.87314121  0.40824784  0.83294326  1
  H+  H372  1  0.38487941  0.02415604  0.50578435  1
  H+  H373  1  0.97262672  0.37323215  0.51324730  1
  H+  H374  1  0.84521620  0.68215956  0.69671700  1
  H+  H375  1  0.33499113  0.41560490  0.10177681  1
  H+  H376  1  0.41962701  0.33890019  0.56730994  1
  H+  H377  1  0.89861593  0.78872155  0.16673656  1
  H+  H378  1  0.82914405  0.42767414  0.04949454  1
  H+  H379  1  0.92500841  0.34288586  0.61264365  1
  H+  H380  1  0.83350846  0.91331012  0.09624733  1
  H+  H381  1  0.07341619  0.40158753  0.05889845  1
  H+  H382  1  0.66481130  0.07487680  0.92388882  1
  H+  H383  1  0.65065398  0.60391920  0.19947441  1
  O2-  O384  1  0.13341409  0.18200323  0.13509087  1
  O2-  O385  1  0.07412438  0.16793793  0.46616726  1
  O2-  O386  1  0.11339814  0.17374016  0.81485694  1
  O2-  O387  1  0.08722074  0.42163673  0.14100885  1
  O2-  O388  1  0.06743998  0.41889854  0.48140451  1
  O2-  O389  1  0.09251343  0.42400569  0.82145184  1
  O2-  O390  1  0.09175902  0.68473593  0.14214603  1
  O2-  O391  1  0.05355563  0.71187172  0.47750227  1
  O2-  O392  1  0.08591697  0.67643564  0.81143041  1
  O2-  O393  1  0.10000704  0.94154606  0.14684776  1
  O2-  O394  1  0.08330448  0.92734837  0.48501649  1
  O2-  O395  1  0.09841547  0.94869422  0.81008276  1
  O2-  O396  1  0.31528996  0.15784879  0.17394019  1
  O2-  O397  1  0.34560272  0.17654232  0.47628449  1
  O2-  O398  1  0.32284527  0.16241309  0.81102335  1
  O2-  O399  1  0.33655577  0.41973411  0.14803490  1
  O2-  O400  1  0.31260647  0.40651219  0.47906789  1
  O2-  O401  1  0.35971526  0.43588689  0.81935735  1
  O2-  O402  1  0.32467743  0.66926636  0.14809663  1
  O2-  O403  1  0.34750344  0.67626308  0.48288912  1
  O2-  O404  1  0.37743334  0.63069876  0.81047096  1
  O2-  O405  1  0.33297888  0.92759835  0.14398090  1
  O2-  O406  1  0.33140001  0.91911692  0.47816629  1
  O2-  O407  1  0.32684861  0.93049005  0.80783342  1
  O2-  O408  1  0.56147238  0.12558694  0.12780472  1
  O2-  O409  1  0.58384034  0.16712721  0.48507128  1
  O2-  O410  1  0.58744297  0.16642499  0.81007370  1
  O2-  O411  1  0.57900439  0.43024832  0.13534860  1
  O2-  O412  1  0.58145540  0.40889786  0.48146242  1
  O2-  O413  1  0.57905647  0.41574054  0.81193107  1
  O2-  O414  1  0.58626233  0.69483488  0.12335748  1
  O2-  O415  1  0.57469994  0.65703160  0.47617896  1
  O2-  O416  1  0.61728810  0.67923156  0.78144676  1
  O2-  O417  1  0.56603259  0.90182081  0.15146255  1
  O2-  O418  1  0.56395019  0.89680387  0.46515592  1
  O2-  O419  1  0.58030149  0.91119408  0.81087856  1
  O2-  O420  1  0.81774090  0.14607057  0.14450190  1
  O2-  O421  1  0.84815464  0.18165176  0.49206985  1
  O2-  O422  1  0.83248145  0.15389903  0.81985641  1
  O2-  O423  1  0.85421621  0.46067036  0.12781595  1
  O2-  O424  1  0.83189152  0.41681502  0.54660156  1
  O2-  O425  1  0.83900995  0.43657979  0.81615413  1
  O2-  O426  1  0.83749262  0.68737883  0.13186570  1
  O2-  O427  1  0.81799503  0.65981529  0.47531528  1
  O2-  O428  1  0.84513007  0.67917610  0.84415052  1
  O2-  O429  1  0.83134358  0.91257100  0.14148675  1
  O2-  O430  1  0.83268533  0.91457420  0.47521830  1
  O2-  O431  1  0.84682633  0.93038782  0.81117528  1
  O2-  O432  1  0.22208892  0.11502461  0.18645746  1
  O2-  O433  1  0.17660481  0.10208377  0.50285788  1
  O2-  O434  1  0.15408988  0.03928222  0.82610400  1
  O2-  O435  1  0.16896615  0.34124306  0.18353296  1
  O2-  O436  1  0.13416648  0.32612083  0.51120729  1
  O2-  O437  1  0.18147045  0.33593743  0.85402352  1
  O2-  O438  1  0.16241580  0.59197487  0.18715825  1
  O2-  O439  1  0.20751576  0.54533624  0.53819006  1
  O2-  O440  1  0.16909466  0.59145545  0.86206809  1
  O2-  O441  1  0.16961385  0.84797084  0.18501090  1
  O2-  O442  1  0.17447019  0.87407658  0.52796239  1
  O2-  O443  1  0.15952945  0.84387709  0.85002398  1
  O2-  O444  1  0.38381935  0.07243627  0.20377093  1
  O2-  O445  1  0.41578871  0.08392715  0.52284223  1
  O2-  O446  1  0.42227239  0.09524080  0.85019058  1
  O2-  O447  1  0.41622922  0.32915196  0.19298735  1
  O2-  O448  1  0.42157140  0.33996203  0.52201848  1
  O2-  O449  1  0.41433891  0.33018220  0.85629097  1
  O2-  O450  1  0.40809512  0.57716918  0.18907605  1
  O2-  O451  1  0.43506136  0.60845089  0.52554384  1
  O2-  O452  1  0.42165623  0.51986642  0.84549188  1
  O2-  O453  1  0.40655509  0.83273547  0.18726503  1
  O2-  O454  1  0.40711357  0.83253801  0.52506218  1
  O2-  O455  1  0.43313009  0.80181738  0.86055278  1
  O2-  O456  1  0.65638624  0.06710374  0.19127169  1
  O2-  O457  1  0.68612703  0.09949296  0.52186045  1
  O2-  O458  1  0.66398824  0.07493264  0.84901973  1
  O2-  O459  1  0.69921855  0.38352450  0.18294867  1
  O2-  O460  1  0.66783727  0.32751664  0.52959100  1
  O2-  O461  1  0.66932982  0.33733910  0.84455024  1
  O2-  O462  1  0.65474905  0.59895612  0.15566797  1
  O2-  O463  1  0.65455233  0.57651019  0.52250893  1
  O2-  O464  1  0.67386031  0.58430404  0.84906225  1
  O2-  O465  1  0.64689106  0.83222029  0.19630129  1
  O2-  O466  1  0.67063558  0.86342351  0.52870239  1
  O2-  O467  1  0.67606428  0.83466995  0.83627714  1
  O2-  O468  1  0.88816890  0.05935173  0.18998862  1
  O2-  O469  1  0.91767904  0.07900401  0.51917920  1
  O2-  O470  1  0.90789495  0.08216236  0.85803330  1
  O2-  O471  1  0.91774519  0.29848589  0.18905111  1
  O2-  O472  1  0.91469700  0.34034161  0.53397610  1
  O2-  O473  1  0.92426998  0.36863284  0.85650731  1
  O2-  O474  1  0.92410245  0.61827718  0.18046073  1
  O2-  O475  1  0.90388479  0.56804524  0.49105145  1
  O2-  O476  1  0.91179592  0.58638276  0.85990524  1
  O2-  O477  1  0.92650418  0.84551003  0.18773959  1
  O2-  O478  1  0.90535237  0.82473034  0.50853796  1
  O2-  O479  1  0.93831755  0.86310560  0.85987942  1
  O2-  O480  1  0.18359712  0.10172026  0.30967946  1
  O2-  O481  1  0.18939549  0.06680834  0.62295790  1
  O2-  O482  1  0.17293718  0.08831476  0.97870308  1
  O2-  O483  1  0.11764756  0.31397148  0.30659514  1
  O2-  O484  1  0.13649430  0.32707719  0.63403251  1
  O2-  O485  1  0.16832282  0.32767943  0.97560596  1
  O2-  O486  1  0.15185075  0.55681086  0.36131510  1
  O2-  O487  1  0.17578879  0.58481967  0.65637966  1
  O2-  O488  1  0.17631265  0.59142059  0.97676144  1
  O2-  O489  1  0.16631796  0.84683529  0.31024236  1
  O2-  O490  1  0.15523212  0.82982704  0.64669806  1
  O2-  O491  1  0.16650110  0.85982175  0.97719418  1
  O2-  O492  1  0.40610658  0.08302993  0.31821125  1
  O2-  O493  1  0.40602323  0.08413913  0.64722801  1
  O2-  O494  1  0.41650202  0.08811898  0.97356632  1
  O2-  O495  1  0.42957560  0.32994574  0.31096835  1
  O2-  O496  1  0.42402313  0.34058604  0.64768125  1
  O2-  O497  1  0.41286145  0.32880750  0.98091482  1
  O2-  O498  1  0.39733502  0.57342938  0.31931256  1
  O2-  O499  1  0.43160649  0.60679618  0.63999085  1
  O2-  O500  1  0.42015636  0.55277829  0.96923074  1
  O2-  O501  1  0.39827813  0.82256194  0.30973952  1
  O2-  O502  1  0.40359289  0.83544904  0.64871986  1
  O2-  O503  1  0.41658574  0.83865579  0.97696400  1
  O2-  O504  1  0.63568428  0.05144548  0.31281542  1
  O2-  O505  1  0.62937057  0.03125911  0.64275049  1
  O2-  O506  1  0.66602942  0.08080465  0.96971030  1
  O2-  O507  1  0.65473457  0.33155880  0.30096611  1
  O2-  O508  1  0.64626757  0.30006542  0.65123737  1
  O2-  O509  1  0.66608267  0.33883532  0.96744032  1
  O2-  O510  1  0.67470105  0.57487685  0.32673935  1
  O2-  O511  1  0.66193723  0.59360216  0.64589208  1
  O2-  O512  1  0.67257986  0.58073278  0.97078948  1
  O2-  O513  1  0.65569720  0.82105242  0.30761494  1
  O2-  O514  1  0.68166757  0.85189454  0.65814755  1
  O2-  O515  1  0.67671212  0.83186489  0.96070583  1
  O2-  O516  1  0.91128888  0.07705155  0.31437767  1
  O2-  O517  1  0.92172785  0.08387842  0.64170710  1
  O2-  O518  1  0.91945821  0.08465926  0.97815126  1
  O2-  O519  1  0.94158012  0.33267653  0.30194549  1
  O2-  O520  1  0.92561223  0.34417600  0.65794693  1
  O2-  O521  1  0.90221485  0.31635058  0.97844872  1
  O2-  O522  1  0.91882962  0.59109594  0.30226910  1
  O2-  O523  1  0.91611718  0.57918215  0.63785090  1
  O2-  O524  1  0.91903249  0.58438076  0.97182248  1
  O2-  O525  1  0.91592922  0.83271968  0.31261684  1
  O2-  O526  1  0.91770333  0.84047648  0.63271011  1
  O2-  O527  1  0.92566715  0.84197433  0.98175642  1
  O2-  O528  1  0.09006871  0.16776067  0.01143531  1
  O2-  O529  1  0.07565671  0.16009866  0.34109296  1
  O2-  O530  1  0.08604113  0.16697492  0.69290557  1
  O2-  O531  1  0.06044605  0.38780110  0.01534817  1
  O2-  O532  1  0.04727264  0.41407640  0.41657128  1
  O2-  O533  1  0.08975701  0.42221899  0.69617292  1
  O2-  O534  1  0.08800624  0.65243917  0.02024577  1
  O2-  O535  1  0.09575700  0.66797844  0.31026515  1
  O2-  O536  1  0.08457468  0.66284722  0.68556912  1
  O2-  O537  1  0.08993060  0.93581847  0.02141152  1
  O2-  O538  1  0.08420589  0.93050636  0.35364080  1
  O2-  O539  1  0.07615308  0.91949727  0.68614082  1
  O2-  O540  1  0.32351330  0.16170609  0.01197869  1
  O2-  O541  1  0.34500464  0.18246171  0.35041894  1
  O2-  O542  1  0.32837167  0.17309669  0.68823880  1
  O2-  O543  1  0.32939665  0.40888579  0.02817136  1
  O2-  O544  1  0.27838618  0.39661708  0.35590383  1
  O2-  O545  1  0.37106825  0.44521230  0.69879360  1
  O2-  O546  1  0.32503571  0.67024068  0.02251511  1
  O2-  O547  1  0.32520204  0.66510108  0.36024997  1
  O2-  O548  1  0.34312333  0.67334890  0.69518097  1
  O2-  O549  1  0.33612599  0.92807944  0.01963471  1
  O2-  O550  1  0.32804871  0.91530872  0.35536864  1
  O2-  O551  1  0.31917991  0.91934070  0.68833835  1
  O2-  O552  1  0.59093765  0.17126935  0.00285188  1
  O2-  O553  1  0.58030420  0.15643428  0.35936119  1
  O2-  O554  1  0.56984427  0.13727767  0.68566746  1
  O2-  O555  1  0.58362386  0.41826934  0.01582489  1
  O2-  O556  1  0.58509246  0.40787129  0.36174278  1
  O2-  O557  1  0.59638569  0.43859105  0.68780013  1
  O2-  O558  1  0.59403998  0.66773358  -0.00092827  1
  O2-  O559  1  0.57236354  0.65138943  0.34999165  1
  O2-  O560  1  0.61317744  0.69064018  0.71573056  1
  O2-  O561  1  0.62516510  0.92963568  0.03513200  1
  O2-  O562  1  0.56004489  0.87911058  0.35128253  1
  O2-  O563  1  0.55550394  0.88065717  0.69764208  1
  O2-  O564  1  0.82718517  0.15750820  0.02252471  1
  O2-  O565  1  0.87872820  0.19090209  0.36166555  1
  O2-  O566  1  0.85533091  0.18319330  0.69631908  1
  O2-  O567  1  0.83008407  0.42102484  0.00500789  1
  O2-  O568  1  0.84301252  0.40633615  0.31811961  1
  O2-  O569  1  0.82744242  0.41226954  0.69276526  1
  O2-  O570  1  0.84288170  0.67104368  0.00868911  1
  O2-  O571  1  0.83808657  0.66830739  0.35481754  1
  O2-  O572  1  0.83337677  0.66633513  0.65046768  1
  O2-  O573  1  0.83234754  0.91476696  0.01548767  1
  O2-  O574  1  0.81905485  0.90585982  0.34869370  1
  O2-  O575  1  0.84606730  0.92586508  0.69015619  1
