# generated using pymatgen
data_H2O
_symmetry_space_group_name_H-M   'P 1'
_cell_length_a   17.99472581
_cell_length_b   17.99959045
_cell_length_c   22.01663393
_cell_angle_alpha   89.99372801
_cell_angle_beta   89.98164707
_cell_angle_gamma   119.99529799
_symmetry_Int_Tables_number   1
_chemical_formula_structural   H2O
_chemical_formula_sum   'H384 O192'
_cell_volume   6176.03775286
_cell_formula_units_Z   192
loop_
 _symmetry_equiv_pos_site_id
 _symmetry_equiv_pos_as_xyz
  1  'x, y, z'
loop_
 _atom_type_symbol
 _atom_type_oxidation_number
  H+  1.0
  O2-  -2.0
loop_
 _atom_site_type_symbol
 _atom_site_label
 _atom_site_symmetry_multiplicity
 _atom_site_fract_x
 _atom_site_fract_y
 _atom_site_fract_z
 _atom_site_occupancy
  H+  H0  1  0.98408807  0.63310836  0.17788002  1
  H+  H1  1  0.36474077  0.60011936  0.16986937  1
  H+  H2  1  0.21248815  0.60376231  0.32740689  1
  H+  H3  1  0.02453531  0.13156681  0.32676421  1
  H+  H4  1  0.60923463  -0.02779233  0.33853703  1
  H+  H5  1  0.88960590  0.25172597  0.33636342  1
  H+  H6  1  0.87541025  0.53347999  0.31951852  1
  H+  H7  1  0.65111177  0.32080851  0.22443498  1
  H+  H8  1  0.88889831  0.55020633  -0.01199587  1
  H+  H9  1  0.89284315  0.77688092  0.51236006  1
  H+  H10  1  0.39322093  0.53130223  0.82959851  1
  H+  H11  1  1.04002938  0.89086813  0.33435128  1
  H+  H12  1  0.35490056  0.38732160  0.16374984  1
  H+  H13  1  0.64270791  0.11103160  0.49935582  1
  H+  H14  1  0.63646650  0.52704242  0.83476839  1
  H+  H15  1  0.13186873  0.52669440  0.50675507  1
  H+  H16  1  0.36479001  0.14442846  0.34072649  1
  H+  H17  1  0.76740954  0.36932385  0.15942682  1
  H+  H18  1  0.72346391  0.11279862  0.99609661  1
  H+  H19  1  0.47942084  0.13461642  0.14442398  1
  H+  H20  1  0.12030185  0.72853143  0.00665897  1
  H+  H21  1  0.52649978  0.14580059  0.83115007  1
  H+  H22  1  0.44951327  0.35836045  0.49773286  1
  H+  H23  1  0.60773415  0.33936073  0.00955821  1
  H+  H24  1  0.13381102  0.86328639  0.50663708  1
  H+  H25  1  0.76186103  0.88708504  0.33861497  1
  H+  H26  1  0.38618972  0.86461586  0.99396419  1
  H+  H27  1  0.36145235  0.24091705  0.82754239  1
  H+  H28  1  0.62748745  0.01591375  0.84328336  1
  H+  H29  1  0.47714539  0.11620976  0.66736465  1
  H+  H30  1  0.87903975  0.78868288  0.67130469  1
  H+  H31  1  0.64716802  0.40015444  0.53314907  1
  H+  H32  1  0.89345796  0.04103027  0.64793705  1
  H+  H33  1  0.64577050  0.51701474  0.67391314  1
  H+  H34  1  0.11802465  0.97474028  0.00517523  1
  H+  H35  1  0.01903996  0.37897648  0.15454797  1
  H+  H36  1  0.38814279  1.03824998  0.31064177  1
  H+  H37  1  0.52587634  0.39733148  0.15731601  1
  H+  H38  1  0.13521454  0.26505715  0.84485526  1
  H+  H39  1  0.35736854  0.71676901  0.15674691  1
  H+  H40  1  0.36302457  0.88880174  0.67044388  1
  H+  H41  1  0.85812099  0.36161484  0.67513180  1
  H+  H42  1  0.16667947  0.37461833  -0.00230553  1
  H+  H43  1  0.37912104  0.38037843  -0.00059637  1
  H+  H44  1  0.36281327  0.72600338  0.49374146  1
  H+  H45  1  0.71297060  0.87099268  0.64700911  1
  H+  H46  1  0.36691857  0.26827924  0.32429238  1
  H+  H47  1  0.27282622  0.13076348  0.15740845  1
  H+  H48  1  0.12631924  0.59898613  0.82669122  1
  H+  H49  1  0.87241203  0.66996284  0.69313276  1
  H+  H50  1  0.76101154  0.39475556  0.31846885  1
  H+  H51  1  0.89016125  0.27645481  0.51873982  1
  H+  H52  1  0.85958594  0.90146112  0.66629654  1
  H+  H53  1  0.73552997  0.61887183  0.68320804  1
  H+  H54  1  0.86810024  0.98241224  0.16192432  1
  H+  H55  1  0.66529013  0.53983683  0.54075555  1
  H+  H56  1  0.13084737  0.35145783  0.84785974  1
  H+  H57  1  0.10584265  0.39170154  0.49473285  1
  H+  H58  1  0.13220865  0.26982912  0.17795265  1
  H+  H59  1  0.25815670  0.40449697  0.67656511  1
  H+  H60  1  0.60618268  0.22597793  -0.01223706  1
  H+  H61  1  0.96443941  0.37080300  0.31284474  1
  H+  H62  1  0.38483746  0.27570546  0.16425403  1
  H+  H63  1  0.56459496  0.40133898  0.55797557  1
  H+  H64  1  0.52618852  0.63404964  0.50332953  1
  H+  H65  1  0.62092402  0.26845772  0.32319587  1
  H+  H66  1  0.60741810  0.50879657  0.29456047  1
  H+  H67  1  0.23649717  0.86757693  0.84816035  1
  H+  H68  1  0.61850521  0.22694022  0.49577746  1
  H+  H69  1  0.38897958  0.02312389  0.66192068  1
  H+  H70  1  0.48979089  0.37456496  0.31277413  1
  H+  H71  1  0.13223236  0.10950155  0.84345869  1
  H+  H72  1  0.12197869  0.04661311  0.64021504  1
  H+  H73  1  0.13270982  0.36913767  0.66031615  1
  H+  H74  1  0.39114032  0.85876171  0.16717692  1
  H+  H75  1  0.48006758  0.86194321  0.50954335  1
  H+  H76  1  0.29116457  0.37924373  0.00499117  1
  H+  H77  1  0.26680183  0.88437307  0.51372896  1
  H+  H78  1  0.67439519  0.57700182  0.99556459  1
  H+  H79  1  0.86187666  0.22762544  0.66743531  1
  H+  H80  1  0.63496473  0.86430223  0.83583650  1
  H+  H81  1  0.60961352  0.22488257  0.67700511  1
  H+  H82  1  0.34051802  0.50018940  0.68011172  1
  H+  H83  1  0.47147936  0.86065155  0.67663882  1
  H+  H84  1  0.21920466  0.60603873  0.17165883  1
  H+  H85  1  0.50603935  0.64738217  1.02060966  1
  H+  H86  1  0.72545999  0.86248557  0.82894252  1
  H+  H87  1  0.13704829  0.77176198  0.32277574  1
  H+  H88  1  0.47976055  0.33098492  -0.01046774  1
  H+  H89  1  0.05116831  0.37838488  0.00315768  1
  H+  H90  1  0.27219590  0.38406432  0.83391596  1
  H+  H91  1  0.11164675  0.14460995  0.49146637  1
  H+  H92  1  0.11708724  0.11836176  1.01510556  1
  H+  H93  1  0.12783728  0.76077800  0.65753439  1
  H+  H94  1  0.58963764  0.24570087  0.14101954  1
  H+  H95  1  0.03911954  0.69807364  0.71164689  1
  H+  H96  1  0.59627155  0.87745976  0.69331094  1
  H+  H97  1  0.10012055  0.37703008  0.34317257  1
  H+  H98  1  0.42722975  0.83741951  0.60904691  1
  H+  H99  1  0.47422995  0.86313315  -0.00710584  1
  H+  H100  1  0.58929933  0.91040041  0.88845013  1
  H+  H101  1  0.87679157  0.52428142  0.83683417  1
  H+  H102  1  0.85418783  0.98063318  0.34101297  1
  H+  H103  1  1.01851537  0.12935231  0.83092966  1
  H+  H104  1  0.72366870  0.11682480  0.32327718  1
  H+  H105  1  0.38916828  1.02860359  0.52026775  1
  H+  H106  1  0.21958138  0.37092042  0.50409543  1
  H+  H107  1  0.38995779  0.37101416  0.83783966  1
  H+  H108  1  0.14284505  0.02341833  0.17488314  1
  H+  H109  1  0.61340521  0.38693006  0.82589671  1
  H+  H110  1  0.56109164  0.41701314  0.36404404  1
  H+  H111  1  0.89341369  0.25953424  0.16040616  1
  H+  H112  1  0.11340435  0.63848125  0.15875306  1
  H+  H113  1  0.17917697  0.55753641  0.79809917  1
  H+  H114  1  0.63518683  0.86169135  0.32479354  1
  H+  H115  1  0.60064130  0.72048823  0.32608687  1
  H+  H116  1  0.23650113  0.09676519  0.99078117  1
  H+  H117  1  0.66703464  0.34828116  0.45811384  1
  H+  H118  1  0.26033566  0.38470220  0.33918133  1
  H+  H119  1  0.61188417  0.86573546  0.15529667  1
  H+  H120  1  0.74919915  0.01767393  0.20370520  1
  H+  H121  1  0.08611222  0.66930694  0.09884926  1
  H+  H122  1  0.87706967  0.78880895  -0.04866702  1
  H+  H123  1  0.57631335  0.66919103  0.71690657  1
  H+  H124  1  0.02124070  0.14698323  0.67374092  1
  H+  H125  1  0.91268776  0.08233945  0.89799363  1
  H+  H126  1  0.39835569  0.62240931  0.82218562  1
  H+  H127  1  0.89782183  0.13035421  0.50491756  1
  H+  H128  1  0.14728947  0.50679670  0.68817397  1
  H+  H129  1  0.89186409  0.86960617  0.17324659  1
  H+  H130  1  0.92775416  0.36765782  1.02191312  1
  H+  H131  1  0.86918077  0.38223895  0.51074982  1
  H+  H132  1  0.36399685  0.35742703  0.32175673  1
  H+  H133  1  0.00261565  0.13862594  0.50409751  1
  H+  H134  1  0.48684228  0.86717248  0.84620496  1
  H+  H135  1  0.59574453  0.73154907  0.66062163  1
  H+  H136  1  0.22281765  0.63161382  0.66141917  1
  H+  H137  1  0.08889455  0.15998971  0.11108710  1
  H+  H138  1  0.38706996  0.85529020  0.30910208  1
  H+  H139  1  0.14786516  0.86829324  0.85492718  1
  H+  H140  1  0.33333508  0.15335162  0.09751416  1
  H+  H141  1  0.52661716  0.87340327  0.15367728  1
  H+  H142  1  0.88487389  0.12127216  0.99196688  1
  H+  H143  1  0.12430329  0.27636996  0.66082707  1
  H+  H144  1  0.38480988  0.61316120  0.50326430  1
  H+  H145  1  0.63366267  0.27455469  0.83364314  1
  H+  H146  1  0.21985252  0.10973889  0.65727198  1
  H+  H147  1  0.11348703  0.23700415  0.49607892  1
  H+  H148  1  1.02350205  0.07020721  1.03908950  1
  H+  H149  1  0.52100840  0.88192711  0.33602748  1
  H+  H150  1  0.39115570  0.86097495  0.51867524  1
  H+  H151  1  0.16196495  0.58919908  0.56475719  1
  H+  H152  1  0.12956641  0.35829142  0.17283131  1
  H+  H153  1  0.77872828  0.13786025  0.49064783  1
  H+  H154  1  0.08768688  0.91924093  0.10380836  1
  H+  H155  1  0.76038214  0.42178820  0.01125138  1
  H+  H156  1  0.11521449  0.13591645  0.32810654  1
  H+  H157  1  0.91493364  0.78569840  0.32731255  1
  H+  H158  1  0.67966881  0.06398163  0.26431276  1
  H+  H159  1  0.97635964  0.39056125  0.86343826  1
  H+  H160  1  0.60726967  0.97620352  0.00221344  1
  H+  H161  1  0.27151648  0.63946214  1.00295528  1
  H+  H162  1  0.72298539  0.84163985  -0.02093632  1
  H+  H163  1  0.40217582  0.28962751  0.66096669  1
  H+  H164  1  0.07929391  0.16480641  0.77229221  1
  H+  H165  1  0.84956881  0.39646217  0.31605899  1
  H+  H166  1  0.62718500  0.39453267  0.67689435  1
  H+  H167  1  0.89674989  0.63297269  0.17096337  1
  H+  H168  1  0.38327554  0.76547158  0.32089207  1
  H+  H169  1  0.89374041  0.12293628  0.16436661  1
  H+  H170  1  0.14348116  0.86464322  0.32556678  1
  H+  H171  1  0.36111981  0.72661175  1.00778842  1
  H+  H172  1  0.89185385  0.01330969  0.84538507  1
  H+  H173  1  0.82237572  0.91270656  0.40961406  1
  H+  H174  1  0.63329831  0.76749943  0.50464185  1
  H+  H175  1  0.14415562  0.77787032  0.16731132  1
  H+  H176  1  0.98479345  0.60631764  0.65931699  1
  H+  H177  1  1.01518833  0.63926912  0.33600729  1
  H+  H178  1  0.73607365  0.36026205  0.66765186  1
  H+  H179  1  0.79752947  0.13902414  0.15220236  1
  H+  H180  1  0.61453698  0.10304882  0.14818934  1
  H+  H181  1  0.83908834  0.40709955  0.01030869  1
  H+  H182  1  0.60972084  0.35032707  0.30908770  1
  H+  H183  1  0.70139491  0.57865670  0.30686216  1
  H+  H184  1  0.27327852  0.88837932  0.01051787  1
  H+  H185  1  0.72913736  0.11798267  0.64772937  1
  H+  H186  1  0.37870153  0.59790031  0.99718234  1
  H+  H187  1  0.61014785  0.13479001  0.82574790  1
  H+  H188  1  0.86985081  0.87213495  0.84948472  1
  H+  H189  1  0.63957699  0.11639931  0.65038652  1
  H+  H190  1  0.10448003  0.46027506  0.84230416  1
  H+  H191  1  0.14126076  0.52515300  -0.01385754  1
  H+  H192  1  0.47389541  0.12136722  0.33187337  1
  H+  H193  1  0.73027149  0.86153247  0.17731236  1
  H+  H194  1  0.89471025  0.40343128  0.85915811  1
  H+  H195  1  0.76186119  0.87382376  0.48548666  1
  H+  H196  1  0.75010185  0.09383117  0.80860292  1
  H+  H197  1  0.76503590  0.38612790  0.82610547  1
  H+  H198  1  0.35802490  0.73541796  0.67311937  1
  H+  H199  1  0.28278188  0.89336895  0.16017490  1
  H+  H200  1  0.61681045  0.64008274  0.51362907  1
  H+  H201  1  0.88534764  0.76261546  0.85618380  1
  H+  H202  1  0.89845708  0.12213876  0.32539371  1
  H+  H203  1  0.35089487  0.63184430  0.33632417  1
  H+  H204  1  0.63516071  0.65437434  0.15116341  1
  H+  H205  1  0.61777819  0.72563091  0.81039614  1
  H+  H206  1  0.65676931  0.54187576  0.15075559  1
  H+  H207  1  0.87602539  0.63978233  0.50487240  1
  H+  H208  1  0.89513777  0.73738236  0.04222392  1
  H+  H209  1  0.10556899  0.86100786  0.67812539  1
  H+  H210  1  0.91751958  0.58990109  0.89448585  1
  H+  H211  1  0.35486034  0.98293054  0.01260655  1
  H+  H212  1  0.87744328  0.24153577  0.84552589  1
  H+  H213  1  0.11870240  0.95043713  0.69782719  1
  H+  H214  1  0.75001537  0.36965641  0.49888617  1
  H+  H215  1  0.60673578  0.13616314  0.34306446  1
  H+  H216  1  0.37678365  0.74255498  0.82642470  1
  H+  H217  1  0.84900267  0.22178413  1.00902553  1
  H+  H218  1  0.27203987  0.88519297  0.66918495  1
  H+  H219  1  0.71556019  0.31468150  0.97166303  1
  H+  H220  1  0.52536992  0.39056964  0.82290420  1
  H+  H221  1  0.46542308  0.61182284  0.31722057  1
  H+  H222  1  0.85889479  0.63354300  0.83183028  1
  H+  H223  1  0.88572643  0.34754862  0.16259076  1
  H+  H224  1  0.27204579  0.88275623  0.31603574  1
  H+  H225  1  0.85524754  0.87820895  0.48378453  1
  H+  H226  1  0.59974532  0.72761949  1.01104111  1
  H+  H227  1  -0.01916014  0.86835925  0.17079380  1
  H+  H228  1  0.14334762  0.86015616  0.99948432  1
  H+  H229  1  0.12906103  0.62189886  0.66269631  1
  H+  H230  1  0.86422944  0.96307081  0.00331499  1
  H+  H231  1  0.52926917  0.63630716  0.80881714  1
  H+  H232  1  0.74789958  0.63158232  0.52848655  1
  H+  H233  1  0.79302658  0.72065096  0.98518099  1
  H+  H234  1  0.59595234  0.63125056  0.31625378  1
  H+  H235  1  0.10828962  -0.02724377  0.83766006  1
  H+  H236  1  0.87064872  0.64625739  0.34614717  1
  H+  H237  1  0.87993968  0.57084269  0.64599742  1
  H+  H238  1  0.91391390  0.32916207  0.58325233  1
  H+  H239  1  0.11500792  0.63782505  1.00168623  1
  H+  H240  1  0.87519141  0.74340214  0.14781498  1
  H+  H241  1  0.83865237  0.09300365  0.81045002  1
  H+  H242  1  0.98360915  0.61354084  0.50054096  1
  H+  H243  1  0.35005933  0.10829289  0.67850913  1
  H+  H244  1  0.34673223  0.38807874  0.49447911  1
  H+  H245  1  0.26079264  0.38143599  0.17134016  1
  H+  H246  1  0.12988353  0.26768512  0.32586518  1
  H+  H247  1  0.36268818  0.13495581  0.49874734  1
  H+  H248  1  0.35721950  0.49500539  0.17456541  1
  H+  H249  1  0.11775526  0.88827197  0.16171021  1
  H+  H250  1  0.79771457  0.67435604  0.35627946  1
  H+  H251  1  0.95939537  0.24814156  0.37461937  1
  H+  H252  1  0.35564488  0.22066508  0.49748704  1
  H+  H253  1  0.87268015  0.25612129  0.81451205  1
  H+  H254  1  0.86735015  0.45559826  0.67257770  1
  H+  H255  1  0.89025760  0.12939694  0.65264189  1
  H+  H256  1  0.57870662  0.16230003  0.73425444  1
  H+  H257  1  0.11707740  0.64207350  0.48753168  1
  H+  H258  1  0.61489472  -0.02525472  0.49173121  1
  H+  H259  1  0.39216896  0.51650236  0.99761541  1
  H+  H260  1  0.37903551  0.62383984  0.65624357  1
  H+  H261  1  0.02442391  0.89005687  0.49410339  1
  H+  H262  1  0.39510870  0.14002872  0.84873294  1
  H+  H263  1  0.10056478  0.63120588  0.33412144  1
  H+  H264  1  0.76726305  0.63550113  0.83312056  1
  H+  H265  1  0.87003966  0.47242804  0.49960154  1
  H+  H266  1  0.97844585  0.11295710  0.17732069  1
  H+  H267  1  0.95887107  0.34776712  0.66809455  1
  H+  H268  1  0.63522481  0.36880107  0.16918635  1
  H+  H269  1  0.23088731  0.11602574  0.32835553  1
  H+  H270  1  0.90886583  0.08082517  0.26294951  1
  H+  H271  1  0.28780011  0.65337468  0.82888635  1
  H+  H272  1  0.37533793  0.52199040  0.32393073  1
  H+  H273  1  0.36476461  0.88308561  0.82599216  1
  H+  H274  1  0.14553113  1.02385578  0.32697640  1
  H+  H275  1  0.22457589  0.11468630  0.49577432  1
  H+  H276  1  0.27366546  0.05934034  0.72354679  1
  H+  H277  1  0.38990703  0.25072088  -0.02077357  1
  H+  H278  1  0.11411214  0.15492968  0.67351237  1
  H+  H279  1  0.11317485  -0.02107282  0.49198163  1
  H+  H280  1  0.58698243  0.06838546  0.12601333  1
  H+  H281  1  0.12040761  0.13681640  0.17143778  1
  H+  H282  1  0.58220480  0.68451073  0.10753755  1
  H+  H283  1  -0.02487503  0.85101054  0.86466387  1
  H+  H284  1  0.22419566  0.11582060  0.84239422  1
  H+  H285  1  0.63714349  0.61730266  0.82822663  1
  H+  H286  1  1.01351316  0.61510245  0.82281350  1
  H+  H287  1  0.10767118  0.47085822  0.15850524  1
  H+  H288  1  0.91088655  0.32939048  0.25171753  1
  H+  H289  1  0.57856383  0.91372073  0.43324623  1
  H+  H290  1  0.68336852  0.59689054  0.20882827  1
  H+  H291  1  0.33342949  0.17068922  0.40152809  1
  H+  H292  1  0.46766519  0.62098403  0.65576123  1
  H+  H293  1  0.17043131  0.58068552  0.92542676  1
  H+  H294  1  0.53850591  0.28951326  0.06008876  1
  H+  H295  1  0.17270866  0.07848655  0.93461985  1
  H+  H296  1  0.39433920  0.02390674  0.15924013  1
  H+  H297  1  0.17917983  0.33254279  0.93880905  1
  H+  H298  1  0.82913689  0.41007619  0.76876439  1
  H+  H299  1  0.32312447  0.41717759  0.39685851  1
  H+  H300  1  0.40725880  0.58284375  0.56538738  1
  H+  H301  1  0.54310139  0.40153502  0.44368467  1
  H+  H302  1  0.17088273  0.83445452  0.22783209  1
  H+  H303  1  0.33045223  0.67644988  0.73231117  1
  H+  H304  1  0.06866960  0.63795456  0.76135504  1
  H+  H305  1  0.16911213  0.09740767  0.55497219  1
  H+  H306  1  0.63447668  0.11382245  0.99062343  1
  H+  H307  1  0.13466312  0.77376832  0.50289697  1
  H+  H308  1  0.08489180  0.67044792  0.42766417  1
  H+  H309  1  0.33058532  0.91032314  0.76839112  1
  H+  H310  1  0.68388441  0.59508064  0.61618983  1
  H+  H311  1  0.33923125  0.91991580  0.09932570  1
  H+  H312  1  0.93090480  0.10551747  0.56815862  1
  H+  H313  1  0.83540405  0.91832328  0.10448937  1
  H+  H314  1  0.51293776  0.13754214  -0.00415870  1
  H+  H315  1  0.66858937  0.08820539  0.89387730  1
  H+  H316  1  0.93006960  0.57460044  0.56244961  1
  H+  H317  1  0.38034308  0.10926583  0.16440258  1
  H+  H318  1  0.83019972  0.42166815  0.10678830  1
  H+  H319  1  0.39437638  0.57399418  0.23464591  1
  H+  H320  1  0.49466356  0.37179124  0.65782643  1
  H+  H321  1  0.17696444  0.08294419  0.23474939  1
  H+  H322  1  0.09169688  0.42023910  0.06785336  1
  H+  H323  1  0.58208078  0.16634986  0.40475291  1
  H+  H324  1  0.86624489  0.89995885  0.78345677  1
  H+  H325  1  0.12345769  0.51427905  0.32763906  1
  H+  H326  1  0.67071345  0.80599470  0.91746612  1
  H+  H327  1  0.64201149  0.76624635  0.17574775  1
  H+  H328  1  0.56239049  0.18615018  0.07635736  1
  H+  H329  1  0.81556368  0.93905239  0.71103787  1
  H+  H330  1  0.41929040  0.82344249  0.22420612  1
  H+  H331  1  0.91517648  0.60622131  0.26731333  1
  H+  H332  1  0.85114524  0.18292403  0.43731912  1
  H+  H333  1  0.84585501  0.67363154  0.44832946  1
  H+  H334  1  0.90487556  0.36140035  0.95059114  1
  H+  H335  1  0.97262570  0.86800472  0.66771581  1
  H+  H336  1  0.68681370  0.60468457  0.92641125  1
  H+  H337  1  0.06783739  0.40894251  0.40119747  1
  H+  H338  1  0.32568379  0.66552701  0.39602369  1
  H+  H339  1  0.42150038  0.09348227  0.57529754  1
  H+  H340  1  0.82205099  0.14433436  0.71781706  1
  H+  H341  1  0.08425044  0.41039196  0.78231727  1
  H+  H342  1  0.42358946  0.33494769  0.89314952  1
  H+  H343  1  0.35561024  0.48132714  0.49349461  1
  H+  H344  1  0.58178139  0.40560806  0.09965102  1
  H+  H345  1  0.41469165  0.83171213  0.89898513  1
  H+  H346  1  0.58693567  0.44203747  0.44297189  1
  H+  H347  1  0.20648318  0.47020490  0.71482202  1
  H+  H348  1  0.17906516  0.83678450  0.93919488  1
  H+  H349  1  0.65777213  -0.01312461  0.17576557  1
  H+  H350  1  0.32234225  0.42390720  0.77285771  1
  H+  H351  1  0.63409723  0.85833885  0.49749418  1
  H+  H352  1  0.93536821  0.83639803  0.26415861  1
  H+  H353  1  0.84069350  0.16581359  0.06996910  1
  H+  H354  1  0.59158811  0.42065475  0.73699854  1
  H+  H355  1  0.98485877  0.62636630  0.98391619  1
  H+  H356  1  0.65061123  0.83784661  0.59174084  1
  H+  H357  1  0.27198746  0.63912795  0.49272772  1
  H+  H358  1  1.01717655  0.39052671  0.50197024  1
  H+  H359  1  0.41251784  0.33469353  0.56529233  1
  H+  H360  1  0.32888558  0.17164410  0.77292464  1
  H+  H361  1  0.56635725  0.89317559  0.75790109  1
  H+  H362  1  0.52652466  0.14008005  0.50154942  1
  H+  H363  1  0.67471701  0.33451679  0.60944753  1
  H+  H364  1  0.33104144  0.92023714  0.45986195  1
  H+  H365  1  0.40333894  0.32828855  0.22543563  1
  H+  H366  1  0.84358273  0.86482710  0.01205114  1
  H+  H367  1  0.09323355  0.91759276  0.39733600  1
  H+  H368  1  0.41763520  0.11024798  0.90979122  1
  H+  H369  1  0.15771467  0.33373108  0.27063916  1
  H+  H370  1  0.15826194  0.33787342  0.56342575  1
  H+  H371  1  0.15867048  0.82607772  0.60056259  1
  H+  H372  1  0.97759567  0.13024210  0.98666970  1
  H+  H373  1  0.02905810  0.88601657  0.00904638  1
  H+  H374  1  0.67283142  0.08492613  0.55941832  1
  H+  H375  1  0.15816181  0.57578191  0.23072315  1
  H+  H376  1  0.32414872  0.65795274  0.09739338  1
  H+  H377  1  0.83152598  0.68135983  0.75454946  1
  H+  H378  1  0.58244471  0.90949219  0.05656536  1
  H+  H379  1  0.07220214  0.89957727  0.78623980  1
  H+  H380  1  0.91655290  0.84416070  0.56596403  1
  H+  H381  1  0.34768445  0.92411308  0.36384770  1
  H+  H382  1  0.66008158  0.32855569  0.89596046  1
  H+  H383  1  0.66943131  0.83429499  0.26490117  1
  O2-  O384  1  0.08896480  0.16590381  0.15606970  1
  O2-  O385  1  0.07873007  0.17481384  0.48366204  1
  O2-  O386  1  0.08036928  0.16017065  0.81733106  1
  O2-  O387  1  0.08165069  0.41179488  0.14082325  1
  O2-  O388  1  0.07459493  0.42152975  0.48088911  1
  O2-  O389  1  0.07209253  0.40049149  0.82650923  1
  O2-  O390  1  0.08919890  0.67445419  0.14424309  1
  O2-  O391  1  0.08710124  0.67316425  0.47323165  1
  O2-  O392  1  0.07171194  0.63305791  0.80623004  1
  O2-  O393  1  0.08798970  0.92036968  0.14901568  1
  O2-  O394  1  0.08516246  0.91737188  0.47966376  1
  O2-  O395  1  0.07536376  0.90922083  0.83042298  1
  O2-  O396  1  0.33413208  0.16015822  0.14230368  1
  O2-  O397  1  0.33017322  0.16156357  0.48079978  1
  O2-  O398  1  0.32727979  0.17744230  0.81727085  1
  O2-  O399  1  0.32219434  0.41811980  0.15775387  1
  O2-  O400  1  0.32094651  0.42069842  0.47706434  1
  O2-  O401  1  0.33131948  0.41520851  0.81637856  1
  O2-  O402  1  0.32310430  0.65554865  0.14349890  1
  O2-  O403  1  0.33142160  0.66724352  0.47570685  1
  O2-  O404  1  0.34402724  0.68167606  0.80858568  1
  O2-  O405  1  0.34365796  0.92309910  0.14532039  1
  O2-  O406  1  0.33060273  0.91727848  0.50392075  1
  O2-  O407  1  0.32904689  0.90831611  0.81305303  1
  O2-  O408  1  0.54121239  0.20140613  0.11481680  1
  O2-  O409  1  0.58461552  0.16588257  0.48244365  1
  O2-  O410  1  0.58305868  0.16823416  0.80994575  1
  O2-  O411  1  0.58621726  0.42408191  0.14295722  1
  O2-  O412  1  0.62662941  0.43578603  0.55486786  1
  O2-  O413  1  0.58644579  0.42006710  0.80830800  1
  O2-  O414  1  0.59911635  0.68206355  0.15146740  1
  O2-  O415  1  0.58788604  0.66673081  0.49241947  1
  O2-  O416  1  0.59177757  0.66532073  0.79515216  1
  O2-  O417  1  0.58699956  0.90101521  0.13904979  1
  O2-  O418  1  0.58012258  0.91323282  0.47857803  1
  O2-  O419  1  0.58497221  0.91351369  0.84433010  1
  O2-  O420  1  0.85592722  0.17047663  0.13564630  1
  O2-  O421  1  0.84210953  0.17251916  0.48174839  1
  O2-  O422  1  0.79485042  0.09199703  0.78296395  1
  O2-  O423  1  0.82777815  0.39455665  0.14613501  1
  O2-  O424  1  0.83755410  0.40959176  0.49170670  1
  O2-  O425  1  0.82703513  0.41917767  0.81348529  1
  O2-  O426  1  0.85878228  0.69033330  0.12242013  1
  O2-  O427  1  0.84576661  0.67243015  0.49375798  1
  O2-  O428  1  0.83037820  0.66876295  0.82032996  1
  O2-  O429  1  0.83831611  0.92026374  0.14985390  1
  O2-  O430  1  0.82176808  0.90388968  0.46698898  1
  O2-  O431  1  0.84817151  0.90469760  0.82419657  1
  O2-  O432  1  0.17624860  0.08464959  0.18887793  1
  O2-  O433  1  0.16360576  0.08880592  0.51035675  1
  O2-  O434  1  0.16383247  0.07980885  0.85758733  1
  O2-  O435  1  0.16007280  0.33081498  0.19244946  1
  O2-  O436  1  0.15820368  0.33758189  0.51794244  1
  O2-  O437  1  0.16701252  0.32588979  0.85895860  1
  O2-  O438  1  0.15792369  0.57562057  0.18540588  1
  O2-  O439  1  0.16487500  0.58844586  0.51955880  1
  O2-  O440  1  0.16697842  0.57441294  0.83749871  1
  O2-  O441  1  0.17494621  0.83887181  0.18265492  1
  O2-  O442  1  0.16290926  0.83202590  0.52266931  1
  O2-  O443  1  0.17958403  0.84067406  0.86996597  1
  O2-  O444  1  0.42246696  0.08748990  0.17102310  1
  O2-  O445  1  0.42049903  0.09109051  0.52947761  1
  O2-  O446  1  0.43400766  0.12215580  0.86678118  1
  O2-  O447  1  0.41151876  0.33497900  0.18052005  1
  O2-  O448  1  0.39616022  0.32727474  0.52080213  1
  O2-  O449  1  0.42202885  0.34004528  0.84785211  1
  O2-  O450  1  0.39061253  0.56656129  0.18861575  1
  O2-  O451  1  0.41113056  0.58002908  0.51984247  1
  O2-  O452  1  0.43255530  0.59384180  0.82827319  1
  O2-  O453  1  0.41783653  0.82384251  0.17882470  1
  O2-  O454  1  0.42111098  0.82885443  0.52794903  1
  O2-  O455  1  0.42074784  0.83445944  0.85381917  1
  O2-  O456  1  0.70592183  0.03488508  0.19992538  1
  O2-  O457  1  0.67416513  0.08166035  0.51279483  1
  O2-  O458  1  0.66047356  0.08147172  0.84912780  1
  O2-  O459  1  0.65555444  0.32749877  0.17920060  1
  O2-  O460  1  0.67988080  0.33980797  0.49976072  1
  O2-  O461  1  0.66138495  0.33488033  0.84925137  1
  O2-  O462  1  0.69250130  0.60174236  0.16457829  1
  O2-  O463  1  0.68963815  0.60279957  0.54814035  1
  O2-  O464  1  0.66761231  0.58838878  0.84749735  1
  O2-  O465  1  0.67029316  0.83062396  0.19276517  1
  O2-  O466  1  0.66657364  0.83151261  0.51443467  1
  O2-  O467  1  0.66423184  0.82731273  0.83858649  1
  O2-  O468  1  0.91620726  0.08566713  0.18707322  1
  O2-  O469  1  0.93285870  0.10458497  0.52146600  1
  O2-  O470  1  0.91610684  0.07560579  0.85296538  1
  O2-  O471  1  0.92123310  0.32248328  0.17764951  1
  O2-  O472  1  0.92007469  0.33538196  0.53565380  1
  O2-  O473  1  0.93754515  0.40268650  0.88769007  1
  O2-  O474  1  0.92674163  0.61120449  0.19658040  1
  O2-  O475  1  0.92409251  0.58202856  0.51767827  1
  O2-  O476  1  0.91055045  0.58642505  0.84814412  1
  O2-  O477  1  0.92017750  0.83589674  0.18551126  1
  O2-  O478  1  0.91835611  0.83986684  0.52126985  1
  O2-  O479  1  0.91362559  0.81961988  0.87761413  1
  O2-  O480  1  0.17237250  0.08338198  0.30983307  1
  O2-  O481  1  0.16869394  0.10542618  0.63518229  1
  O2-  O482  1  0.17520631  0.07485213  0.98005423  1
  O2-  O483  1  0.15732153  0.33155317  0.31606712  1
  O2-  O484  1  0.15371792  0.33394118  0.64033375  1
  O2-  O485  1  0.18459050  0.33410421  0.98373897  1
  O2-  O486  1  0.15252475  0.57394528  0.31129179  1
  O2-  O487  1  0.16163534  0.59516819  0.64713095  1
  O2-  O488  1  0.16815622  0.58468691  0.96978005  1
  O2-  O489  1  0.17041716  0.83211370  0.30731619  1
  O2-  O490  1  0.16019399  0.82417119  0.64595886  1
  O2-  O491  1  0.17638500  0.83263366  0.98612849  1
  O2-  O492  1  0.41619869  0.10099515  0.31411306  1
  O2-  O493  1  0.41607593  0.08583067  0.65067410  1
  O2-  O494  1  0.39007369  0.09750410  0.99455597  1
  O2-  O495  1  0.39170453  0.32583869  0.30356551  1
  O2-  O496  1  0.43759250  0.34101003  0.63712969  1
  O2-  O497  1  0.42413310  0.31195577  0.96805207  1
  O2-  O498  1  0.40138840  0.58105164  0.30664489  1
  O2-  O499  1  0.40468505  0.58896436  0.64187201  1
  O2-  O500  1  0.41724917  0.57722499  0.98361725  1
  O2-  O501  1  0.41946011  0.82435083  0.30306428  1
  O2-  O502  1  0.41525344  0.83693248  0.65318170  1
  O2-  O503  1  0.41201961  0.83068977  0.97906388  1
  O2-  O504  1  0.66715760  0.07856639  0.30623648  1
  O2-  O505  1  0.67033514  0.09102099  0.62986453  1
  O2-  O506  1  0.66541458  0.08405934  0.97676896  1
  O2-  O507  1  0.64596484  0.32403284  0.30094410  1
  O2-  O508  1  0.67322889  0.33601979  0.65368695  1
  O2-  O509  1  0.66237838  0.31567726  0.96600800  1
  O2-  O510  1  0.64895498  0.57151347  0.28873168  1
  O2-  O511  1  0.67761382  0.58307933  0.66292466  1
  O2-  O512  1  0.71370400  0.62013882  0.96723444  1
  O2-  O513  1  0.66908316  0.83460714  0.31144882  1
  O2-  O514  1  0.65139763  0.84063979  0.63717973  1
  O2-  O515  1  0.68039522  0.78933586  0.95836687  1
  O2-  O516  1  0.90901892  0.07700802  0.30879252  1
  O2-  O517  1  0.92813773  0.10317893  0.63805829  1
  O2-  O518  1  0.91745656  0.09364343  0.97440286  1
  O2-  O519  1  0.90521934  0.33565964  0.29708543  1
  O2-  O520  1  0.90183913  0.31897697  0.65019666  1
  O2-  O521  1  0.88057170  0.33871272  0.99331835  1
  O2-  O522  1  0.90969152  0.59784557  0.31344050  1
  O2-  O523  1  0.92457508  0.55718672  0.63698501  1
  O2-  O524  1  0.92724753  0.60284023  0.96492820  1
  O2-  O525  1  0.94685790  0.84302285  0.30864514  1
  O2-  O526  1  0.91320821  0.84667755  0.65268831  1
  O2-  O527  1  0.85014686  0.77390443  0.99230347  1
  O2-  O528  1  0.07225030  0.12792525  0.03431815  1
  O2-  O529  1  0.08498678  0.16743038  0.33945511  1
  O2-  O530  1  0.08038706  0.17823413  0.69270069  1
  O2-  O531  1  0.10057206  0.42664526  0.02199126  1
  O2-  O532  1  0.06539080  0.40411909  0.35587979  1
  O2-  O533  1  0.14666273  0.46050435  0.71398923  1
  O2-  O534  1  0.08596744  0.66702349  0.01997138  1
  O2-  O535  1  0.07671914  0.66715542  0.34969107  1
  O2-  O536  1  0.05892912  0.66698075  0.68624482  1
  O2-  O537  1  0.08780875  0.91574723  0.02411097  1
  O2-  O538  1  0.10063065  0.92076813  0.35252683  1
  O2-  O539  1  0.07521317  0.88997477  0.69873869  1
  O2-  O540  1  0.34837032  0.13775453  0.01391520  1
  O2-  O541  1  0.33231043  0.17336290  0.35639792  1
  O2-  O542  1  0.30003838  0.11143530  0.69887890  1
  O2-  O543  1  0.35253794  0.41120442  0.01773523  1
  O2-  O544  1  0.32272494  0.41535681  0.35152081  1
  O2-  O545  1  0.29453447  0.45157835  0.70477922  1
  O2-  O546  1  0.32828822  0.66632393  0.02338682  1
  O2-  O547  1  0.32147605  0.66360502  0.35067284  1
  O2-  O548  1  0.32392657  0.67372833  0.68682598  1
  O2-  O549  1  0.33485691  0.92308022  0.02542541  1
  O2-  O550  1  0.33737103  0.91647438  0.32040977  1
  O2-  O551  1  0.33249965  0.92058594  0.68273107  1
  O2-  O552  1  0.57348967  0.16493684  0.00867395  1
  O2-  O553  1  0.57994658  0.16822518  0.35919862  1
  O2-  O554  1  0.57635309  0.16329823  0.68840520  1
  O2-  O555  1  0.56245396  0.34260173  0.03588389  1
  O2-  O556  1  0.55500773  0.40680277  0.32014581  1
  O2-  O557  1  0.59656621  0.42562770  0.69047728  1
  O2-  O558  1  0.55552017  0.69576624  0.04247463  1
  O2-  O559  1  0.56426710  0.65798308  0.33322169  1
  O2-  O560  1  0.56543275  0.67012966  0.67255473  1
  O2-  O561  1  0.57439633  0.91418986  0.01252152  1
  O2-  O562  1  0.57992042  0.91233687  0.35412431  1
  O2-  O563  1  0.55812860  0.89400330  0.71394197  1
  O2-  O564  1  0.82978754  0.16252764  0.02214708  1
  O2-  O565  1  0.89888457  0.21156371  0.36392024  1
  O2-  O566  1  0.83315788  0.16105668  0.67368180  1
  O2-  O567  1  0.82023353  0.44749362  0.02499334  1
  O2-  O568  1  0.82188390  0.42885933  0.33047297  1
  O2-  O569  1  0.82993341  0.39799414  0.69084080  1
  O2-  O570  1  0.92564505  0.72509027  0.07572300  1
  O2-  O571  1  0.85339250  0.68486671  0.37017773  1
  O2-  O572  1  0.83141085  0.68686461  0.70661280  1
  O2-  O573  1  0.83015068  0.90971082  0.02619568  1
  O2-  O574  1  0.82210312  0.92010489  0.35751326  1
  O2-  O575  1  0.82790063  0.93409669  0.66861995  1
