# generated using pymatgen
data_H2O
_symmetry_space_group_name_H-M   'P 1'
_cell_length_a   17.99058310
_cell_length_b   17.99121949
_cell_length_c   21.99786586
_cell_angle_alpha   89.98557817
_cell_angle_beta   90.01230996
_cell_angle_gamma   120.00000761
_symmetry_Int_Tables_number   1
_chemical_formula_structural   H2O
_chemical_formula_sum   'H384 O192'
_cell_volume   6166.19100698
_cell_formula_units_Z   192
loop_
 _symmetry_equiv_pos_site_id
 _symmetry_equiv_pos_as_xyz
  1  'x, y, z'
loop_
 _atom_type_symbol
 _atom_type_oxidation_number
  H+  1.0
  O2-  -2.0
loop_
 _atom_site_type_symbol
 _atom_site_label
 _atom_site_symmetry_multiplicity
 _atom_site_fract_x
 _atom_site_fract_y
 _atom_site_fract_z
 _atom_site_occupancy
  H+  H0  1  0.50111256  0.34345785  0.34732220  1
  H+  H1  1  0.36431636  0.48650397  0.16036692  1
  H+  H2  1  0.38552843  0.27225631  0.67119680  1
  H+  H3  1  0.59797880  0.47308505  0.15554950  1
  H+  H4  1  0.98564710  0.62001425  0.66325924  1
  H+  H5  1  0.21330048  0.36446797  0.83217941  1
  H+  H6  1  0.32286464  0.91194735  0.71601420  1
  H+  H7  1  0.15579055  0.49257742  0.00511289  1
  H+  H8  1  0.64283261  0.28340988  0.17448960  1
  H+  H9  1  0.17143451  0.58443652  0.23389507  1
  H+  H10  1  0.23383936  0.11151715  0.50315026  1
  H+  H11  1  0.89666701  0.61765641  0.17475639  1
  H+  H12  1  0.62204327  0.23963697  0.34521543  1
  H+  H13  1  1.00533043  0.35924408  0.97811163  1
  H+  H14  1  0.37617807  0.37062938  0.17487955  1
  H+  H15  1  0.89201896  0.51562798  0.50896451  1
  H+  H16  1  0.77469536  0.38176736  0.49796439  1
  H+  H17  1  0.54742794  0.42659361  0.82753426  1
  H+  H18  1  0.78238314  0.89427398  0.01512270  1
  H+  H19  1  0.12982546  0.24333366  0.33035126  1
  H+  H20  1  0.07710193  0.49989310  -0.00997554  1
  H+  H21  1  0.73547916  0.86695842  0.49375275  1
  H+  H22  1  0.11405324  -0.02738640  0.33532829  1
  H+  H23  1  0.12759375  0.85294153  0.16653682  1
  H+  H24  1  0.10949604  0.31300366  0.48923383  1
  H+  H25  1  0.60945862  0.64347870  0.82574120  1
  H+  H26  1  0.97991460  0.85707773  0.33073567  1
  H+  H27  1  0.89309371  0.86689992  0.99647392  1
  H+  H28  1  0.63563693  0.87128494  1.00393382  1
  H+  H29  1  0.13701704  0.14859681  0.16034765  1
  H+  H30  1  0.38993629  0.62006010  0.32045207  1
  H+  H31  1  0.67424153  0.08950006  0.56590503  1
  H+  H32  1  0.37747334  0.83278048  0.17803774  1
  H+  H33  1  0.88385371  0.73951496  0.16119287  1
  H+  H34  1  0.90821869  0.79689422  0.51304673  1
  H+  H35  1  0.90084215  0.60955121  0.51023462  1
  H+  H36  1  0.23819177  0.86840758  0.65120282  1
  H+  H37  1  0.72078342  0.85606146  0.83028568  1
  H+  H38  1  0.97960486  0.36918385  0.17173581  1
  H+  H39  1  0.36295310  0.97980842  0.49797681  1
  H+  H40  1  0.37766763  0.53636657  0.83125248  1
  H+  H41  1  0.86942305  0.36657587  0.65462445  1
  H+  H42  1  0.61612768  0.63940280  -0.00498967  1
  H+  H43  1  0.89218046  0.20946661  0.81255091  1
  H+  H44  1  0.86623651  0.74451778  0.82534659  1
  H+  H45  1  0.14153318  0.51587236  0.49504303  1
  H+  H46  1  0.33983559  0.42003297  0.26382681  1
  H+  H47  1  0.35161645  0.75982059  0.97236518  1
  H+  H48  1  0.84551153  0.49940282  0.68447692  1
  H+  H49  1  0.51159545  0.88174066  0.00016413  1
  H+  H50  1  0.52580623  0.39057186  0.01087678  1
  H+  H51  1  0.63144062  0.75921262  0.32739348  1
  H+  H52  1  0.76339653  0.65040358  0.28562132  1
  H+  H53  1  0.98134750  0.36064805  0.49735852  1
  H+  H54  1  0.22061172  0.10743988  0.32164221  1
  H+  H55  1  0.13660585  0.52285737  0.32835991  1
  H+  H56  1  0.59427181  0.35000150  0.34979073  1
  H+  H57  1  0.61080351  0.73334416  0.82135686  1
  H+  H58  1  0.75742696  0.40798807  0.68379672  1
  H+  H59  1  0.89594710  0.55254717  0.84163926  1
  H+  H60  1  0.85952650  0.49174987  1.01718928  1
  H+  H61  1  0.59633106  0.59210488  0.15747363  1
  H+  H62  1  0.87589453  0.23209886  0.16107933  1
  H+  H63  1  0.11435002  -0.01869641  0.83119828  1
  H+  H64  1  0.90064627  0.78220513  0.66984481  1
  H+  H65  1  0.88562604  0.11314610  0.17669981  1
  H+  H66  1  0.45013724  0.34619213  0.51439289  1
  H+  H67  1  0.11927935  0.97576849  0.67640785  1
  H+  H68  1  0.88886328  0.10487593  -0.00880395  1
  H+  H69  1  0.35736059  0.47227024  0.67119324  1
  H+  H70  1  0.73969902  0.12141953  0.15314161  1
  H+  H71  1  0.78773673  0.88806421  0.66751162  1
  H+  H72  1  0.73217711  0.35834072  0.32917615  1
  H+  H73  1  0.87343698  0.97985724  0.00953968  1
  H+  H74  1  0.12545581  0.24263332  0.15336604  1
  H+  H75  1  0.13461470  0.11785783  0.84202685  1
  H+  H76  1  0.82931853  0.42025829  0.10731215  1
  H+  H77  1  0.14069199  1.01221192  0.50430327  1
  H+  H78  1  0.11643655  0.97387244  0.00501389  1
  H+  H79  1  0.14021150  0.14649009  0.65185265  1
  H+  H80  1  0.92175237  0.35106002  1.00064292  1
  H+  H81  1  0.86532005  0.88482358  0.82324920  1
  H+  H82  1  0.52180129  0.15432345  0.35133739  1
  H+  H83  1  0.77967941  0.13088680  0.33458173  1
  H+  H84  1  0.90265210  0.64230208  0.83453304  1
  H+  H85  1  0.81608581  0.21167746  0.69489436  1
  H+  H86  1  1.02842896  0.62675946  0.49725360  1
  H+  H87  1  0.39918672  0.05096303  0.19405162  1
  H+  H88  1  0.61226747  0.54720944  0.34900049  1
  H+  H89  1  0.68483520  0.10018948  0.89726325  1
  H+  H90  1  0.11342288  0.88295072  0.33625866  1
  H+  H91  1  0.77853743  0.13552411  0.01071345  1
  H+  H92  1  0.38198355  0.28529031  0.17474627  1
  H+  H93  1  0.64454916  0.03572242  0.50497456  1
  H+  H94  1  0.36299528  0.72924701  0.33960152  1
  H+  H95  1  0.01157149  0.62117408  0.34411194  1
  H+  H96  1  0.34063073  0.68215611  0.74708961  1
  H+  H97  1  0.86559420  0.73636366  0.34767930  1
  H+  H98  1  0.87814349  0.50931486  0.33118504  1
  H+  H99  1  0.35725324  0.73420337  0.85573286  1
  H+  H100  1  0.61307674  0.38780230  0.00264604  1
  H+  H101  1  0.42067073  0.93186787  0.79457569  1
  H+  H102  1  0.62828635  0.27401641  0.99804109  1
  H+  H103  1  0.35149044  0.72751627  0.48962901  1
  H+  H104  1  0.40375306  0.32961379  0.85651094  1
  H+  H105  1  0.63357819  0.85974705  0.82714498  1
  H+  H106  1  0.58346797  0.92139163  0.55025810  1
  H+  H107  1  0.35714728  -0.01984660  0.85248683  1
  H+  H108  1  0.65854910  0.82534500  1.05317461  1
  H+  H109  1  0.37898589  1.00988986  0.01123601  1
  H+  H110  1  0.02126476  0.12924666  0.82572792  1
  H+  H111  1  0.11605805  0.48604944  0.15988573  1
  H+  H112  1  0.92519747  0.58503306  0.60472704  1
  H+  H113  1  0.13975200  0.86430267  0.84345899  1
  H+  H114  1  0.77030489  0.86377417  0.33746293  1
  H+  H115  1  0.20263390  0.82242750  0.31064506  1
  H+  H116  1  0.46826040  0.60053134  -0.01229630  1
  H+  H117  1  -0.01848229  0.86538804  -0.00675397  1
  H+  H118  1  0.79748363  0.65603465  0.17078225  1
  H+  H119  1  0.35101486  0.22098484  0.50135130  1
  H+  H120  1  0.77550117  0.14370054  0.49015508  1
  H+  H121  1  0.42175608  0.83542592  0.27242552  1
  H+  H122  1  0.14345965  0.86223849  0.65427225  1
  H+  H123  1  0.73271007  0.37236345  0.17708990  1
  H+  H124  1  0.53457798  0.15147358  0.17059405  1
  H+  H125  1  0.22003951  0.35171484  0.98882605  1
  H+  H126  1  0.21580718  0.61020859  0.84874677  1
  H+  H127  1  0.11224164  0.38669007  0.33349457  1
  H+  H128  1  0.13750137  0.11197666  0.99900947  1
  H+  H129  1  0.00575223  0.33987783  0.64719474  1
  H+  H130  1  0.17025319  0.33263425  0.61362723  1
  H+  H131  1  0.35680781  0.38234073  1.01211105  1
  H+  H132  1  1.02211675  0.38424226  0.34050016  1
  H+  H133  1  0.88922903  1.01163369  0.83872072  1
  H+  H134  1  0.35581005  0.87531722  -0.00496369  1
  H+  H135  1  0.83915667  0.92311488  0.10630210  1
  H+  H136  1  0.12258564  0.24231937  0.67412200  1
  H+  H137  1  0.92357056  0.83583715  0.23537742  1
  H+  H138  1  1.02941082  0.88369570  0.15819988  1
  H+  H139  1  0.46788005  0.85449643  0.50497333  1
  H+  H140  1  0.50997565  0.88139495  0.68589563  1
  H+  H141  1  0.64827779  0.57886509  0.21068781  1
  H+  H142  1  0.91910638  0.07509757  0.93122194  1
  H+  H143  1  0.14327823  0.77761549  0.83947772  1
  H+  H144  1  0.64165346  0.77811233  0.49594190  1
  H+  H145  1  0.51551525  0.63722810  0.15377021  1
  H+  H146  1  0.52777013  0.15830861  0.84193242  1
  H+  H147  1  0.86589908  -0.01659129  0.48859776  1
  H+  H148  1  0.62598473  0.39126837  0.15713172  1
  H+  H149  1  1.01326162  0.16450972  0.49826551  1
  H+  H150  1  0.27427390  0.88827031  0.49393753  1
  H+  H151  1  0.12705462  0.88954402  0.49375500  1
  H+  H152  1  0.67137229  0.08568383  0.10162383  1
  H+  H153  1  0.12962286  0.38539776  0.67858964  1
  H+  H154  1  0.12103625  0.63845071  0.67225371  1
  H+  H155  1  0.27304835  0.63929211  0.33766841  1
  H+  H156  1  0.71460137  0.36714604  -0.00185986  1
  H+  H157  1  0.74697573  0.63700074  0.83645241  1
  H+  H158  1  0.38871597  0.61969991  0.67209673  1
  H+  H159  1  0.64531059  1.01580773  0.32046021  1
  H+  H160  1  0.03251586  0.65252961  0.82160825  1
  H+  H161  1  0.40858266  0.32819495  0.26616619  1
  H+  H162  1  0.63369701  0.76970935  0.16651937  1
  H+  H163  1  0.62137494  0.14790946  0.15720262  1
  H+  H164  1  0.36615782  0.73466140  0.68443904  1
  H+  H165  1  0.37671364  0.53056447  0.51233666  1
  H+  H166  1  0.22416321  0.19928172  0.61309337  1
  H+  H167  1  0.52078514  0.38915151  0.68067376  1
  H+  H168  1  0.27942976  0.62049940  0.15393094  1
  H+  H169  1  0.86897946  0.64165111  0.67533478  1
  H+  H170  1  0.37249562  0.18536077  0.82181906  1
  H+  H171  1  0.26828868  0.13114827  1.01415965  1
  H+  H172  1  0.37341868  0.86516833  0.65803631  1
  H+  H173  1  0.72520305  0.09979134  0.65949349  1
  H+  H174  1  0.23304505  0.61606739  0.49299481  1
  H+  H175  1  0.61510839  0.14116126  0.49572166  1
  H+  H176  1  0.52263755  0.12435986  0.66425064  1
  H+  H177  1  0.36576194  0.48875417  0.31445002  1
  H+  H178  1  0.60193703  0.44483978  0.76581036  1
  H+  H179  1  0.23557575  0.13381814  0.17157286  1
  H+  H180  1  0.98644187  0.12276312  0.32134265  1
  H+  H181  1  0.62520061  0.35381856  0.66028975  1
  H+  H182  1  0.63850874  0.85124139  0.32349694  1
  H+  H183  1  0.02668112  0.62934376  0.15729726  1
  H+  H184  1  0.51605528  0.12708214  0.81559651  1
  H+  H185  1  0.63444398  0.61399924  0.66165924  1
  H+  H186  1  0.88809686  0.26891912  0.32699688  1
  H+  H187  1  0.30219228  0.92398461  0.34673259  1
  H+  H188  1  0.38400076  0.26141931  1.01445547  1
  H+  H189  1  0.13241939  0.36949172  0.16336426  1
  H+  H190  1  0.51564305  0.13417271  0.01274678  1
  H+  H191  1  0.61141207  0.47612155  0.67321687  1
  H+  H192  1  0.35213649  0.22500192  0.34018440  1
  H+  H193  1  0.89554664  0.12080596  0.32525008  1
  H+  H194  1  0.27385610  0.13818951  0.67003413  1
  H+  H195  1  0.77883231  0.64008586  0.67371858  1
  H+  H196  1  0.37079502  0.15469264  0.16975081  1
  H+  H197  1  0.13232348  0.60702194  0.49627358  1
  H+  H198  1  0.29169148  0.61347438  0.05682584  1
  H+  H199  1  0.74421657  0.11503538  0.83968697  1
  H+  H200  1  0.89272664  0.86859445  0.17768833  1
  H+  H201  1  0.22077624  0.85642393  0.98980902  1
  H+  H202  1  0.80427732  0.65746745  0.50886590  1
  H+  H203  1  0.85696254  0.41452917  0.83188352  1
  H+  H204  1  0.26519130  0.40621031  0.49046596  1
  H+  H205  1  0.64707585  0.53125821  0.99011687  1
  H+  H206  1  -0.01613161  0.86942198  0.84038761  1
  H+  H207  1  0.86884404  0.35371983  0.68732036  1
  H+  H208  1  0.61472199  0.23075133  0.49909648  1
  H+  H209  1  0.61131853  0.88100873  0.16064968  1
  H+  H210  1  0.35636856  0.41212134  0.81932988  1
  H+  H211  1  0.10593506  0.22304839  0.82438567  1
  H+  H212  1  0.23260781  0.61740037  0.67393790  1
  H+  H213  1  0.37496182  0.61887818  0.50819770  1
  H+  H214  1  0.13285792  0.60954834  0.32918698  1
  H+  H215  1  0.24995388  0.84977482  0.15639999  1
  H+  H216  1  0.88794237  0.36305594  0.17444871  1
  H+  H217  1  0.65105250  0.59431595  0.46832736  1
  H+  H218  1  0.12180965  0.72839006  0.66577363  1
  H+  H219  1  0.52398686  0.63663184  0.67192222  1
  H+  H220  1  0.86966295  0.73300308  1.00574849  1
  H+  H221  1  0.39966465  0.87189474  0.33325019  1
  H+  H222  1  0.36263455  0.65063666  0.84014497  1
  H+  H223  1  0.35737163  0.47160862  1.00226491  1
  H+  H224  1  0.13386599  0.10902604  0.31866204  1
  H+  H225  1  0.86615727  0.47833656  0.16675519  1
  H+  H226  1  0.11488298  0.22347215  0.00241977  1
  H+  H227  1  0.70140400  0.54493131  0.47127660  1
  H+  H228  1  0.52607375  0.88200645  0.33926817  1
  H+  H229  1  0.09428242  0.67652164  0.76349429  1
  H+  H230  1  0.14161691  0.77391624  0.50570805  1
  H+  H231  1  0.65269906  0.77412805  0.65354640  1
  H+  H232  1  0.88687217  0.11735712  0.66135900  1
  H+  H233  1  0.87158788  0.98153990  0.67126172  1
  H+  H234  1  0.38332457  0.09709783  0.65564163  1
  H+  H235  1  0.87524383  0.59634600  0.33258290  1
  H+  H236  1  0.33389592  0.08728143  0.83249592  1
  H+  H237  1  0.63584594  0.11771220  0.00210128  1
  H+  H238  1  0.35570039  0.86588620  0.83967969  1
  H+  H239  1  0.98375869  0.60942403  1.00431735  1
  H+  H240  1  0.22164614  0.11250296  0.84249004  1
  H+  H241  1  0.84957291  0.28696205  0.83697445  1
  H+  H242  1  0.66520256  0.16214112  0.80235502  1
  H+  H243  1  0.34251557  0.38936119  0.50507210  1
  H+  H244  1  0.60390287  0.96165314  0.68530384  1
  H+  H245  1  0.52312211  0.86844817  0.80510184  1
  H+  H246  1  0.22603834  0.37376957  0.31046729  1
  H+  H247  1  0.46839268  0.54219496  0.20142854  1
  H+  H248  1  0.38401080  0.36049610  0.32450207  1
  H+  H249  1  0.60841930  0.72391176  -0.00532995  1
  H+  H250  1  0.91816712  0.24877990  0.64659427  1
  H+  H251  1  0.47570640  0.85733269  0.18065541  1
  H+  H252  1  0.86407245  0.37925868  0.34253455  1
  H+  H253  1  0.15059346  0.65997908  0.01325744  1
  H+  H254  1  0.60458689  0.50278501  0.34287107  1
  H+  H255  1  0.87426273  0.21599121  1.00271327  1
  H+  H256  1  0.34385023  0.92741036  0.14764880  1
  H+  H257  1  0.38074684  0.36035194  0.66895551  1
  H+  H258  1  0.63070423  0.02571713  0.99956615  1
  H+  H259  1  0.62984583  0.35490549  0.50957976  1
  H+  H260  1  0.83852666  0.39519483  0.00861386  1
  H+  H261  1  0.90026239  0.62088306  1.00299917  1
  H+  H262  1  0.11391725  0.88284950  1.00154216  1
  H+  H263  1  0.47097978  0.11343388  0.50830745  1
  H+  H264  1  0.38296840  0.86208984  0.50402526  1
  H+  H265  1  0.16131354  0.82753085  0.93023756  1
  H+  H266  1  0.09528150  0.71237418  0.33783324  1
  H+  H267  1  0.37382909  1.00020353  0.65341914  1
  H+  H268  1  0.02533136  0.13290444  0.00742720  1
  H+  H269  1  0.77370135  0.88687210  0.16339871  1
  H+  H270  1  0.38925561  0.12969849  0.33871915  1
  H+  H271  1  0.71691783  0.37047980  0.84277375  1
  H+  H272  1  0.08295415  0.43641445  0.09682438  1
  H+  H273  1  0.99252549  0.88471806  0.50307710  1
  H+  H274  1  0.36346511  0.61505795  0.14428521  1
  H+  H275  1  0.11993557  0.72752003  0.00574135  1
  H+  H276  1  0.88215549  0.11521096  0.50650065  1
  H+  H277  1  0.41058719  0.07710277  0.56808162  1
  H+  H278  1  0.12349655  0.36032566  0.83757934  1
  H+  H279  1  0.13833677  0.19400967  0.38736406  1
  H+  H280  1  0.13004968  0.61149155  0.83849299  1
  H+  H281  1  0.22469707  0.37502163  0.16625413  1
  H+  H282  1  0.14542286  0.61550224  0.17319340  1
  H+  H283  1  0.83618749  0.16384034  0.39606430  1
  H+  H284  1  0.58785066  0.64365853  0.52221090  1
  H+  H285  1  0.14700569  0.52750278  0.66664441  1
  H+  H286  1  0.86767098  0.22947475  0.48742800  1
  H+  H287  1  0.52188942  0.63493155  0.34136187  1
  H+  H288  1  0.86397797  0.38035991  0.49731313  1
  H+  H289  1  0.62975348  0.26648629  0.65393014  1
  H+  H290  1  0.08771606  0.41460217  0.73164385  1
  H+  H291  1  0.40991718  0.59242462  0.60812171  1
  H+  H292  1  0.67096325  0.33089640  0.26921305  1
  H+  H293  1  0.40863068  0.82793220  0.60568823  1
  H+  H294  1  0.57857212  0.17281867  0.06987383  1
  H+  H295  1  0.43245763  0.07219123  0.86313319  1
  H+  H296  1  0.91955094  0.58170335  0.23432850  1
  H+  H297  1  0.60372753  0.16879630  0.71315235  1
  H+  H298  1  0.33543215  0.16991991  0.10630604  1
  H+  H299  1  0.90704688  0.33089717  0.89482497  1
  H+  H300  1  0.92241348  0.83911554  0.89964442  1
  H+  H301  1  0.26363665  0.37824629  0.67243436  1
  H+  H302  1  0.58444823  0.66710643  0.73041173  1
  H+  H303  1  0.66516257  0.33173833  0.56902523  1
  H+  H304  1  0.09004675  0.66291807  0.09828609  1
  H+  H305  1  0.05033490  0.19879384  0.43394768  1
  H+  H306  1  0.14496878  0.81458526  0.25473056  1
  H+  H307  1  0.32231730  0.16616782  0.40093306  1
  H+  H308  1  0.83465658  0.15363080  0.75013248  1
  H+  H309  1  0.85376250  0.67974703  0.44646692  1
  H+  H310  1  0.88719380  0.85341520  0.32966365  1
  H+  H311  1  0.12520788  0.75950658  0.16877078  1
  H+  H312  1  0.08432328  0.16747735  0.72863369  1
  H+  H313  1  0.58134202  0.44789715  0.49300910  1
  H+  H314  1  0.68472088  0.83096303  0.59340593  1
  H+  H315  1  0.08573343  0.90723567  0.09766556  1
  H+  H316  1  0.81717433  0.44642925  0.77917829  1
  H+  H317  1  0.16896365  0.08676558  0.93859103  1
  H+  H318  1  0.32332222  0.14189434  0.73125179  1
  H+  H319  1  0.91821138  0.33127096  0.26883610  1
  H+  H320  1  0.16067298  0.32091830  0.92924428  1
  H+  H321  1  0.40393086  0.04745939  0.34011404  1
  H+  H322  1  0.90450632  0.87291426  0.66735225  1
  H+  H323  1  0.72288805  0.70320292  0.26022052  1
  H+  H324  1  0.17071804  0.83450582  0.56575776  1
  H+  H325  1  0.66744117  0.58401853  0.60389140  1
  H+  H326  1  0.91746779  0.08508259  0.24493136  1
  H+  H327  1  0.59154127  0.91580138  0.39459594  1
  H+  H328  1  0.16626173  0.09146430  0.56188213  1
  H+  H329  1  0.39728571  0.32206436  0.57584454  1
  H+  H330  1  0.97878403  0.12366437  0.65893560  1
  H+  H331  1  0.43268402  0.11295972  0.24979336  1
  H+  H332  1  0.58725646  0.17985622  0.41384128  1
  H+  H333  1  0.67334772  0.07666949  0.26329201  1
  H+  H334  1  0.31997199  0.42534717  0.75765364  1
  H+  H335  1  0.10021238  0.92374845  0.43322989  1
  H+  H336  1  0.57423395  0.66253405  0.40333259  1
  H+  H337  1  0.85108448  0.17170896  0.10094792  1
  H+  H338  1  0.93419741  0.31933602  0.55910067  1
  H+  H339  1  0.65743123  0.24546085  0.80051687  1
  H+  H340  1  0.84047159  0.67494030  0.06586696  1
  H+  H341  1  0.62117272  0.88677598  0.50220601  1
  H+  H342  1  0.83298653  0.40759540  0.40296323  1
  H+  H343  1  0.56282416  0.90849651  0.06377609  1
  H+  H344  1  0.50259150  0.63828834  0.50060287  1
  H+  H345  1  0.09459217  0.17502393  0.09388400  1
  H+  H346  1  0.40645950  0.57406291  0.93086745  1
  H+  H347  1  0.59453840  0.41800948  0.08946373  1
  H+  H348  1  0.10836607  0.48159204  0.82870717  1
  H+  H349  1  0.15787741  0.33696144  0.25703920  1
  H+  H350  1  0.41302970  0.30666194  0.95260323  1
  H+  H351  1  0.65327653  0.31616522  0.89442347  1
  H+  H352  1  0.32704352  0.66794610  0.42823881  1
  H+  H353  1  0.35887179  0.13432250  0.49732101  1
  H+  H354  1  0.64856633  0.53149977  0.83195386  1
  H+  H355  1  0.87307582  0.89843532  0.48898980  1
  H+  H356  1  0.73698648  0.62075162  -0.00699944  1
  H+  H357  1  0.32654396  0.42417487  0.09980555  1
  H+  H358  1  0.34964741  0.93374743  0.40926618  1
  H+  H359  1  0.31857106  0.88124380  0.06021208  1
  H+  H360  1  0.91471793  0.08849081  0.56665684  1
  H+  H361  1  0.87870351  0.01605026  0.17942348  1
  H+  H362  1  0.16564393  0.09453146  0.22608353  1
  H+  H363  1  0.57146501  0.66705021  0.08958286  1
  H+  H364  1  0.83355014  0.68078884  0.76532952  1
  H+  H365  1  0.77303643  0.68405550  0.37778461  1
  H+  H366  1  1.01708730  0.39452720  0.82252087  1
  H+  H367  1  0.35479813  0.12433827  0.01816705  1
  H+  H368  1  0.63776793  0.10202864  0.65167668  1
  H+  H369  1  0.68381104  0.59573364  0.89999400  1
  H+  H370  1  0.47213158  0.62007757  0.83574267  1
  H+  H371  1  0.39336688  0.06057759  0.95138755  1
  H+  H372  1  0.43941260  0.41457244  0.89507939  1
  H+  H373  1  0.09074928  0.92245987  0.77114436  1
  H+  H374  1  0.55147202  0.37367499  0.44187859  1
  H+  H375  1  0.02929411  0.88722826  0.67925971  1
  H+  H376  1  0.42630588  0.59164835  0.26035546  1
  H+  H377  1  0.66313901  0.82290779  0.22952775  1
  H+  H378  1  0.61336738  -0.02928959  0.15603097  1
  H+  H379  1  0.88822728  0.09948684  0.83527296  1
  H+  H380  1  0.83840733  0.91687657  0.76324050  1
  H+  H381  1  0.08237481  0.65853748  0.43494457  1
  H+  H382  1  0.09639144  0.41206036  0.42612885  1
  H+  H383  1  0.83291408  0.90446450  0.39530063  1
  O2-  O384  1  0.10076433  0.18042828  0.14043637  1
  O2-  O385  1  0.06709700  0.20852383  0.47666187  1
  O2-  O386  1  0.08197552  0.16240696  0.81012353  1
  O2-  O387  1  0.08169201  0.42673429  0.14106139  1
  O2-  O388  1  0.09683521  0.41542653  0.47285519  1
  O2-  O389  1  0.07828437  0.41938500  0.81290824  1
  O2-  O390  1  0.08782954  0.66160591  0.14427973  1
  O2-  O391  1  0.08865874  0.65799200  0.48024390  1
  O2-  O392  1  0.09443999  0.67742629  0.80884856  1
  O2-  O393  1  0.08827145  0.90429554  0.14283979  1
  O2-  O394  1  0.10296204  0.92676405  0.47880918  1
  O2-  O395  1  0.08614240  0.92088949  0.81650861  1
  O2-  O396  1  0.33695356  0.17867949  0.15155266  1
  O2-  O397  1  0.32475809  0.16158763  0.48248121  1
  O2-  O398  1  0.32240595  0.13063422  0.81130988  1
  O2-  O399  1  0.32419808  0.42434302  0.14536141  1
  O2-  O400  1  0.32775949  0.43080715  0.48743353  1
  O2-  O401  1  0.31759411  0.43116185  0.80379379  1
  O2-  O402  1  0.32877658  0.63738164  0.12633573  1
  O2-  O403  1  0.32074709  0.66615718  0.47418868  1
  O2-  O404  1  0.33180501  0.68184360  0.82898448  1
  O2-  O405  1  0.30849139  0.86667058  0.13858509  1
  O2-  O406  1  0.33582792  0.92041387  0.47979574  1
  O2-  O407  1  0.36201497  0.90953735  0.80908562  1
  O2-  O408  1  0.59126310  0.18094986  0.14964857  1
  O2-  O409  1  0.58373740  0.17104015  0.48068354  1
  O2-  O410  1  0.66282840  0.20383134  0.77366050  1
  O2-  O411  1  0.59189239  0.41567987  0.13639372  1
  O2-  O412  1  0.55401550  0.38554803  0.48757994  1
  O2-  O413  1  0.60651030  0.45588751  0.81127263  1
  O2-  O414  1  0.57662091  0.67098178  0.13467324  1
  O2-  O415  1  0.56596928  0.66290763  0.48886466  1
  O2-  O416  1  0.57761779  0.66905636  0.80758825  1
  O2-  O417  1  0.57902769  0.90930919  0.14529080  1
  O2-  O418  1  0.58544149  0.91632329  0.50606370  1
  O2-  O419  1  0.58405252  0.91277011  0.80200548  1
  O2-  O420  1  0.84751724  0.17069448  0.14657530  1
  O2-  O421  1  0.83463694  0.16834708  0.47287942  1
  O2-  O422  1  0.84553622  0.15212856  0.80306382  1
  O2-  O423  1  0.83324581  0.41697869  0.15256283  1
  O2-  O424  1  0.83458560  0.41144535  0.48156392  1
  O2-  O425  1  0.82489295  0.44479520  0.82483596  1
  O2-  O426  1  0.85127830  0.67739633  0.14807711  1
  O2-  O427  1  0.86138691  0.67865068  0.49115249  1
  O2-  O428  1  0.83060691  0.68286309  0.81104203  1
  O2-  O429  1  0.83599064  0.92228469  0.15213693  1
  O2-  O430  1  0.83754790  0.92337541  0.47278916  1
  O2-  O431  1  0.83460563  0.91469948  0.80889623  1
  O2-  O432  1  0.17281498  0.10802214  0.18172142  1
  O2-  O433  1  0.16961598  0.07770356  0.51714026  1
  O2-  O434  1  0.16355346  0.08720283  0.86032315  1
  O2-  O435  1  0.16229678  0.33942160  0.17965667  1
  O2-  O436  1  0.14790835  0.37743102  0.49442723  1
  O2-  O437  1  0.15434935  0.32885430  0.84919360  1
  O2-  O438  1  0.17292932  0.58271978  0.18864659  1
  O2-  O439  1  0.16838368  0.57838125  0.50769252  1
  O2-  O440  1  0.15302004  0.57539793  0.85550854  1
  O2-  O441  1  0.15588770  0.81998177  0.18544843  1
  O2-  O442  1  0.17104230  0.83487654  0.51842848  1
  O2-  O443  1  0.16955316  0.83504581  0.85998889  1
  O2-  O444  1  0.43317402  0.11173954  0.20385414  1
  O2-  O445  1  0.40992772  0.08264904  0.52117921  1
  O2-  O446  1  0.37129746  0.03642601  0.87337444  1
  O2-  O447  1  0.40614322  0.34263484  0.19397892  1
  O2-  O448  1  0.39015733  0.31809754  0.53053204  1
  O2-  O449  1  0.44122233  0.39169471  0.85519571  1
  O2-  O450  1  0.43602607  0.57114307  0.19180709  1
  O2-  O451  1  0.40755598  0.59269989  0.52581525  1
  O2-  O452  1  0.41278604  0.59175296  0.85301696  1
  O2-  O453  1  0.42011871  0.82675271  0.20245185  1
  O2-  O454  1  0.40651085  0.82455127  0.51679279  1
  O2-  O455  1  0.39915663  0.82745977  0.89694771  1
  O2-  O456  1  0.67567426  0.09017046  0.14620001  1
  O2-  O457  1  0.67261100  0.09574041  0.51965312  1
  O2-  O458  1  0.68691562  0.10410631  0.85303301  1
  O2-  O459  1  0.67055949  0.34382053  0.19037619  1
  O2-  O460  1  0.66670978  0.33098107  0.52272962  1
  O2-  O461  1  0.65794792  0.32153034  0.84996060  1
  O2-  O462  1  0.60119570  0.54668056  0.18119743  1
  O2-  O463  1  0.67401827  0.56896385  0.49674686  1
  O2-  O464  1  0.68302437  0.59920490  0.85378512  1
  O2-  O465  1  0.66622771  0.82940413  0.18405172  1
  O2-  O466  1  0.67447181  0.83857540  0.50939537  1
  O2-  O467  1  0.65977428  0.82507137  0.84300991  1
  O2-  O468  1  0.91030454  0.07828671  0.19498936  1
  O2-  O469  1  0.91644820  0.08878886  0.52092926  1
  O2-  O470  1  0.91981866  0.07236086  0.85507265  1
  O2-  O471  1  0.91980228  0.33364702  0.18806359  1
  O2-  O472  1  0.92327535  0.33118554  0.51528052  1
  O2-  O473  1  0.89916826  0.33973107  0.85145250  1
  O2-  O474  1  0.92200007  0.58226696  0.18918784  1
  O2-  O475  1  0.92820539  0.57614925  0.52373470  1
  O2-  O476  1  0.93540049  0.61499575  0.84818526  1
  O2-  O477  1  0.92381497  0.83823764  0.18996292  1
  O2-  O478  1  0.93144978  0.85914765  0.51400933  1
  O2-  O479  1  0.92223665  0.83924219  0.85419241  1
  O2-  O480  1  0.16133846  0.07607504  0.30419240  1
  O2-  O481  1  0.18686700  0.13995254  0.62621826  1
  O2-  O482  1  0.17038548  0.08400958  0.98405107  1
  O2-  O483  1  0.16228946  0.33812888  0.30270619  1
  O2-  O484  1  0.17517487  0.32973522  0.65750367  1
  O2-  O485  1  0.16001171  0.31558085  0.97431137  1
  O2-  O486  1  0.16697488  0.58358711  0.31382971  1
  O2-  O487  1  0.17446633  0.58916737  0.65549140  1
  O2-  O488  1  0.25369889  0.67064847  1.00073854  1
  O2-  O489  1  0.14546675  0.81288877  0.30197485  1
  O2-  O490  1  0.17286489  0.83393774  0.63529699  1
  O2-  O491  1  0.15953146  0.82702273  0.97710648  1
  O2-  O492  1  0.42918077  0.10802528  0.32507848  1
  O2-  O493  1  0.41132548  0.06671690  0.63826529  1
  O2-  O494  1  0.40550805  0.07071440  0.99571518  1
  O2-  O495  1  0.40703115  0.32278043  0.31237696  1
  O2-  O496  1  0.41382048  0.33157674  0.65454925  1
  O2-  O497  1  0.41604546  0.32096577  0.99553344  1
  O2-  O498  1  0.42260990  0.59179048  0.30740457  1
  O2-  O499  1  0.41511944  0.58774560  0.65270975  1
  O2-  O500  1  0.40764601  0.56458657  0.97538830  1
  O2-  O501  1  0.42379432  0.83619710  0.31918030  1
  O2-  O502  1  0.40731471  0.83331557  0.65010523  1
  O2-  O503  1  0.39974679  0.81983854  0.96327178  1
  O2-  O504  1  0.67861110  0.07689097  0.30728170  1
  O2-  O505  1  0.66758761  0.07037965  0.63834973  1
  O2-  O506  1  0.67048491  0.08890239  0.99677384  1
  O2-  O507  1  0.67096339  0.32573955  0.31451409  1
  O2-  O508  1  0.65857504  0.32895659  0.64226876  1
  O2-  O509  1  0.65536092  0.33369665  0.98133034  1
  O2-  O510  1  0.73671772  0.65892003  0.24920320  1
  O2-  O511  1  0.66645475  0.58305196  0.64819365  1
  O2-  O512  1  0.67794630  0.59086495  0.97388619  1
  O2-  O513  1  0.66451563  0.81775035  0.30750282  1
  O2-  O514  1  0.69210233  0.83217707  0.63775742  1
  O2-  O515  1  0.66892966  0.84096751  1.01030320  1
  O2-  O516  1  0.92724862  0.09359880  0.30588728  1
  O2-  O517  1  0.91821875  0.08992197  0.64397673  1
  O2-  O518  1  0.92150925  0.07690089  0.97725312  1
  O2-  O519  1  0.91788958  0.33096734  0.31423181  1
  O2-  O520  1  0.96081023  0.29481317  0.62035341  1
  O2-  O521  1  0.94197497  0.32296563  0.97271155  1
  O2-  O522  1  0.90777935  0.57065272  0.31614849  1
  O2-  O523  1  0.92406407  0.59297810  0.64923093  1
  O2-  O524  1  0.92104681  0.57958349  0.99763903  1
  O2-  O525  1  0.92024509  0.82366332  0.31447042  1
  O2-  O526  1  0.93747035  0.84308939  0.65804516  1
  O2-  O527  1  0.92013470  0.83507874  0.97873777  1
  O2-  O528  1  0.08560905  0.16415585  0.02310016  1
  O2-  O529  1  0.10620890  0.18413808  0.34949382  1
  O2-  O530  1  0.08558148  0.17404124  0.68359633  1
  O2-  O531  1  0.09218474  0.45876917  0.00666314  1
  O2-  O532  1  0.08368856  0.41579433  0.35403321  1
  O2-  O533  1  0.09440684  0.41435492  0.68677149  1
  O2-  O534  1  0.10097300  0.66863405  0.02292256  1
  O2-  O535  1  0.07279234  0.65519254  0.35752153  1
  O2-  O536  1  0.08918859  0.66971834  0.68375930  1
  O2-  O537  1  0.08360801  0.91283253  0.01836349  1
  O2-  O538  1  0.08767159  0.91495501  0.35534160  1
  O2-  O539  1  0.09349967  0.91786631  0.69274560  1
  O2-  O540  1  0.32846608  0.15949932  0.03150485  1
  O2-  O541  1  0.32316777  0.16367542  0.35569870  1
  O2-  O542  1  0.33139791  0.15739752  0.68746280  1
  O2-  O543  1  0.32461666  0.41178930  0.02173537  1
  O2-  O544  1  0.33266518  0.42390209  0.30756229  1
  O2-  O545  1  0.32971797  0.41262776  0.68718880  1
  O2-  O546  1  0.26021683  0.59775736  0.01610605  1
  O2-  O547  1  0.33302491  0.66827934  0.35400517  1
  O2-  O548  1  0.34211125  0.67569962  0.70216535  1
  O2-  O549  1  0.32742938  0.90297078  0.01770680  1
  O2-  O550  1  0.35927468  0.94344175  0.36313688  1
  O2-  O551  1  0.32539951  0.91366147  0.67163893  1
  O2-  O552  1  0.57747205  0.16920214  0.02462619  1
  O2-  O553  1  0.58406841  0.18018930  0.36585580  1
  O2-  O554  1  0.58604821  0.15962448  0.66875722  1
  O2-  O555  1  0.58835132  0.42345978  0.02028595  1
  O2-  O556  1  0.54638109  0.34539888  0.37441401  1
  O2-  O557  1  0.58248475  0.41868374  0.69329609  1
  O2-  O558  1  0.57948802  0.66339955  0.00825820  1
  O2-  O559  1  0.58129132  0.66335607  0.35896189  1
  O2-  O560  1  0.58544109  0.66298192  0.68481024  1
  O2-  O561  1  0.56921435  0.91568141  0.01879710  1
  O2-  O562  1  0.58917387  0.91134165  0.35036564  1
  O2-  O563  1  0.57023488  0.90134082  0.69881014  1
  O2-  O564  1  0.83989871  0.16013655  0.02361578  1
  O2-  O565  1  0.84016498  0.16464958  0.35039420  1
  O2-  O566  1  0.82439300  0.16211371  0.69360340  1
  O2-  O567  1  0.81697719  0.42762674  0.03024264  1
  O2-  O568  1  0.83234846  0.40861792  0.35730493  1
  O2-  O569  1  0.79795185  0.45586213  0.70972951  1
  O2-  O570  1  0.83797769  0.67193428  0.02076961  1
  O2-  O571  1  0.82217113  0.67769919  0.36656498  1
  O2-  O572  1  0.83790439  0.67143533  0.69033240  1
  O2-  O573  1  0.84309242  0.92117190  0.02895039  1
  O2-  O574  1  0.83049388  0.88860023  0.35162191  1
  O2-  O575  1  0.84665451  0.92172485  0.68650285  1
