# generated using pymatgen
data_H2O
_symmetry_space_group_name_H-M   'P 1'
_cell_length_a   17.98875879
_cell_length_b   17.98501075
_cell_length_c   21.99728703
_cell_angle_alpha   90.01133552
_cell_angle_beta   89.99796566
_cell_angle_gamma   120.00202081
_symmetry_Int_Tables_number   1
_chemical_formula_structural   H2O
_chemical_formula_sum   'H384 O192'
_cell_volume   6163.15088151
_cell_formula_units_Z   192
loop_
 _symmetry_equiv_pos_site_id
 _symmetry_equiv_pos_as_xyz
  1  'x, y, z'
loop_
 _atom_type_symbol
 _atom_type_oxidation_number
  H+  1.0
  O2-  -2.0
loop_
 _atom_site_type_symbol
 _atom_site_label
 _atom_site_symmetry_multiplicity
 _atom_site_fract_x
 _atom_site_fract_y
 _atom_site_fract_z
 _atom_site_occupancy
  H+  H0  1  0.49102621  0.60972352  0.51047474  1
  H+  H1  1  0.36085915  0.46216048  0.67844420  1
  H+  H2  1  0.40360012  0.03627966  0.84526270  1
  H+  H3  1  0.09707457  0.37315520  0.30267734  1
  H+  H4  1  0.86370888  0.72221701  0.50783038  1
  H+  H5  1  0.68739124  0.13009723  0.00926010  1
  H+  H6  1  0.13768916  1.00817427  0.32752809  1
  H+  H7  1  0.41165948  0.90704243  0.14174286  1
  H+  H8  1  0.37643735  0.23852087  0.82165413  1
  H+  H9  1  0.47524872  0.85669717  0.99654305  1
  H+  H10  1  0.43574395  0.81185202  0.68686587  1
  H+  H11  1  0.17098609  0.58831303  0.93527995  1
  H+  H12  1  0.77527864  0.86726205  0.34008618  1
  H+  H13  1  0.33551023  0.75386055  0.86113294  1
  H+  H14  1  0.01913897  0.87115841  0.82229011  1
  H+  H15  1  0.14355951  0.77927736  0.99434018  1
  H+  H16  1  0.98178737  0.12451334  0.85793284  1
  H+  H17  1  0.12631136  0.60152838  0.31795021  1
  H+  H18  1  0.53531067  0.14690892  0.15733871  1
  H+  H19  1  0.63901528  0.36100271  0.66490904  1
  H+  H20  1  0.86116880  0.72418081  0.82229396  1
  H+  H21  1  0.75879794  0.86042323  0.81874695  1
  H+  H22  1  0.37054572  0.85621516  0.85772778  1
  H+  H23  1  0.52145678  0.38123858  0.67938252  1
  H+  H24  1  0.36008548  0.60099951  0.16161799  1
  H+  H25  1  0.24481784  0.64695217  0.69773557  1
  H+  H26  1  0.97634494  0.86390885  0.50790417  1
  H+  H27  1  0.87516667  0.73172762  1.00762886  1
  H+  H28  1  0.86355492  0.21903160  0.67639831  1
  H+  H29  1  0.67027350  0.36954180  0.16723112  1
  H+  H30  1  0.89768689  0.62014313  0.99204928  1
  H+  H31  1  0.57310264  0.65611647  0.77463325  1
  H+  H32  1  0.27947979  0.93427070  0.30452724  1
  H+  H33  1  0.93017110  0.39324509  0.15411466  1
  H+  H34  1  0.52361992  0.39037567  0.48799971  1
  H+  H35  1  0.63529474  0.85088979  0.83538473  1
  H+  H36  1  0.65912241  0.29613700  0.32538533  1
  H+  H37  1  0.64903292  0.06290831  0.49512535  1
  H+  H38  1  0.26760012  0.63339090  0.00220488  1
  H+  H39  1  0.34744134  0.68390392  0.52195833  1
  H+  H40  1  0.27087238  0.61500037  0.48394972  1
  H+  H41  1  0.43584354  0.13851290  0.72247376  1
  H+  H42  1  0.74087910  0.37615783  0.83496851  1
  H+  H43  1  0.64093490  0.39385514  0.82801222  1
  H+  H44  1  0.28027076  0.86478669  0.19325070  1
  H+  H45  1  0.38166918  -0.01037303  0.69679007  1
  H+  H46  1  0.36976787  0.89720785  0.49928058  1
  H+  H47  1  0.13969309  0.86893741  0.84151217  1
  H+  H48  1  0.12231120  0.74578714  0.83061689  1
  H+  H49  1  0.01735144  0.49600960  0.64199305  1
  H+  H50  1  0.88442582  0.07186232  0.33649900  1
  H+  H51  1  0.62909213  0.86984307  0.51993376  1
  H+  H52  1  0.09906210  0.62991787  0.67227943  1
  H+  H53  1  0.83874846  0.65047015  0.41537525  1
  H+  H54  1  0.13161751  0.01707548  0.66042555  1
  H+  H55  1  0.36369287  0.22553069  0.49588265  1
  H+  H56  1  0.71883141  0.84775630  0.16716684  1
  H+  H57  1  0.35999633  0.25170086  0.33122034  1
  H+  H58  1  0.43766405  0.58474171  0.30927015  1
  H+  H59  1  0.03845843  0.88158240  0.66800738  1
  H+  H60  1  0.63037987  0.72801735  0.52199047  1
  H+  H61  1  0.09010602  0.73857406  0.16669117  1
  H+  H62  1  0.88568099  0.78020497  0.17679426  1
  H+  H63  1  0.63250631  0.16523393  0.33265872  1
  H+  H64  1  0.37025129  0.76690699  0.32610874  1
  H+  H65  1  0.96455809  0.10025421  0.66126553  1
  H+  H66  1  0.78128038  0.89038013  0.49179008  1
  H+  H67  1  0.88532770  0.41092496  0.32584240  1
  H+  H68  1  0.18035652  0.60238538  0.25824492  1
  H+  H69  1  0.64020854  0.61077112  0.66656247  1
  H+  H70  1  0.97527959  0.62169708  0.66664106  1
  H+  H71  1  0.63078880  0.48854796  0.82607995  1
  H+  H72  1  0.90514077  0.11395116  1.01435839  1
  H+  H73  1  0.54206628  0.14792145  0.47790709  1
  H+  H74  1  0.88966460  0.98810131  0.33121936  1
  H+  H75  1  0.63010184  0.23352690  0.82971085  1
  H+  H76  1  0.65599824  0.57304249  0.26279973  1
  H+  H77  1  0.80564307  0.13858421  -0.01646468  1
  H+  H78  1  0.63697617  0.40164525  0.33915924  1
  H+  H79  1  0.55078980  0.37097565  0.15863650  1
  H+  H80  1  0.64844474  0.54012162  0.98563481  1
  H+  H81  1  0.22071791  0.34873321  0.16079111  1
  H+  H82  1  0.67771466  0.06929517  0.33607109  1
  H+  H83  1  0.13003563  0.88487245  0.66877647  1
  H+  H84  1  0.33088716  0.36248811  0.34404697  1
  H+  H85  1  0.14585464  1.10082559  0.32897165  1
  H+  H86  1  0.11318459  0.89073269  0.00325623  1
  H+  H87  1  0.40432689  0.90549356  0.34507973  1
  H+  H88  1  0.87001598  0.39077710  -0.00481348  1
  H+  H89  1  0.35785596  0.59708579  0.31967749  1
  H+  H90  1  0.71814264  0.61177945  0.17477843  1
  H+  H91  1  0.64503999  0.99365111  0.65269982  1
  H+  H92  1  0.87643071  0.84613931  0.82794909  1
  H+  H93  1  0.10822248  0.22951392  0.12390803  1
  H+  H94  1  0.61087073  0.47162521  0.67753415  1
  H+  H95  1  0.27300396  0.13614123  0.49803368  1
  H+  H96  1  0.22452339  0.10284749  0.17020161  1
  H+  H97  1  0.36015721  0.47741580  -0.00227533  1
  H+  H98  1  0.61339928  0.85204965  0.63763087  1
  H+  H99  1  0.62684309  0.75840294  0.84478422  1
  H+  H100  1  0.97799466  0.86271994  0.98486055  1
  H+  H101  1  0.76225351  0.11461439  0.15929973  1
  H+  H102  1  0.11970432  0.39841064  0.54000232  1
  H+  H103  1  0.77498361  0.15403082  0.48844987  1
  H+  H104  1  0.13297959  0.52301023  0.99599920  1
  H+  H105  1  0.74184669  0.37912443  -0.01589579  1
  H+  H106  1  0.09572608  0.12354263  0.68012741  1
  H+  H107  1  0.87025996  -0.02454706  1.00831787  1
  H+  H108  1  0.23035203  0.87143693  -0.00462285  1
  H+  H109  1  0.27995975  0.89850183  0.84255149  1
  H+  H110  1  -0.00787175  0.58331453  0.34253531  1
  H+  H111  1  0.46390810  0.36554803  -0.00645372  1
  H+  H112  1  0.84063558  0.67309421  0.11579031  1
  H+  H113  1  0.11184077  0.13463217  0.83699107  1
  H+  H114  1  0.85332995  0.21325439  0.82994984  1
  H+  H115  1  0.80765723  0.39287048  0.15337902  1
  H+  H116  1  0.32153213  0.40423612  0.43752779  1
  H+  H117  1  0.64488642  0.61020004  0.51971796  1
  H+  H118  1  0.62052193  0.47203067  0.16111368  1
  H+  H119  1  0.60388492  0.71518671  0.66824339  1
  H+  H120  1  0.38838640  0.11828040  0.49563406  1
  H+  H121  1  0.06652648  0.42087789  0.15189709  1
  H+  H122  1  0.86576620  0.63358031  0.51173113  1
  H+  H123  1  0.39391773  1.03409195  -0.01489870  1
  H+  H124  1  0.38841216  0.15380992  0.82170433  1
  H+  H125  1  0.12183133  0.64181131  0.00066358  1
  H+  H126  1  0.38670448  0.90341224  0.68991509  1
  H+  H127  1  0.06023010  0.62989823  0.39724906  1
  H+  H128  1  0.97791500  0.36349074  0.98821624  1
  H+  H129  1  0.13023697  0.29295408  1.01056386  1
  H+  H130  1  0.77510170  0.38739753  0.67232908  1
  H+  H131  1  0.11351148  0.47112297  0.30109158  1
  H+  H132  1  0.15452616  0.30975526  0.25489705  1
  H+  H133  1  0.73177585  0.60625022  0.51899247  1
  H+  H134  1  0.12733737  0.38011534  0.00197376  1
  H+  H135  1  0.84547014  0.23482752  0.00343175  1
  H+  H136  1  0.26690258  0.10082389  0.86587113  1
  H+  H137  1  0.65752948  0.38645305  -0.01718063  1
  H+  H138  1  0.88263708  0.35297804  0.83968658  1
  H+  H139  1  0.10199073  0.21468976  0.68213950  1
  H+  H140  1  0.87703943  0.86962572  0.16431547  1
  H+  H141  1  0.59779883  0.42767154  0.39967993  1
  H+  H142  1  0.83628054  0.87642213  0.65344918  1
  H+  H143  1  0.38126943  0.75741266  0.99870907  1
  H+  H144  1  0.32559224  0.02204167  0.20305943  1
  H+  H145  1  0.61395763  0.47818681  0.49413018  1
  H+  H146  1  0.59107705  0.93120300  0.35854922  1
  H+  H147  1  0.63163018  0.49716680  0.33270417  1
  H+  H148  1  0.50342717  0.88629284  0.51772840  1
  H+  H149  1  0.41777168  0.80631244  0.50057282  1
  H+  H150  1  0.20304499  0.34212708  0.31959831  1
  H+  H151  1  0.26993552  0.83432253  0.16673867  1
  H+  H152  1  0.23958702  0.60398841  0.70653998  1
  H+  H153  1  0.86382056  0.47705809  0.67439538  1
  H+  H154  1  0.76316518  0.62355424  0.67681433  1
  H+  H155  1  0.55644728  0.14605049  0.68379847  1
  H+  H156  1  0.20679240  0.11363222  0.66479831  1
  H+  H157  1  0.31627212  0.11335710  0.67911187  1
  H+  H158  1  0.51569019  0.86855803  0.15924875  1
  H+  H159  1  0.89041941  0.61407669  0.83448958  1
  H+  H160  1  0.55232784  0.91575109  0.66704181  1
  H+  H161  1  1.02758815  0.11422961  0.34166020  1
  H+  H162  1  0.84001837  0.41887209  0.76641401  1
  H+  H163  1  0.39430343  0.60187417  0.65847725  1
  H+  H164  1  0.64178284  0.73061137  0.34597104  1
  H+  H165  1  0.52543495  0.62282642  0.67416327  1
  H+  H166  1  0.03453598  0.14999046  0.02172677  1
  H+  H167  1  0.77754539  0.88988827  0.00300978  1
  H+  H168  1  0.85877587  0.60827004  0.35821481  1
  H+  H169  1  0.96732697  0.93614011  0.64309381  1
  H+  H170  1  0.08882852  0.16953712  0.43466734  1
  H+  H171  1  0.37409496  0.23393865  1.00210910  1
  H+  H172  1  0.08598611  0.86210112  0.34189916  1
  H+  H173  1  0.10853544  0.02067077  0.98790986  1
  H+  H174  1  0.71752652  0.08781249  0.83994312  1
  H+  H175  1  0.88864119  0.52189889  0.51400605  1
  H+  H176  1  0.40786324  0.07639645  0.24200198  1
  H+  H177  1  0.27398171  0.11222857  0.34307950  1
  H+  H178  1  0.65588089  0.61412794  0.32985679  1
  H+  H179  1  0.90956732  0.82400777  0.89048663  1
  H+  H180  1  0.58486209  0.97829207  0.01430636  1
  H+  H181  1  0.10799943  0.96900854  0.15984761  1
  H+  H182  1  0.08469733  0.86900086  0.15694476  1
  H+  H183  1  0.26611553  0.39315448  0.00205085  1
  H+  H184  1  0.85905963  0.85362698  0.34547578  1
  H+  H185  1  0.36154742  0.23091859  0.15504975  1
  H+  H186  1  0.97823865  0.38614177  0.30729916  1
  H+  H187  1  0.11040481  0.98211034  0.49372227  1
  H+  H188  1  0.47012333  0.61014499  0.99111233  1
  H+  H189  1  0.36937708  0.48148888  0.83379454  1
  H+  H190  1  0.10199016  0.37345628  0.84083384  1
  H+  H191  1  0.68686513  0.10496278  0.58304249  1
  H+  H192  1  0.38310196  0.26773633  0.66290502  1
  H+  H193  1  0.88981818  0.11767388  0.85598076  1
  H+  H194  1  0.65912516  0.12362410  0.64938684  1
  H+  H195  1  0.51052258  0.61863829  0.83627003  1
  H+  H196  1  0.67181368  0.58846420  0.89189418  1
  H+  H197  1  0.10867919  0.71666520  0.48255569  1
  H+  H198  1  0.63895110  0.16019521  0.48585783  1
  H+  H199  1  0.36107370  0.35997666  0.16522700  1
  H+  H200  1  0.76975815  0.63364461  0.82206400  1
  H+  H201  1  0.11031526  0.89301028  0.48640707  1
  H+  H202  1  0.63329349  0.09290497  0.84101670  1
  H+  H203  1  0.61157239  0.95965545  0.81709411  1
  H+  H204  1  0.36806523  0.76021608  0.16975358  1
  H+  H205  1  0.86005148  0.62729135  0.67645949  1
  H+  H206  1  0.88831826  0.86049951  0.98663034  1
  H+  H207  1  0.33067398  0.45161699  0.33979128  1
  H+  H208  1  0.20957110  0.07827422  0.92379964  1
  H+  H209  1  0.60239879  0.95960128  0.16218500  1
  H+  H210  1  0.14180621  0.36156612  0.16263749  1
  H+  H211  1  0.63681860  0.86734447  -0.00873030  1
  H+  H212  1  0.87457084  0.48305420  -0.00344109  1
  H+  H213  1  0.63499950  0.84065821  0.32303161  1
  H+  H214  1  0.41981625  1.01534965  0.34787526  1
  H+  H215  1  0.11114396  0.62837960  0.48504475  1
  H+  H216  1  0.03222685  0.64228577  -0.00152642  1
  H+  H217  1  0.41281140  0.72720653  0.77152000  1
  H+  H218  1  0.56288144  0.64281144  0.36738582  1
  H+  H219  1  0.10649556  0.36285568  0.68257437  1
  H+  H220  1  0.88405129  0.35735445  0.66718335  1
  H+  H221  1  0.39548782  0.60303465  0.84550910  1
  H+  H222  1  -0.03144141  0.34638378  0.66928088  1
  H+  H223  1  0.25415527  0.87264400  0.67950892  1
  H+  H224  1  0.37049718  0.35433188  0.99080306  1
  H+  H225  1  0.39860841  0.60216193  0.50439194  1
  H+  H226  1  0.12930859  0.11594403  0.99876172  1
  H+  H227  1  0.38727149  0.35730055  0.66708001  1
  H+  H228  1  0.91597138  0.08748938  0.56217768  1
  H+  H229  1  0.02701180  0.14382616  0.49268129  1
  H+  H230  1  0.87375251  0.48017802  0.82528142  1
  H+  H231  1  0.63916464  0.23816895  0.67382317  1
  H+  H232  1  0.87683146  0.39874228  0.49236107  1
  H+  H233  1  0.83576170  0.96358221  0.65165447  1
  H+  H234  1  0.62394653  0.60216303  0.16932714  1
  H+  H235  1  -0.01662836  0.62264049  0.83705080  1
  H+  H236  1  0.89445206  0.28280836  0.50766053  1
  H+  H237  1  0.46686746  0.83747754  0.32557767  1
  H+  H238  1  0.86338079  0.64770790  0.18009134  1
  H+  H239  1  0.39581849  0.11010810  0.33937356  1
  H+  H240  1  0.44411657  0.37324712  0.19935286  1
  H+  H241  1  0.96872564  0.34635817  0.84231673  1
  H+  H242  1  0.50828130  0.62667071  0.15399201  1
  H+  H243  1  0.22543075  0.35001368  0.67172900  1
  H+  H244  1  0.34919277  0.47174074  0.14730243  1
  H+  H245  1  0.78820400  0.64450966  0.00865510  1
  H+  H246  1  0.97665980  0.61051970  0.51576068  1
  H+  H247  1  -0.04648913  0.59038052  0.18437651  1
  H+  H248  1  0.35766753  0.63208178  1.00497168  1
  H+  H249  1  0.38488590  0.35679646  0.50763521  1
  H+  H250  1  0.75839980  0.15625070  0.32219901  1
  H+  H251  1  0.23993590  0.89283858  0.31296578  1
  H+  H252  1  0.36703945  0.14429410  0.15984097  1
  H+  H253  1  0.62975507  0.09990469  0.17270739  1
  H+  H254  1  0.18141668  0.54197737  0.15239341  1
  H+  H255  1  0.89115359  0.03239500  0.50131163  1
  H+  H256  1  0.90209005  0.20225014  0.34402739  1
  H+  H257  1  0.12622068  0.72936517  0.67395971  1
  H+  H258  1  0.08191980  0.16210577  0.77700441  1
  H+  H259  1  0.10786636  0.20796794  0.33333763  1
  H+  H260  1  0.59980854  0.71307241  0.15819844  1
  H+  H261  1  0.12702861  0.64026139  0.14611672  1
  H+  H262  1  0.65004511  0.62791013  -0.01456636  1
  H+  H263  1  0.96181533  0.84160410  0.33273040  1
  H+  H264  1  0.49731759  0.13191579  0.33091775  1
  H+  H265  1  0.66189448  0.27796699  0.17237520  1
  H+  H266  1  0.61362252  0.72810245  0.00422075  1
  H+  H267  1  0.22382191  0.86126290  0.49602367  1
  H+  H268  1  0.38584714  0.14221867  -0.00062180  1
  H+  H269  1  0.02896410  0.39615321  0.53268142  1
  H+  H270  1  0.63014394  0.60935089  0.83404578  1
  H+  H271  1  0.49674882  0.12268739  0.83880331  1
  H+  H272  1  0.77718800  0.13160679  0.66786915  1
  H+  H273  1  0.15133404  0.54886693  0.43460647  1
  H+  H274  1  0.09257596  0.44439067  0.68524210  1
  H+  H275  1  0.41128630  -0.00560658  0.14703055  1
  H+  H276  1  0.66386509  0.83267868  0.93321855  1
  H+  H277  1  0.17528549  0.06857130  0.23371607  1
  H+  H278  1  0.72377599  0.85664768  0.59840705  1
  H+  H279  1  0.85121875  0.96416427  0.16043817  1
  H+  H280  1  0.13679303  0.27860769  0.51206931  1
  H+  H281  1  0.37965627  0.36181439  0.83717644  1
  H+  H282  1  0.13803987  0.11845479  0.50673962  1
  H+  H283  1  0.56892883  0.91176139  0.06760829  1
  H+  H284  1  0.97822035  0.87511865  0.16549946  1
  H+  H285  1  0.88571376  0.30662668  0.32811614  1
  H+  H286  1  0.14214365  0.27587999  0.85297787  1
  H+  H287  1  0.87940901  0.74744503  0.34111286  1
  H+  H288  1  0.41964628  0.33076714  0.56627185  1
  H+  H289  1  0.26269263  0.63423881  0.33780857  1
  H+  H290  1  0.09300719  0.50459985  0.60313775  1
  H+  H291  1  0.95920450  0.36162221  0.21164274  1
  H+  H292  1  0.82506990  0.15588609  0.10443239  1
  H+  H293  1  0.32654750  0.41290224  0.08676240  1
  H+  H294  1  0.07510821  0.91425429  0.06119161  1
  H+  H295  1  0.66419638  0.33327416  0.60195141  1
  H+  H296  1  0.06890658  0.39059518  0.77876034  1
  H+  H297  1  0.61170605  0.17713900  0.77023707  1
  H+  H298  1  0.50195722  0.81299187  0.76942396  1
  H+  H299  1  0.36611491  0.93891551  0.05423814  1
  H+  H300  1  0.36212811  0.98107057  0.49046407  1
  H+  H301  1  0.22723813  0.36451711  0.51517264  1
  H+  H302  1  0.83502694  0.90741876  0.43066636  1
  H+  H303  1  0.93079491  0.85638805  0.59909196  1
  H+  H304  1  0.40350231  0.81669046  0.92958833  1
  H+  H305  1  0.09158415  0.68371210  0.77080115  1
  H+  H306  1  0.85319550  0.42284747  0.08939278  1
  H+  H307  1  0.36447558  0.89467534  -0.00695675  1
  H+  H308  1  0.16759706  0.82455800  0.18973169  1
  H+  H309  1  0.08513099  0.90430535  0.76696866  1
  H+  H310  1  0.62863802  0.36403282  0.51128656  1
  H+  H311  1  0.65649371  0.95783568  0.49049994  1
  H+  H312  1  0.16845958  0.32372473  0.61095076  1
  H+  H313  1  0.43655899  0.09397737  0.54544708  1
  H+  H314  1  0.08342617  0.41329696  0.41720226  1
  H+  H315  1  0.44059315  0.14198896  0.65180233  1
  H+  H316  1  0.33200221  0.15149173  0.40368455  1
  H+  H317  1  0.53810929  0.48392647  0.04325533  1
  H+  H318  1  0.59527100  0.41958741  0.76604233  1
  H+  H319  1  0.59276470  0.16016169  0.09972316  1
  H+  H320  1  0.37600331  0.93692322  0.40910356  1
  H+  H321  1  0.16093899  0.08375604  0.56686968  1
  H+  H322  1  0.63056313  0.84986925  0.16955759  1
  H+  H323  1  0.87963376  0.10585250  0.65808596  1
  H+  H324  1  0.68022298  0.34985259  0.89555977  1
  H+  H325  1  0.85683846  0.43937273  0.43416899  1
  H+  H326  1  0.38549093  0.56765086  0.21996169  1
  H+  H327  1  0.57682415  0.86875859  0.41144156  1
  H+  H328  1  0.86496994  0.14840391  0.48847791  1
  H+  H329  1  0.66640299  0.81745404  0.26067383  1
  H+  H330  1  0.63557484  0.27924244  0.50796385  1
  H+  H331  1  0.85002532  0.19903182  0.40535937  1
  H+  H332  1  0.90343151  0.56764700  0.24750433  1
  H+  H333  1  0.32661711  0.66174035  0.39639618  1
  H+  H334  1  0.83030117  0.15220772  0.77200577  1
  H+  H335  1  0.82853491  0.90722801  0.09708730  1
  H+  H336  1  0.03866081  0.44763277  0.04614318  1
  H+  H337  1  0.66625653  0.07844902  0.23160588  1
  H+  H338  1  0.29797038  0.65081557  0.09787097  1
  H+  H339  1  0.27548097  0.39381245  0.83412803  1
  H+  H340  1  0.92995507  0.09514709  0.94725831  1
  H+  H341  1  0.17052721  0.84157659  0.90274957  1
  H+  H342  1  0.12037713  0.44248069  0.09091664  1
  H+  H343  1  0.66966149  0.57679697  0.60800092  1
  H+  H344  1  0.58278808  0.66373713  0.06098519  1
  H+  H345  1  0.69018414  0.35106658  0.26394563  1
  H+  H346  1  0.08986941  0.78064933  0.26952615  1
  H+  H347  1  0.14217399  0.63835271  0.84043936  1
  H+  H348  1  0.57896529  0.43084342  0.06691470  1
  H+  H349  1  0.16553198  0.33796398  0.91091694  1
  H+  H350  1  0.14872302  0.82511442  0.54580298  1
  H+  H351  1  0.61928754  0.68846225  0.45442124  1
  H+  H352  1  0.92384561  0.59115848  0.92974390  1
  H+  H353  1  0.80295687  0.88404154  0.75399887  1
  H+  H354  1  0.61666677  0.92219655  0.75275795  1
  H+  H355  1  0.41566713  0.57824415  0.92828013  1
  H+  H356  1  0.78925000  0.41579104  0.33074001  1
  H+  H357  1  0.90094351  0.05438441  0.23229527  1
  H+  H358  1  0.08189038  0.65802854  0.09073009  1
  H+  H359  1  0.53339633  0.12264382  0.00291717  1
  H+  H360  1  0.60330225  0.19081390  0.39465829  1
  H+  H361  1  0.91441252  0.32696213  0.92987726  1
  H+  H362  1  0.32378078  0.16728330  0.73865423  1
  H+  H363  1  0.36573680  0.30371985  0.27168489  1
  H+  H364  1  0.91642639  0.58519877  0.60636581  1
  H+  H365  1  0.13630450  0.51392005  0.50221853  1
  H+  H366  1  0.35234194  0.17190810  0.06543158  1
  H+  H367  1  0.42161061  0.57038955  0.59950544  1
  H+  H368  1  0.40695032  0.32790920  0.89463693  1
  H+  H369  1  0.04012577  0.41013046  0.41611541  1
  H+  H370  1  0.82774721  0.65835860  0.74172931  1
  H+  H371  1  0.25440999  0.62828781  0.79431814  1
  H+  H372  1  0.36742868  0.46793247  0.49410013  1
  H+  H373  1  0.07232845  0.91239330  0.39787661  1
  H+  H374  1  0.88698019  0.86154417  0.50798584  1
  H+  H375  1  0.87020001  0.08839834  0.17480799  1
  H+  H376  1  0.40583452  0.82093500  0.22793347  1
  H+  H377  1  0.22707806  0.84027911  0.61418944  1
  H+  H378  1  0.42849064  0.83996834  0.61687539  1
  H+  H379  1  0.34584272  0.92206322  0.78748022  1
  H+  H380  1  0.43171357  0.10066458  0.92923936  1
  H+  H381  1  0.07811720  0.72518291  0.32875884  1
  H+  H382  1  0.33295694  0.41080325  0.74152750  1
  H+  H383  1  0.91075884  0.33153413  0.57157912  1
  O2-  O384  1  0.07547606  0.17162506  0.10405964  1
  O2-  O385  1  0.08868497  0.17374539  0.48006946  1
  O2-  O386  1  0.08737923  0.16892456  0.82229283  1
  O2-  O387  1  0.12895290  0.44653142  0.13676175  1
  O2-  O388  1  0.09170531  0.43446164  0.54318551  1
  O2-  O389  1  0.06480548  0.39451513  0.82339555  1
  O2-  O390  1  0.08023728  0.65169142  0.13621568  1
  O2-  O391  1  0.07420056  0.65370211  0.47665464  1
  O2-  O392  1  0.09048867  0.68358449  0.81592168  1
  O2-  O393  1  0.06675498  0.91034412  0.14179292  1
  O2-  O394  1  0.07657091  0.92160957  0.47825062  1
  O2-  O395  1  0.08100116  0.90147943  0.81162354  1
  O2-  O396  1  0.34068463  0.17277943  0.13703424  1
  O2-  O397  1  0.33312449  0.16399725  0.48173110  1
  O2-  O398  1  0.35639407  0.17957083  0.80226234  1
  O2-  O399  1  0.32414697  0.41108121  0.13285304  1
  O2-  O400  1  0.32962472  0.40660922  0.48277129  1
  O2-  O401  1  0.33361836  0.42064478  0.81531748  1
  O2-  O402  1  0.29952920  0.65073628  0.14399121  1
  O2-  O403  1  0.33591499  0.65110497  0.48433052  1
  O2-  O404  1  0.25807127  0.65228941  0.83499659  1
  O2-  O405  1  0.42105883  0.95823621  0.11851275  1
  O2-  O406  1  0.33533788  0.91881848  0.47818059  1
  O2-  O407  1  0.34309808  0.92394652  0.83257068  1
  O2-  O408  1  0.59477575  0.16868873  0.14521608  1
  O2-  O409  1  0.60230865  0.18501077  0.46579767  1
  O2-  O410  1  0.60043686  0.17336381  0.81485150  1
  O2-  O411  1  0.60378666  0.41559108  0.14023036  1
  O2-  O412  1  0.58382449  0.42156555  0.47254691  1
  O2-  O413  1  0.60708573  0.42606460  0.81174255  1
  O2-  O414  1  0.56972487  0.65261565  0.14235153  1
  O2-  O415  1  0.60215660  0.67455492  0.49771641  1
  O2-  O416  1  0.57521986  0.65304312  0.81936299  1
  O2-  O417  1  0.57607837  0.90069370  0.14408875  1
  O2-  O418  1  0.60867840  0.89867834  0.49075475  1
  O2-  O419  1  0.59513443  0.90409321  0.79471601  1
  O2-  O420  1  0.82365829  0.14349701  0.14795254  1
  O2-  O421  1  0.83969107  0.18297027  0.47300361  1
  O2-  O422  1  0.82732046  0.15172533  0.81715571  1
  O2-  O423  1  0.86422271  0.42542981  0.13385388  1
  O2-  O424  1  0.85169595  0.43403951  0.47853991  1
  O2-  O425  1  0.83986364  0.41886499  0.81194308  1
  O2-  O426  1  0.83361073  0.67679097  0.16024768  1
  O2-  O427  1  0.83195133  0.66030641  0.49652943  1
  O2-  O428  1  0.83034864  0.66185610  0.80607127  1
  O2-  O429  1  0.82364648  0.90186276  0.14267635  1
  O2-  O430  1  0.83992575  0.91849586  0.47652711  1
  O2-  O431  1  0.81449768  0.88118303  0.79710354  1
  O2-  O432  1  0.16947539  0.06170870  0.18883172  1
  O2-  O433  1  0.16655006  0.08594263  0.52156244  1
  O2-  O434  1  0.25338669  0.06847921  0.90384869  1
  O2-  O435  1  0.15968873  0.31899860  0.17444969  1
  O2-  O436  1  0.16800149  0.33575896  0.53268358  1
  O2-  O437  1  0.17036561  0.33693390  0.86579635  1
  O2-  O438  1  0.20926596  0.60717727  0.16555685  1
  O2-  O439  1  0.16679044  0.56921998  0.47640540  1
  O2-  O440  1  0.16907243  0.60339380  0.85583216  1
  O2-  O441  1  0.10491392  0.79491765  0.18758941  1
  O2-  O442  1  0.16019986  0.82892412  0.50227371  1
  O2-  O443  1  0.17465330  0.84221139  0.85722123  1
  O2-  O444  1  0.38599809  0.06634937  0.19942058  1
  O2-  O445  1  0.42215010  0.08707036  0.50235680  1
  O2-  O446  1  0.43631120  0.09924413  0.85357694  1
  O2-  O447  1  0.38720588  0.32810164  0.18736509  1
  O2-  O448  1  0.41859528  0.32899400  0.52097767  1
  O2-  O449  1  0.40919545  0.32965739  0.84991270  1
  O2-  O450  1  0.39418484  0.57422537  0.17523423  1
  O2-  O451  1  0.42917912  0.57400122  0.52186763  1
  O2-  O452  1  0.42424478  0.57344033  0.86130964  1
  O2-  O453  1  0.41006921  0.81934499  0.18314625  1
  O2-  O454  1  0.44071321  0.85827800  0.52528511  1
  O2-  O455  1  0.38497188  0.81093387  0.87202049  1
  O2-  O456  1  0.65324679  0.06373002  0.18822737  1
  O2-  O457  1  0.68702957  0.11980997  0.51141523  1
  O2-  O458  1  0.65551211  0.05408210  0.85063294  1
  O2-  O459  1  0.69446309  0.33776759  0.18814914  1
  O2-  O460  1  0.65069514  0.33085637  0.53293023  1
  O2-  O461  1  0.67881257  0.34823416  0.84891835  1
  O2-  O462  1  0.65612163  0.57388536  0.18537461  1
  O2-  O463  1  0.66978923  0.57433068  0.53305239  1
  O2-  O464  1  0.66740564  0.58299770  0.84645864  1
  O2-  O465  1  0.65910433  0.81751521  0.18441545  1
  O2-  O466  1  0.67120252  0.82702309  0.57079891  1
  O2-  O467  1  0.66080005  0.82014660  0.85747101  1
  O2-  O468  1  0.89464338  0.05153283  0.18779141  1
  O2-  O469  1  0.91897066  0.09224429  0.51661388  1
  O2-  O470  1  0.92567820  0.09911844  0.87878528  1
  O2-  O471  1  0.96992933  0.37216520  0.16827085  1
  O2-  O472  1  0.92264943  0.34111550  0.52695184  1
  O2-  O473  1  0.90561947  0.31701082  0.85589656  1
  O2-  O474  1  0.91214548  0.59824677  0.20828994  1
  O2-  O475  1  0.91805750  0.58135020  0.53393761  1
  O2-  O476  1  0.92224200  0.58610231  0.85024543  1
  O2-  O477  1  0.91534115  0.84498545  0.18274609  1
  O2-  O478  1  0.91733832  0.83326624  0.52626530  1
  O2-  O479  1  0.90846926  0.81820725  0.84516119  1
  O2-  O480  1  0.17579933  0.06989505  0.31474436  1
  O2-  O481  1  0.14897515  0.07645168  0.64618252  1
  O2-  O482  1  0.12573664  0.07584143  0.96705518  1
  O2-  O483  1  0.14550609  0.30891053  0.29990659  1
  O2-  O484  1  0.16480206  0.31981796  0.65628896  1
  O2-  O485  1  0.15869758  0.34966182  0.98975951  1
  O2-  O486  1  0.17085517  0.58754991  0.30182043  1
  O2-  O487  1  0.07997890  0.52783551  0.64019742  1
  O2-  O488  1  0.17278750  0.58848305  0.98038438  1
  O2-  O489  1  0.09747870  0.78419080  0.31410759  1
  O2-  O490  1  0.20114761  0.83988081  0.65319028  1
  O2-  O491  1  0.17020092  0.84043899  0.98039776  1
  O2-  O492  1  0.43456814  0.08747111  0.32255663  1
  O2-  O493  1  0.43759892  0.10691350  0.68662381  1
  O2-  O494  1  0.42991357  0.09687114  0.97523856  1
  O2-  O495  1  0.37435847  0.30916311  0.31597494  1
  O2-  O496  1  0.41837607  0.32848555  0.64980495  1
  O2-  O497  1  0.40457615  0.32567493  0.97943246  1
  O2-  O498  1  0.37675621  0.55876825  0.30009599  1
  O2-  O499  1  0.42065174  0.56861560  0.64519247  1
  O2-  O500  1  0.41015309  0.58039603  0.97624702  1
  O2-  O501  1  0.41009847  0.82719301  0.31176316  1
  O2-  O502  1  0.43879603  0.85854572  0.65957918  1
  O2-  O503  1  0.41272136  0.81953968  0.98087795  1
  O2-  O504  1  0.69651416  0.11951668  0.31025097  1
  O2-  O505  1  0.68546009  0.09301826  0.62881034  1
  O2-  O506  1  0.62440558  0.09206308  1.00224642  1
  O2-  O507  1  0.69056058  0.35677491  0.30961373  1
  O2-  O508  1  0.67196662  0.33469682  0.64842402  1
  O2-  O509  1  0.68187190  0.35295252  0.96673538  1
  O2-  O510  1  0.66381287  0.57055990  0.30768009  1
  O2-  O511  1  0.67016382  0.57823546  0.65411587  1
  O2-  O512  1  0.68186420  0.59912055  0.96967575  1
  O2-  O513  1  0.66997796  0.81701409  0.30652082  1
  O2-  O514  1  0.60205381  0.79630531  0.61694327  1
  O2-  O515  1  0.66640612  0.83599715  0.97909232  1
  O2-  O516  1  0.91882558  0.05048572  0.31726539  1
  O2-  O517  1  0.90761950  0.07388888  0.64049088  1
  O2-  O518  1  0.93362661  0.08703778  0.99381754  1
  O2-  O519  1  0.91247095  0.36299419  0.30614615  1
  O2-  O520  1  0.91091329  0.32495047  0.64986066  1
  O2-  O521  1  0.91589215  0.33123316  0.97582033  1
  O2-  O522  1  0.89284236  0.53586916  0.32543351  1
  O2-  O523  1  0.91443590  0.58720892  0.65273022  1
  O2-  O524  1  0.92699506  0.58993879  0.97501614  1
  O2-  O525  1  0.89947532  0.80630057  0.32396949  1
  O2-  O526  1  0.93918795  0.87358125  0.64355918  1
  O2-  O527  1  0.91682934  0.82944485  0.97005903  1
  O2-  O528  1  0.09382493  0.18878521  0.03886079  1
  O2-  O529  1  0.08791275  0.15228859  0.35521314  1
  O2-  O530  1  0.06776241  0.15456159  0.69789478  1
  O2-  O531  1  0.07888890  0.43936197  0.02127833  1
  O2-  O532  1  0.06986041  0.40954718  0.29889322  1
  O2-  O533  1  0.06869433  0.38460776  0.69902481  1
  O2-  O534  1  0.09199879  0.67342048  0.01519767  1
  O2-  O535  1  0.05617729  0.62066409  0.35259505  1
  O2-  O536  1  0.08416327  0.67163345  0.68962328  1
  O2-  O537  1  0.07659310  0.91529445  0.01603189  1
  O2-  O538  1  0.07209404  0.90842097  0.35285112  1
  O2-  O539  1  0.09845801  0.91318532  0.68339301  1
  O2-  O540  1  0.35525208  0.17341607  0.01904377  1
  O2-  O541  1  0.33520245  0.14501598  0.35876458  1
  O2-  O542  1  0.30910244  0.16115421  0.69233109  1
  O2-  O543  1  0.32812427  0.41576204  0.01257029  1
  O2-  O544  1  0.30197222  0.39482254  0.35974380  1
  O2-  O545  1  0.33143047  0.40331350  0.69554926  1
  O2-  O546  1  0.32872846  0.66403309  0.02056909  1
  O2-  O547  1  0.32482242  0.66325192  0.35170454  1
  O2-  O548  1  0.45796626  0.76521914  0.74377639  1
  O2-  O549  1  0.34333322  0.93052526  0.01126941  1
  O2-  O550  1  0.41278077  0.95601171  0.37099865  1
  O2-  O551  1  0.35181298  0.92812952  0.70751287  1
  O2-  O552  1  0.58942624  0.14534580  0.02501431  1
  O2-  O553  1  0.59907007  0.19172391  0.34806455  1
  O2-  O554  1  0.61869069  0.17840859  0.69077383  1
  O2-  O555  1  0.56068522  0.44770498  0.02877568  1
  O2-  O556  1  0.60344904  0.42969797  0.35343572  1
  O2-  O557  1  0.58243874  0.41191899  0.69432583  1
  O2-  O558  1  0.58681524  0.66614272  0.01582823  1
  O2-  O559  1  0.62467229  0.67849574  0.37274145  1
  O2-  O560  1  0.58578136  0.65929704  0.68825872  1
  O2-  O561  1  0.56572849  0.91690854  0.02220765  1
  O2-  O562  1  0.56685465  0.87019540  0.36702425  1
  O2-  O563  1  0.61410793  0.93345164  0.66983232  1
  O2-  O564  1  0.80239875  0.17390717  0.01585673  1
  O2-  O565  1  0.85466058  0.20931465  0.35826923  1
  O2-  O566  1  0.83428700  0.15760119  0.68910942  1
  O2-  O567  1  0.84030330  0.42192717  0.01017664  1
  O2-  O568  1  0.85111839  0.44559024  0.34695039  1
  O2-  O569  1  0.83569503  0.41629162  0.68831431  1
  O2-  O570  1  0.84676621  0.67279598  0.02630067  1
  O2-  O571  1  0.83993003  0.64920087  0.37049067  1
  O2-  O572  1  0.82568240  0.65456969  0.69302743  1
  O2-  O573  1  0.83648214  0.91354093  0.02003822  1
  O2-  O574  1  0.83295582  0.89267985  0.35893000  1
  O2-  O575  1  0.79702892  0.89990166  0.65529522  1
