# generated using pymatgen
data_H2O
_symmetry_space_group_name_H-M   'P 1'
_cell_length_a   17.96820185
_cell_length_b   17.98532862
_cell_length_c   21.97730106
_cell_angle_alpha   90.03429865
_cell_angle_beta   89.96548607
_cell_angle_gamma   119.99184425
_symmetry_Int_Tables_number   1
_chemical_formula_structural   H2O
_chemical_formula_sum   'H384 O192'
_cell_volume   6151.25265838
_cell_formula_units_Z   192
loop_
 _symmetry_equiv_pos_site_id
 _symmetry_equiv_pos_as_xyz
  1  'x, y, z'
loop_
 _atom_type_symbol
 _atom_type_oxidation_number
  H+  1.0
  O2-  -2.0
loop_
 _atom_site_type_symbol
 _atom_site_label
 _atom_site_symmetry_multiplicity
 _atom_site_fract_x
 _atom_site_fract_y
 _atom_site_fract_z
 _atom_site_occupancy
  H+  H0  1  0.37820455  0.22690571  0.48860747  1
  H+  H1  1  0.78443459  0.13981772  0.49727762  1
  H+  H2  1  0.34210072  0.41565391  0.39740789  1
  H+  H3  1  0.37320024  0.88457950  0.67388363  1
  H+  H4  1  0.82725474  0.84898340  0.49843347  1
  H+  H5  1  0.33968324  0.34798545  0.81547614  1
  H+  H6  1  0.50851414  0.12376439  0.15708042  1
  H+  H7  1  0.77111501  0.14142143  0.33781795  1
  H+  H8  1  0.40960493  0.47944395  0.17811271  1
  H+  H9  1  0.74011143  0.62685245  0.99882070  1
  H+  H10  1  0.07288507  0.42239855  0.10848177  1
  H+  H11  1  0.33190656  0.12768434  0.33452854  1
  H+  H12  1  0.41841971  0.57759066  0.56625198  1
  H+  H13  1  0.47548882  0.87007737  0.32219746  1
  H+  H14  1  0.04397326  0.39127531  0.32516266  1
  H+  H15  1  0.61051991  0.89209052  -0.00958169  1
  H+  H16  1  0.36171834  0.89229338  0.33777076  1
  H+  H17  1  0.65363684  0.90279114  0.48613112  1
  H+  H18  1  0.80711472  0.31634964  0.15481040  1
  H+  H19  1  0.28296084  0.37877332  0.48911666  1
  H+  H20  1  0.77881831  0.13589519  0.68153068  1
  H+  H21  1  0.60877154  0.47313429  0.30976067  1
  H+  H22  1  0.10235258  0.37601251  1.01595231  1
  H+  H23  1  0.38243822  0.59655018  0.32344912  1
  H+  H24  1  0.78731585  0.39878052  1.01189617  1
  H+  H25  1  0.11743673  0.21801773  0.49179020  1
  H+  H26  1  0.39398921  0.48749253  0.14855534  1
  H+  H27  1  0.37743016  0.09911807  0.16841941  1
  H+  H28  1  0.64868183  0.54277421  -0.00647267  1
  H+  H29  1  0.86630341  0.41703135  0.84613652  1
  H+  H30  1  0.87342806  0.75303238  0.50146203  1
  H+  H31  1  0.35484079  0.12384871  0.66977641  1
  H+  H32  1  0.70517610  0.84993679  0.86343886  1
  H+  H33  1  0.02972506  0.64888379  0.48223976  1
  H+  H34  1  0.70263772  0.35150087  0.16415025  1
  H+  H35  1  0.62195807  0.39997092  1.01409986  1
  H+  H36  1  0.01958299  0.15110166  0.15399414  1
  H+  H37  1  0.10218331  0.14399886  0.16256241  1
  H+  H38  1  0.88907240  0.35770544  0.66972539  1
  H+  H39  1  0.37610266  0.25785526  0.65149971  1
  H+  H40  1  0.61007862  0.88344480  0.67580360  1
  H+  H41  1  0.06976150  0.64568963  0.78281879  1
  H+  H42  1  0.06028748  0.85838215  0.68513101  1
  H+  H43  1  0.39446608  0.07251150  0.26431191  1
  H+  H44  1  0.87753271  0.64902129  0.01461017  1
  H+  H45  1  0.84023030  0.16398931  0.73959396  1
  H+  H46  1  0.45371539  0.11467178  0.32112066  1
  H+  H47  1  0.63854657  0.50985797  0.49330727  1
  H+  H48  1  0.15267290  0.63914512  0.50088422  1
  H+  H49  1  0.23738481  0.62006153  0.65691379  1
  H+  H50  1  0.73751788  0.84851584  0.49708128  1
  H+  H51  1  0.62778646  0.49741734  0.64950173  1
  H+  H52  1  0.57903707  0.15786856  0.73313800  1
  H+  H53  1  0.26179804  0.33506730  0.14973068  1
  H+  H54  1  0.95333895  0.08121404  0.85224299  1
  H+  H55  1  0.39425238  0.51936167  0.66044038  1
  H+  H56  1  0.12742677  0.77617593  0.48335922  1
  H+  H57  1  0.88876254  0.77741556  0.17896303  1
  H+  H58  1  0.01712958  0.71101556  0.66064692  1
  H+  H59  1  0.36185897  0.37877167  0.66066725  1
  H+  H60  1  0.41584774  0.61488402  0.84000261  1
  H+  H61  1  0.88839354  0.52452166  0.31885017  1
  H+  H62  1  0.22925983  0.36176221  0.64973580  1
  H+  H63  1  1.02381019  0.13540575  0.66744986  1
  H+  H64  1  0.76348864  0.31506040  0.55586746  1
  H+  H65  1  0.40783923  0.61689749  0.99553519  1
  H+  H66  1  0.60734313  0.39750050  0.82470683  1
  H+  H67  1  0.62101311  0.36846846  0.34634346  1
  H+  H68  1  0.13042621  1.02878115  0.83563715  1
  H+  H69  1  0.41274696  0.64155257  0.17519538  1
  H+  H70  1  0.63090659  0.11379984  0.99246057  1
  H+  H71  1  0.62753912  0.01660258  0.16823054  1
  H+  H72  1  0.89133790  0.77853317  0.99675962  1
  H+  H73  1  0.92329026  0.53472701  0.15014700  1
  H+  H74  1  0.38747513  0.11239890  0.50540258  1
  H+  H75  1  0.15815704  0.52526422  0.32215142  1
  H+  H76  1  0.97369701  0.87220818  0.99397652  1
  H+  H77  1  0.60510490  0.88624946  0.84256879  1
  H+  H78  1  0.35770280  0.96798202  0.82313619  1
  H+  H79  1  0.52988825  0.60672488  0.83106039  1
  H+  H80  1  0.13828038  0.28196759  0.17399397  1
  H+  H81  1  0.61740438  0.37557896  0.43943843  1
  H+  H82  1  0.60810831  0.88846496  0.33447859  1
  H+  H83  1  0.37521746  0.26511812  0.32136869  1
  H+  H84  1  0.48559916  0.60551235  0.66196905  1
  H+  H85  1  0.59828170  0.23742918  0.34532719  1
  H+  H86  1  0.76589097  0.36251594  0.69583908  1
  H+  H87  1  0.25525889  0.61483018  0.83879350  1
  H+  H88  1  0.62499879  0.65277706  0.15038685  1
  H+  H89  1  0.89925733  0.53456188  0.98707005  1
  H+  H90  1  0.59518232  0.21523656  0.14554588  1
  H+  H91  1  0.52193700  0.88113006  0.15200470  1
  H+  H92  1  0.03091504  0.39034299  0.66846195  1
  H+  H93  1  0.47720106  0.10685828  0.83732283  1
  H+  H94  1  0.37479344  0.32743437  0.15907190  1
  H+  H95  1  0.83424437  0.86227336  0.01411064  1
  H+  H96  1  0.49883013  0.62298850  0.99104110  1
  H+  H97  1  0.50982531  0.36760030  0.66794307  1
  H+  H98  1  0.62317605  0.36511976  0.14535824  1
  H+  H99  1  0.11248181  0.86921365  0.49301631  1
  H+  H100  1  0.61383846  0.22792002  0.82747241  1
  H+  H101  1  0.25026856  0.14187015  0.34519151  1
  H+  H102  1  0.90810162  0.53704152  0.50209233  1
  H+  H103  1  0.60772399  0.62830497  0.48903474  1
  H+  H104  1  0.38270597  0.85917428  0.16706313  1
  H+  H105  1  0.60458093  0.52724713  0.82188545  1
  H+  H106  1  0.63941274  0.61680447  0.32570271  1
  H+  H107  1  0.66157376  0.08341845  0.26363956  1
  H+  H108  1  0.37459920  0.97295185  0.49879419  1
  H+  H109  1  0.37704254  0.10615394  0.98951118  1
  H+  H110  1  0.13532396  0.12275722  0.99016394  1
  H+  H111  1  0.14775513  0.26325649  0.33028989  1
  H+  H112  1  0.70593164  0.36561604  0.36708705  1
  H+  H113  1  0.63734638  0.66187005  -0.00642974  1
  H+  H114  1  0.62904852  0.26439578  0.67001471  1
  H+  H115  1  0.26419243  0.37163452  0.81948646  1
  H+  H116  1  0.87529401  0.09855723  0.84890384  1
  H+  H117  1  0.27258321  0.89045383  0.99951529  1
  H+  H118  1  0.21833537  0.86751486  0.83487144  1
  H+  H119  1  0.14069420  0.34600233  0.49520036  1
  H+  H120  1  0.87539599  1.02620872  0.65743956  1
  H+  H121  1  0.11174718  0.99068697  0.00719782  1
  H+  H122  1  0.11972141  0.09017789  0.51436843  1
  H+  H123  1  0.72211404  0.11789269  -0.00182241  1
  H+  H124  1  0.64330505  0.87127938  0.17158810  1
  H+  H125  1  0.02155553  0.14266963  0.00683603  1
  H+  H126  1  0.10444835  -0.02268929  0.16907268  1
  H+  H127  1  0.62887960  0.35412568  0.66811465  1
  H+  H128  1  0.62373419  0.10399840  0.16864035  1
  H+  H129  1  0.39875769  0.77356416  0.51474014  1
  H+  H130  1  0.23374068  0.35521399  0.33218129  1
  H+  H131  1  0.27104247  0.88309786  0.15667327  1
  H+  H132  1  0.61000320  0.97902384  0.00081991  1
  H+  H133  1  0.42311624  0.70786309  0.36175967  1
  H+  H134  1  0.58479422  0.91303243  0.77690978  1
  H+  H135  1  0.28480470  0.87907947  0.66132606  1
  H+  H136  1  0.58064799  0.66436496  0.39827312  1
  H+  H137  1  0.36353690  0.46735310  1.01045402  1
  H+  H138  1  0.76865927  0.62068965  0.48410339  1
  H+  H139  1  0.63636483  0.53220731  0.16983749  1
  H+  H140  1  0.61606818  -0.02581192  0.68355419  1
  H+  H141  1  0.48068127  0.86246078  0.66677423  1
  H+  H142  1  0.83009321  0.95376996  0.83691264  1
  H+  H143  1  0.37464598  0.72649003  0.67463697  1
  H+  H144  1  -0.00343872  0.65667518  0.81500900  1
  H+  H145  1  1.01225558  0.90015841  0.34882885  1
  H+  H146  1  0.95884901  0.86411011  0.84002682  1
  H+  H147  1  0.40057602  0.25075029  -0.01608268  1
  H+  H148  1  0.13384916  0.78798885  0.98859246  1
  H+  H149  1  0.35957311  0.88399231  1.00016503  1
  H+  H150  1  0.09925328  0.89542791  0.82464099  1
  H+  H151  1  0.89088789  0.12019672  0.65959726  1
  H+  H152  1  0.84148822  0.73029490  0.82698230  1
  H+  H153  1  0.47264015  0.86361409  0.84086288  1
  H+  H154  1  0.83898348  0.37252745  0.33002097  1
  H+  H155  1  0.83240336  0.86795203  0.83185296  1
  H+  H156  1  0.47298269  0.86211912  0.99009343  1
  H+  H157  1  0.14007815  0.15690345  0.81708060  1
  H+  H158  1  0.88795485  0.27642241  0.51002691  1
  H+  H159  1  0.18782039  0.71945313  0.00848300  1
  H+  H160  1  0.38532260  0.25973705  0.82881248  1
  H+  H161  1  0.02255529  0.62956967  0.32626649  1
  H+  H162  1  0.41424786  0.07613226  0.89508728  1
  H+  H163  1  0.13942985  0.27316289  0.65044999  1
  H+  H164  1  0.57775508  0.14994003  0.58619730  1
  H+  H165  1  0.81452547  0.35406755  0.17406689  1
  H+  H166  1  0.47469930  0.11082962  0.52046867  1
  H+  H167  1  0.89385592  0.61730085  0.49820401  1
  H+  H168  1  0.11982865  0.39061001  0.66522488  1
  H+  H169  1  0.85689611  0.23245292  0.01214980  1
  H+  H170  1  0.37561469  0.72442992  0.82630632  1
  H+  H171  1  0.51926278  0.38213860  0.30805422  1
  H+  H172  1  0.08693702  0.17403430  0.06278767  1
  H+  H173  1  0.62990086  0.77279648  0.32699216  1
  H+  H174  1  0.63371841  0.74547030  0.15253680  1
  H+  H175  1  0.36122199  0.63247158  0.49607505  1
  H+  H176  1  0.51527969  0.13386038  -0.00109541  1
  H+  H177  1  0.12974601  0.27456019  0.99407447  1
  H+  H178  1  0.89558218  0.12871354  0.50671447  1
  H+  H179  1  0.63705047  0.02652880  0.84335814  1
  H+  H180  1  0.14683640  0.53719377  0.65180244  1
  H+  H181  1  0.91318591  0.60794657  0.89739312  1
  H+  H182  1  0.40666068  0.86514621  0.51362334  1
  H+  H183  1  0.38315379  0.02013262  0.98956954  1
  H+  H184  1  0.93746626  0.33882968  0.23863195  1
  H+  H185  1  0.12618517  0.38170106  0.33420409  1
  H+  H186  1  0.27779557  0.14142389  0.15688800  1
  H+  H187  1  0.87339394  0.85212154  0.33374430  1
  H+  H188  1  0.11314085  0.63078093  0.32984151  1
  H+  H189  1  0.85621156  0.14370049  0.16343371  1
  H+  H190  1  0.17630254  0.62973971  0.84888249  1
  H+  H191  1  0.61846544  0.14102759  0.82920431  1
  H+  H192  1  0.09102319  0.99797973  0.35643555  1
  H+  H193  1  0.33027977  0.91062450  0.09585584  1
  H+  H194  1  0.51240192  0.38312771  0.81974010  1
  H+  H195  1  0.28323078  0.62954457  0.00661054  1
  H+  H196  1  0.14810444  0.78900660  0.63942513  1
  H+  H197  1  0.26749911  0.13722278  0.00289912  1
  H+  H198  1  0.12457223  0.78453310  0.83406169  1
  H+  H199  1  0.12097787  0.68306604  0.06359300  1
  H+  H200  1  0.38457533  1.01501579  0.66099727  1
  H+  H201  1  0.64723944  0.70711055  0.68283164  1
  H+  H202  1  0.36244229  0.12553100  0.82127340  1
  H+  H203  1  0.17356684  0.83694162  0.23062358  1
  H+  H204  1  0.11259422  0.90282856  0.00737843  1
  H+  H205  1  0.27731499  0.64584588  0.49380928  1
  H+  H206  1  0.51433199  0.12428265  0.67564428  1
  H+  H207  1  0.12015702  0.08022018  0.25859246  1
  H+  H208  1  0.74783703  0.89584872  0.67172540  1
  H+  H209  1  0.08554821  0.67212335  0.42003351  1
  H+  H210  1  0.87201617  0.89774891  0.17141182  1
  H+  H211  1  0.86545840  0.62721353  0.84083445  1
  H+  H212  1  0.22534064  0.85878916  0.32251632  1
  H+  H213  1  0.82506471  0.52209063  0.19466386  1
  H+  H214  1  0.86891462  0.10548713  0.32564637  1
  H+  H215  1  0.63359073  0.11845215  0.32015355  1
  H+  H216  1  0.27148094  0.38558608  0.00168200  1
  H+  H217  1  0.89066049  0.62890190  0.65517869  1
  H+  H218  1  0.88534655  0.12222310  1.00624124  1
  H+  H219  1  0.03795907  0.02778725  0.21779808  1
  H+  H220  1  0.98784444  0.12256930  0.50767428  1
  H+  H221  1  0.61094540  0.70037455  0.04883378  1
  H+  H222  1  0.02665224  0.37360267  0.48928892  1
  H+  H223  1  0.67203409  0.33782593  1.06404806  1
  H+  H224  1  0.85613766  0.96098920  0.36119101  1
  H+  H225  1  0.09623666  0.96420833  0.50269949  1
  H+  H226  1  0.60004981  0.71540181  0.49557372  1
  H+  H227  1  0.22710697  0.10942900  0.83573559  1
  H+  H228  1  0.97864052  0.36331999  0.99449536  1
  H+  H229  1  0.14363811  0.87150030  0.17204464  1
  H+  H230  1  0.14799699  0.59909059  0.99159952  1
  H+  H231  1  0.98215235  0.37555172  0.82152323  1
  H+  H232  1  0.63027466  0.37864134  0.50983478  1
  H+  H233  1  0.58146263  0.20171829  0.27890582  1
  H+  H234  1  0.72514704  0.37794853  0.84809298  1
  H+  H235  1  0.95640286  0.84624942  0.50427344  1
  H+  H236  1  0.14797761  0.53153093  0.17196647  1
  H+  H237  1  0.52059135  0.38655964  0.15707496  1
  H+  H238  1  0.66182301  0.56380818  0.55448273  1
  H+  H239  1  0.65034821  0.79113454  0.96659415  1
  H+  H240  1  0.13332817  0.37699730  0.83825785  1
  H+  H241  1  0.76028949  0.61727642  0.66946348  1
  H+  H242  1  0.65018027  0.10487134  0.52594715  1
  H+  H243  1  0.77426885  0.13448380  0.83471732  1
  H+  H244  1  0.04035199  0.11737103  0.33505127  1
  H+  H245  1  0.86227830  0.22142430  0.32417080  1
  H+  H246  1  0.60880876  -0.02177662  0.33458198  1
  H+  H247  1  0.53145250  0.38813402  0.99936290  1
  H+  H248  1  0.77826522  0.64882062  0.16169313  1
  H+  H249  1  0.13877281  0.76888548  0.31587850  1
  H+  H250  1  0.86547435  0.63348347  0.33085080  1
  H+  H251  1  0.20729718  0.75888831  0.60582455  1
  H+  H252  1  0.63244784  0.58773470  0.65048891  1
  H+  H253  1  0.86436470  0.76382402  0.65898028  1
  H+  H254  1  0.56567773  0.79985552  0.51973289  1
  H+  H255  1  0.36746233  0.47191577  0.49336259  1
  H+  H256  1  0.37242422  0.22087789  0.15794979  1
  H+  H257  1  0.18028770  0.33271549  0.23433878  1
  H+  H258  1  0.36641478  0.72509666  1.00574039  1
  H+  H259  1  0.25686552  0.62943687  0.16551235  1
  H+  H260  1  0.63084501  0.22046787  0.53835225  1
  H+  H261  1  0.47299949  0.60482455  0.50453613  1
  H+  H262  1  0.13566633  0.28972891  0.84115526  1
  H+  H263  1  0.35194680  -0.02479112  0.34244153  1
  H+  H264  1  0.37933029  0.85567015  0.83709511  1
  H+  H265  1  0.17938094  0.60741579  0.56178622  1
  H+  H266  1  0.80157186  0.40617143  0.49113729  1
  H+  H267  1  0.78397331  0.90043240  0.17058767  1
  H+  H268  1  0.11763899  0.00525458  0.66685694  1
  H+  H269  1  0.13237862  0.65554379  0.15550655  1
  H+  H270  1  0.64000357  0.10657897  0.66584773  1
  H+  H271  1  0.62534536  0.93879936  0.42948257  1
  H+  H272  1  0.52337562  0.63236675  0.33767245  1
  H+  H273  1  0.86339475  0.72214204  0.33646586  1
  H+  H274  1  0.50742913  0.65374084  0.17385264  1
  H+  H275  1  0.67154293  0.02887929  0.50751940  1
  H+  H276  1  0.08587840  0.92932506  0.10403841  1
  H+  H277  1  0.10888702  0.46623078  1.01253645  1
  H+  H278  1  0.12231162  0.48890819  0.81862313  1
  H+  H279  1  -0.01077807  0.62056485  -0.01386088  1
  H+  H280  1  0.12936777  0.09970482  0.66165394  1
  H+  H281  1  0.85854878  0.50217898  0.83802175  1
  H+  H282  1  0.34803287  0.67421405  0.40999924  1
  H+  H283  1  0.89043160  0.03485893  0.17073206  1
  H+  H284  1  0.36201460  0.73357316  0.15763257  1
  H+  H285  1  0.38448183  0.78402674  0.32471698  1
  H+  H286  1  0.24275771  0.61787045  0.32637174  1
  H+  H287  1  0.86672048  0.22036155  0.83280129  1
  H+  H288  1  0.32887633  0.16210440  0.06238597  1
  H+  H289  1  0.72741428  0.61311575  0.32269839  1
  H+  H290  1  0.84404556  0.41621738  0.39464882  1
  H+  H291  1  0.36636326  0.46980718  0.33450300  1
  H+  H292  1  0.66766563  0.84001154  0.23340551  1
  H+  H293  1  0.81486385  0.89561970  0.07373033  1
  H+  H294  1  -0.01444070  0.87818581  0.67430706  1
  H+  H295  1  0.91893696  0.09785344  0.22731448  1
  H+  H296  1  0.41546408  0.32032859  0.59267019  1
  H+  H297  1  0.41406192  0.83146082  0.22716285  1
  H+  H298  1  0.82849957  0.41044627  0.75098198  1
  H+  H299  1  0.92347356  0.33267041  0.93267829  1
  H+  H300  1  0.59642008  0.63924611  0.73524062  1
  H+  H301  1  0.90457130  0.83125363  0.90163337  1
  H+  H302  1  0.89486504  0.81922659  0.59888207  1
  H+  H303  1  0.63937217  0.27517246  1.00951442  1
  H+  H304  1  0.74886521  0.64436704  0.82341924  1
  H+  H305  1  0.86100294  0.24947920  0.22459683  1
  H+  H306  1  0.18156855  0.56830094  0.93497109  1
  H+  H307  1  0.34919830  0.66444391  0.76683817  1
  H+  H308  1  0.40990528  0.07609026  0.60170453  1
  H+  H309  1  0.17345086  0.83571848  0.54306187  1
  H+  H310  1  0.53338080  0.06070681  0.41763770  1
  H+  H311  1  0.43973768  0.58445917  0.90148724  1
  H+  H312  1  0.92187282  0.09429539  0.57326020  1
  H+  H313  1  0.73036053  0.42452881  0.24898238  1
  H+  H314  1  0.58275264  0.91276680  0.09318532  1
  H+  H315  1  0.37962941  0.01054949  0.16886983  1
  H+  H316  1  0.41113801  0.82800006  0.93190434  1
  H+  H317  1  0.97777881  0.45624429  0.15252445  1
  H+  H318  1  0.37493254  0.63691322  0.67332098  1
  H+  H319  1  0.65858697  0.34150491  0.90189742  1
  H+  H320  1  0.40394197  0.36620756  0.49884073  1
  H+  H321  1  0.69901792  0.33445789  0.59144593  1
  H+  H322  1  0.76301098  0.13548989  0.16561798  1
  H+  H323  1  0.57743542  0.09744452  0.42462309  1
  H+  H324  1  0.08290859  0.14914959  0.43667800  1
  H+  H325  1  0.73532486  0.38551390  0.25235300  1
  H+  H326  1  0.33307123  0.66941586  0.09646638  1
  H+  H327  1  0.19549560  0.24864318  0.78775763  1
  H+  H328  1  0.16531234  0.09109637  0.93088582  1
  H+  H329  1  0.84650906  0.67807378  0.07462631  1
  H+  H330  1  0.93541353  0.61444515  0.59663504  1
  H+  H331  1  0.67919202  0.07748474  0.61049390  1
  H+  H332  1  0.81327397  0.65776804  0.73163617  1
  H+  H333  1  0.14709480  0.05757140  0.57367260  1
  H+  H334  1  0.09280149  0.42973912  0.75765489  1
  H+  H335  1  0.33666433  0.16443067  0.43204661  1
  H+  H336  1  0.56817104  0.15298491  0.06095788  1
  H+  H337  1  0.80843939  0.88923769  0.41310917  1
  H+  H338  1  0.41452632  0.32039099  0.22509431  1
  H+  H339  1  0.91290202  0.83410536  0.27295381  1
  H+  H340  1  0.33036847  0.15422678  0.76151652  1
  H+  H341  1  0.41845058  0.31729123  0.88832456  1
  H+  H342  1  0.79979426  0.92069051  0.73362395  1
  H+  H343  1  0.08298482  0.40052203  0.42861208  1
  H+  H344  1  0.63495103  0.81620888  0.58647280  1
  H+  H345  1  0.89067565  0.33815651  0.79160497  1
  H+  H346  1  0.90419626  0.07751355  0.95089983  1
  H+  H347  1  0.16109577  0.84561532  0.92885412  1
  H+  H348  1  0.71880847  0.85989603  0.33237822  1
  H+  H349  1  0.38236433  0.35691801  0.31991895  1
  H+  H350  1  0.86241984  0.63886972  0.16763086  1
  H+  H351  1  0.66569988  0.59148187  0.22909628  1
  H+  H352  1  0.34504621  0.91324402  0.44063494  1
  H+  H353  1  0.90815696  0.47586144  0.08856774  1
  H+  H354  1  0.89295547  0.27253561  0.66479700  1
  H+  H355  1  0.32475997  0.39692815  0.72085614  1
  H+  H356  1  0.49082932  0.35990165  0.49993527  1
  H+  H357  1  0.17265895  0.32410347  0.55672599  1
  H+  H358  1  0.18951426  0.59138394  0.23438905  1
  H+  H359  1  0.84066945  0.17209893  0.43498599  1
  H+  H360  1  0.57773967  0.42804117  0.09654095  1
  H+  H361  1  0.91882808  0.33538172  0.57061156  1
  H+  H362  1  0.97911832  0.86463361  0.17830044  1
  H+  H363  1  0.82531093  0.17880740  0.07447100  1
  H+  H364  1  0.31438908  0.35677723  0.08630102  1
  H+  H365  1  0.90909971  0.58076435  0.25639439  1
  H+  H366  1  0.06839602  0.91686302  0.43544496  1
  H+  H367  1  0.43027250  0.59298766  0.26346041  1
  H+  H368  1  0.66756027  0.08742996  0.90205006  1
  H+  H369  1  0.05852728  0.91823408  0.76737902  1
  H+  H370  1  0.48061611  0.26718438  0.94599409  1
  H+  H371  1  0.59544714  0.76806404  0.65270755  1
  H+  H372  1  0.42511775  0.83197702  0.60417031  1
  H+  H373  1  0.26304285  0.11963460  0.67210953  1
  H+  H374  1  0.87374622  0.39665502  -0.00241105  1
  H+  H375  1  0.32610321  0.90767575  0.76423372  1
  H+  H376  1  0.83173291  0.01704140  0.29231388  1
  H+  H377  1  0.09392313  0.17398906  0.72217671  1
  H+  H378  1  0.15528860  0.34046455  0.93786563  1
  H+  H379  1  0.13541600  0.74592330  0.15169356  1
  H+  H380  1  0.88517865  0.39954502  0.49087891  1
  H+  H381  1  0.56904698  0.40645998  0.72830040  1
  H+  H382  1  0.07047731  0.74656645  0.72158599  1
  H+  H383  1  0.83008703  0.65417533  0.42481460  1
  O2-  O384  1  0.08089412  0.17765287  0.14052221  1
  O2-  O385  1  0.07736775  0.15509812  0.48114079  1
  O2-  O386  1  0.13476973  0.20301825  0.79495037  1
  O2-  O387  1  0.08319017  0.43936872  0.15282223  1
  O2-  O388  1  0.08267480  0.38721351  0.47213075  1
  O2-  O389  1  0.08631430  0.42914728  0.80343495  1
  O2-  O390  1  0.11477997  0.68929688  0.13068690  1
  O2-  O391  1  0.08969497  0.68149807  0.46524240  1
  O2-  O392  1  0.05502688  0.68882775  0.79476184  1
  O2-  O393  1  0.08547842  0.92119306  0.14919496  1
  O2-  O394  1  0.06751152  0.90398477  0.48184642  1
  O2-  O395  1  0.06681793  0.92461065  0.81299845  1
  O2-  O396  1  0.33526148  0.15940577  0.14148969  1
  O2-  O397  1  0.35050043  0.16603079  0.47581126  1
  O2-  O398  1  0.33198373  0.15628106  0.80732323  1
  O2-  O399  1  0.30060687  0.32225847  0.12461140  1
  O2-  O400  1  0.34408638  0.41310180  0.47532323  1
  O2-  O401  1  0.29461582  0.35241288  0.79167437  1
  O2-  O402  1  0.33033453  0.67067312  0.14304500  1
  O2-  O403  1  0.33959707  0.66935081  0.47881432  1
  O2-  O404  1  0.34967683  0.66334076  0.81273662  1
  O2-  O405  1  0.33264487  0.91003229  0.14121667  1
  O2-  O406  1  0.35601792  0.91381705  0.48476587  1
  O2-  O407  1  0.32311339  0.90678445  0.80986316  1
  O2-  O408  1  0.56814653  0.15211352  0.13920575  1
  O2-  O409  1  0.58926621  0.15792903  0.54251039  1
  O2-  O410  1  0.58561967  0.16805963  0.81222748  1
  O2-  O411  1  0.58139172  0.42298587  0.14179459  1
  O2-  O412  1  0.60402495  0.39619483  0.47830416  1
  O2-  O413  1  0.57343015  0.42082214  0.80537863  1
  O2-  O414  1  0.59990133  0.68723873  0.13397395  1
  O2-  O415  1  0.57468404  0.65604128  0.47542118  1
  O2-  O416  1  0.58779938  0.62695822  0.80699833  1
  O2-  O417  1  0.58294411  0.91412286  0.13871467  1
  O2-  O418  1  0.66417119  0.95654805  0.46494114  1
  O2-  O419  1  0.58016466  0.91834781  0.82202290  1
  O2-  O420  1  0.82448693  0.17505711  0.15509534  1
  O2-  O421  1  0.84501846  0.17251857  0.48015461  1
  O2-  O422  1  0.83544054  0.15946789  0.82021040  1
  O2-  O423  1  0.94853071  0.50531393  0.12214928  1
  O2-  O424  1  0.85880509  0.43212486  0.47205297  1
  O2-  O425  1  0.82935826  0.43821322  0.82987637  1
  O2-  O426  1  0.84037443  0.67848980  0.15087127  1
  O2-  O427  1  0.83006557  0.65235160  0.47061503  1
  O2-  O428  1  0.81024047  0.66921768  0.81176475  1
  O2-  O429  1  0.84573892  0.93259674  0.15801703  1
  O2-  O430  1  0.79685762  0.87813665  0.48180170  1
  O2-  O431  1  0.79627331  0.89413312  0.82113046  1
  O2-  O432  1  0.10038059  0.06120857  0.21408294  1
  O2-  O433  1  0.14168828  0.05270956  0.52849131  1
  O2-  O434  1  0.16746859  0.08907948  0.85093017  1
  O2-  O435  1  0.18225714  0.33900883  0.18964757  1
  O2-  O436  1  0.17404111  0.31860032  0.51140856  1
  O2-  O437  1  0.16153593  0.34807221  0.85899158  1
  O2-  O438  1  0.18803401  0.59333490  0.18786013  1
  O2-  O439  1  0.18515197  0.61216249  0.51651642  1
  O2-  O440  1  0.19346886  0.58690445  0.85566268  1
  O2-  O441  1  0.17543206  0.84147579  0.18375397  1
  O2-  O442  1  0.15424019  0.83760205  0.50051882  1
  O2-  O443  1  0.15850391  0.84321236  0.85136629  1
  O2-  O444  1  0.40840808  0.07069406  0.18573250  1
  O2-  O445  1  0.41207661  0.07889049  0.52702061  1
  O2-  O446  1  0.41545998  0.07446768  0.84955032  1
  O2-  O447  1  0.42101844  0.31710986  0.18003736  1
  O2-  O448  1  0.43144286  0.33412267  0.51578612  1
  O2-  O449  1  0.41204671  0.32088421  0.84359252  1
  O2-  O450  1  0.45750572  0.64185486  0.20076759  1
  O2-  O451  1  0.41270262  0.57486944  0.52102049  1
  O2-  O452  1  0.44363738  0.58343129  0.85604173  1
  O2-  O453  1  0.41272451  0.82769686  0.18156967  1
  O2-  O454  1  0.43206272  0.83184557  0.53255944  1
  O2-  O455  1  0.41110874  0.82784658  0.85395647  1
  O2-  O456  1  0.65472478  0.07576451  0.18613321  1
  O2-  O457  1  0.69121928  0.08395315  0.53250969  1
  O2-  O458  1  0.66945094  0.08824642  0.85622167  1
  O2-  O459  1  0.65053221  0.32707640  0.13955913  1
  O2-  O460  1  0.71708741  0.32746562  0.54856129  1
  O2-  O461  1  0.66200776  0.34183109  0.85757651  1
  O2-  O462  1  0.66714254  0.59303852  0.18346247  1
  O2-  O463  1  0.66302502  0.56922202  0.50901154  1
  O2-  O464  1  0.63362718  0.58833646  0.83636237  1
  O2-  O465  1  0.67656767  0.84525138  0.18843735  1
  O2-  O466  1  0.62293210  0.80702636  0.52461838  1
  O2-  O467  1  0.64636280  0.82803305  0.88259139  1
  O2-  O468  1  0.91791239  0.09786409  0.18230108  1
  O2-  O469  1  0.92639338  0.09905759  0.52543988  1
  O2-  O470  1  0.89448870  0.05919130  0.86607432  1
  O2-  O471  1  0.99934668  0.41811466  0.17749186  1
  O2-  O472  1  0.91556433  0.33673715  0.52506989  1
  O2-  O473  1  0.91842830  0.34190018  0.83075891  1
  O2-  O474  1  0.88332379  0.57066974  0.19169728  1
  O2-  O475  1  0.93306743  0.59772376  0.51544240  1
  O2-  O476  1  0.90492662  0.60437092  0.85221583  1
  O2-  O477  1  0.91964365  0.83838094  0.19492779  1
  O2-  O478  1  0.89615608  0.81190109  0.51884342  1
  O2-  O479  1  0.89906259  0.82965985  0.85582879  1
  O2-  O480  1  0.14043332  0.10085834  0.32869830  1
  O2-  O481  1  0.15684552  0.06488495  0.65126651  1
  O2-  O482  1  0.16646551  0.09198179  0.97632343  1
  O2-  O483  1  0.17209269  0.32398794  0.31813420  1
  O2-  O484  1  0.16836940  0.33341530  0.63492851  1
  O2-  O485  1  0.15639385  0.33709396  0.98313511  1
  O2-  O486  1  0.18599900  0.58601395  0.30692938  1
  O2-  O487  1  0.17904128  0.59828818  0.63973692  1
  O2-  O488  1  0.17723829  0.56639936  0.98028707  1
  O2-  O489  1  0.16960475  0.82862654  0.30044151  1
  O2-  O490  1  0.20046814  0.80904509  0.61159409  1
  O2-  O491  1  0.16502857  0.84818003  0.97456417  1
  O2-  O492  1  0.39267948  0.07824702  0.30946602  1
  O2-  O493  1  0.41401280  0.07679386  0.64778395  1
  O2-  O494  1  0.41127423  0.08030729  0.97329157  1
  O2-  O495  1  0.40831674  0.32362513  0.30254869  1
  O2-  O496  1  0.40940517  0.31913894  0.63808602  1
  O2-  O497  1  0.44995621  0.29630203  0.95932532  1
  O2-  O498  1  0.41765228  0.57296064  0.30771201  1
  O2-  O499  1  0.42609857  0.58082064  0.64675202  1
  O2-  O500  1  0.43631247  0.58589342  0.98016812  1
  O2-  O501  1  0.41526311  0.84099538  0.30503464  1
  O2-  O502  1  0.42060357  0.83095059  0.65079909  1
  O2-  O503  1  0.41092321  0.82898496  0.97763320  1
  O2-  O504  1  0.66467660  0.08778679  0.30930395  1
  O2-  O505  1  0.67482414  0.07914099  0.65597964  1
  O2-  O506  1  0.66373254  0.08527406  0.97889697  1
  O2-  O507  1  0.64343222  0.33853774  0.37518965  1
  O2-  O508  1  0.66469266  0.32642328  0.65899748  1
  O2-  O509  1  0.67414940  0.33811554  1.01831409  1
  O2-  O510  1  0.66722957  0.58641724  0.30674497  1
  O2-  O511  1  0.66055071  0.55705718  0.63248960  1
  O2-  O512  1  0.68263509  0.60267391  0.97961043  1
  O2-  O513  1  0.66059574  0.83411491  0.31309662  1
  O2-  O514  1  0.64226055  0.82178790  0.63696973  1
  O2-  O515  1  0.66727702  0.84887497  0.94723835  1
  O2-  O516  1  0.88569540  0.06418846  0.30776749  1
  O2-  O517  1  0.91546307  0.08601529  0.64083855  1
  O2-  O518  1  0.91945115  0.09541105  0.99357031  1
  O2-  O519  1  0.88932004  0.28924125  0.25926824  1
  O2-  O520  1  0.92080634  0.33251403  0.64864007  1
  O2-  O521  1  0.91847480  0.33535682  0.97676348  1
  O2-  O522  1  0.92018792  0.58430376  0.30408573  1
  O2-  O523  1  0.94128131  0.62491180  0.64113115  1
  O2-  O524  1  0.92924452  0.59653064  0.97386630  1
  O2-  O525  1  0.90982403  0.82862678  0.31840122  1
  O2-  O526  1  0.89344439  0.82382188  0.64389333  1
  O2-  O527  1  0.91503423  0.83627246  0.97709593  1
  O2-  O528  1  0.08510599  0.17225097  0.01727372  1
  O2-  O529  1  0.09787888  0.14856184  0.35322037  1
  O2-  O530  1  0.08633506  0.16602218  0.67704771  1
  O2-  O531  1  0.07225793  0.40807338  0.03047067  1
  O2-  O532  1  0.10047064  0.41914189  0.34435456  1
  O2-  O533  1  0.09204242  0.42242295  0.68207366  1
  O2-  O534  1  0.12659133  0.68177656  0.01603652  1
  O2-  O535  1  0.08269588  0.66062477  0.34357940  1
  O2-  O536  1  0.06826588  0.76538739  0.67978163  1
  O2-  O537  1  0.08238988  0.93137809  0.02498013  1
  O2-  O538  1  0.06814765  0.93688777  0.36938423  1
  O2-  O539  1  0.04613458  0.90464082  0.69258633  1
  O2-  O540  1  0.32863592  0.16083034  0.01698056  1
  O2-  O541  1  0.31330440  0.16628206  0.35288678  1
  O2-  O542  1  0.32489644  0.15482713  0.68457347  1
  O2-  O543  1  0.33017576  0.40482529  0.01706019  1
  O2-  O544  1  0.33598832  0.41065497  0.35200026  1
  O2-  O545  1  0.33434759  0.41149291  0.67651017  1
  O2-  O546  1  0.34138623  0.66668471  0.02468813  1
  O2-  O547  1  0.36057836  0.68065833  0.36331219  1
  O2-  O548  1  0.34443210  0.66584434  0.69026371  1
  O2-  O549  1  0.33215885  0.91695223  0.01612512  1
  O2-  O550  1  0.32766724  0.91528150  0.35755930  1
  O2-  O551  1  0.33799390  0.91205982  0.68602863  1
  O2-  O552  1  0.57506588  0.16302071  0.01593331  1
  O2-  O553  1  0.57437620  0.18238856  0.32101683  1
  O2-  O554  1  0.57714877  0.15556251  0.68751851  1
  O2-  O555  1  0.58654837  0.42785760  0.01980112  1
  O2-  O556  1  0.58298998  0.40990651  0.30602918  1
  O2-  O557  1  0.57082293  0.39932242  0.68315301  1
  O2-  O558  1  0.60607317  0.69401958  0.00393661  1
  O2-  O559  1  0.58357587  0.66778053  0.35255905  1
  O2-  O560  1  0.59859201  0.64936162  0.68939532  1
  O2-  O561  1  0.57972333  0.91689259  0.01272754  1
  O2-  O562  1  0.57687841  0.91797295  0.34963887  1
  O2-  O563  1  0.58366146  0.91351529  0.69801449  1
  O2-  O564  1  0.82336272  0.17349078  0.02906855  1
  O2-  O565  1  0.83269684  0.16999798  0.35106432  1
  O2-  O566  1  0.84072258  0.16812306  0.69427999  1
  O2-  O567  1  0.85104212  0.43375227  0.01293921  1
  O2-  O568  1  0.82370408  0.41052756  0.35164724  1
  O2-  O569  1  0.82225152  0.37700146  0.71368217  1
  O2-  O570  1  0.84713275  0.67886299  0.02876189  1
  O2-  O571  1  0.83232933  0.65995073  0.34838502  1
  O2-  O572  1  0.81849886  0.65573686  0.68661647  1
  O2-  O573  1  0.78769092  0.86456843  0.03608268  1
  O2-  O574  1  0.81806323  0.89905810  0.36653069  1
  O2-  O575  1  0.79867776  0.94197238  0.69250738  1
