# generated using pymatgen
data_H2O
_symmetry_space_group_name_H-M   'P 1'
_cell_length_a   17.97746401
_cell_length_b   17.97615765
_cell_length_c   21.98495767
_cell_angle_alpha   90.02528525
_cell_angle_beta   89.99784078
_cell_angle_gamma   120.00502351
_symmetry_Int_Tables_number   1
_chemical_formula_structural   H2O
_chemical_formula_sum   'H384 O192'
_cell_volume   6152.61192924
_cell_formula_units_Z   192
loop_
 _symmetry_equiv_pos_site_id
 _symmetry_equiv_pos_as_xyz
  1  'x, y, z'
loop_
 _atom_type_symbol
 _atom_type_oxidation_number
  H+  1.0
  O2-  -2.0
loop_
 _atom_site_type_symbol
 _atom_site_label
 _atom_site_symmetry_multiplicity
 _atom_site_fract_x
 _atom_site_fract_y
 _atom_site_fract_z
 _atom_site_occupancy
  H+  H0  1  0.60538031  0.74002023  0.15439477  1
  H+  H1  1  0.45386638  0.09054080  0.50437422  1
  H+  H2  1  0.73331732  0.12056717  0.67140159  1
  H+  H3  1  0.90409273  0.12433263  0.34448711  1
  H+  H4  1  0.26938566  0.87290074  0.50048180  1
  H+  H5  1  0.88451152  0.76245840  0.64942107  1
  H+  H6  1  0.85432721  0.21368665  0.16338889  1
  H+  H7  1  0.87022908  0.22931166  0.67571690  1
  H+  H8  1  0.08208773  0.67710201  0.09926565  1
  H+  H9  1  0.14475790  0.11212313  0.17206299  1
  H+  H10  1  0.01722450  0.46949839  0.10054618  1
  H+  H11  1  0.60484807  0.14147345  0.67900414  1
  H+  H12  1  0.00532932  0.12417327  0.51460007  1
  H+  H13  1  0.29518332  0.38779109  0.15403660  1
  H+  H14  1  0.35495151  0.21623853  0.50266597  1
  H+  H15  1  -0.02603329  0.37187651  0.84070596  1
  H+  H16  1  0.26289040  0.61142674  0.82528340  1
  H+  H17  1  0.00926721  0.86919480  0.82911067  1
  H+  H18  1  0.88291451  0.09918204  0.00713508  1
  H+  H19  1  0.12486761  0.20454187  0.35462525  1
  H+  H20  1  0.39132191  0.02832477  0.32523232  1
  H+  H21  1  0.81076691  0.10169649  0.48605876  1
  H+  H22  1  0.70300093  0.83118918  0.83776334  1
  H+  H23  1  0.87828924  0.73852266  0.34272296  1
  H+  H24  1  0.45412244  0.85254293  0.45266945  1
  H+  H25  1  0.89843286  0.10688646  0.16277066  1
  H+  H26  1  0.62374945  0.04477065  0.53205707  1
  H+  H27  1  0.73567911  0.86739991  0.66261838  1
  H+  H28  1  0.11389855  0.63475675  0.82601656  1
  H+  H29  1  0.72603179  0.36646913  0.32600764  1
  H+  H30  1  0.12229844  0.01029951  0.83813331  1
  H+  H31  1  0.11485665  0.99353332  0.65322349  1
  H+  H32  1  0.09678584  0.17037451  0.09197017  1
  H+  H33  1  0.60859938  0.37940566  0.35029995  1
  H+  H34  1  0.14263240  0.62627665  0.51307286  1
  H+  H35  1  0.50012872  0.87279622  0.98029812  1
  H+  H36  1  0.10910551  0.47245859  0.67284785  1
  H+  H37  1  0.12244951  0.22736239  0.50511330  1
  H+  H38  1  0.85694966  0.48189778  0.34130460  1
  H+  H39  1  0.48232392  0.83388907  0.30382546  1
  H+  H40  1  0.52336267  0.89844257  0.53175280  1
  H+  H41  1  0.64089352  0.27457013  0.32172331  1
  H+  H42  1  0.86260117  0.48068487  0.82049865  1
  H+  H43  1  0.22816615  0.61920330  0.50785403  1
  H+  H44  1  0.79856911  0.88947297  0.17350809  1
  H+  H45  1  0.49165041  0.87775523  0.83046722  1
  H+  H46  1  0.63401342  -0.00158347  0.17862667  1
  H+  H47  1  1.00537432  0.61512994  0.34054827  1
  H+  H48  1  0.51456367  0.62877748  0.48878534  1
  H+  H49  1  0.01888504  0.65251211  0.00541394  1
  H+  H50  1  0.90254488  0.87255021  0.33146654  1
  H+  H51  1  0.23273247  0.60582172  0.15905156  1
  H+  H52  1  0.75941903  0.64283737  0.49037057  1
  H+  H53  1  0.26868330  0.87640345  0.68033806  1
  H+  H54  1  0.89773267  1.03313378  0.33643424  1
  H+  H55  1  0.36954399  0.71018528  0.67837125  1
  H+  H56  1  0.13677382  0.61669386  0.31723984  1
  H+  H57  1  0.36670932  0.22645861  0.34529664  1
  H+  H58  1  0.23293551  0.61217073  0.66475508  1
  H+  H59  1  0.64739655  0.63973609  0.31713883  1
  H+  H60  1  0.13847446  0.11015827  0.99093761  1
  H+  H61  1  0.78316584  0.90719706  0.49425249  1
  H+  H62  1  0.48581351  0.61237042  0.17410287  1
  H+  H63  1  0.21940875  0.88517530  0.98553116  1
  H+  H64  1  0.33942723  0.55637037  0.83248828  1
  H+  H65  1  0.88251930  0.53532222  0.99154643  1
  H+  H66  1  0.87550762  0.74584212  0.84479389  1
  H+  H67  1  0.68054472  0.17682901  0.19862123  1
  H+  H68  1  0.71739518  0.37053641  -0.00789401  1
  H+  H69  1  0.19127601  0.32035919  0.84113086  1
  H+  H70  1  0.89083405  0.62232202  0.66338299  1
  H+  H71  1  0.78621274  0.88753002  0.33234303  1
  H+  H72  1  0.64020691  0.86244095  -0.00633575  1
  H+  H73  1  0.36869215  0.13848288  0.34403179  1
  H+  H74  1  0.61963884  0.72961195  0.67329948  1
  H+  H75  1  0.77299756  0.39161867  0.82163689  1
  H+  H76  1  0.55499674  0.44529675  -0.00261087  1
  H+  H77  1  0.13856225  0.77109561  0.34272946  1
  H+  H78  1  0.62661118  0.64449317  0.67246929  1
  H+  H79  1  0.59426676  0.71309254  0.34334939  1
  H+  H80  1  0.58199648  0.87200792  0.15202622  1
  H+  H81  1  0.39615522  0.87945032  0.83563704  1
  H+  H82  1  0.97542384  0.61084940  0.66238003  1
  H+  H83  1  0.97519685  0.61555205  0.17076108  1
  H+  H84  1  0.92459941  0.13931277  0.52162215  1
  H+  H85  1  0.33820110  0.92422019  0.39754176  1
  H+  H86  1  0.36642066  0.87833361  0.17951317  1
  H+  H87  1  0.27744791  0.88779186  0.82891977  1
  H+  H88  1  0.62117228  0.40135179  0.65874641  1
  H+  H89  1  0.53697174  0.40681680  0.16730871  1
  H+  H90  1  0.40993625  0.87017299  0.98262630  1
  H+  H91  1  0.86231874  0.00660728  0.85926601  1
  H+  H92  1  0.79016504  0.40585781  0.50503410  1
  H+  H93  1  0.48683063  0.61088295  0.65296945  1
  H+  H94  1  0.35832451  0.63237262  0.48747486  1
  H+  H95  1  0.48973731  0.86940460  0.15078536  1
  H+  H96  1  0.72050152  0.62174791  0.99392161  1
  H+  H97  1  0.56003486  0.21187531  0.48912478  1
  H+  H98  1  0.14822742  0.04470472  0.58945692  1
  H+  H99  1  0.95734896  0.35865822  0.16671098  1
  H+  H100  1  0.38830982  0.52035462  0.98914300  1
  H+  H101  1  0.28560168  0.37866435  0.34701232  1
  H+  H102  1  0.31831558  0.77884405  0.18149903  1
  H+  H103  1  0.08682350  0.41347855  0.34263000  1
  H+  H104  1  0.64846734  0.15060838  0.17446695  1
  H+  H105  1  0.58319257  0.92682367  0.59081248  1
  H+  H106  1  0.61265040  0.85063347  0.30514206  1
  H+  H107  1  0.11234656  0.47960183  0.52580599  1
  H+  H108  1  0.61645283  -0.01116507  0.67487675  1
  H+  H109  1  0.90576471  0.32822653  0.57372613  1
  H+  H110  1  0.85998494  0.81890952  1.00656753  1
  H+  H111  1  0.52316240  0.38141430  0.51435585  1
  H+  H112  1  0.62699904  0.41414186  0.16282651  1
  H+  H113  1  0.42458079  0.33254637  0.27567821  1
  H+  H114  1  0.16015816  0.59023569  0.89727583  1
  H+  H115  1  0.11054617  0.49075537  0.29819505  1
  H+  H116  1  0.37289830  0.38584782  -0.00038637  1
  H+  H117  1  0.99174034  0.87300801  0.33810060  1
  H+  H118  1  0.59997585  0.18025375  0.39612745  1
  H+  H119  1  0.73738274  0.37968632  0.63746917  1
  H+  H120  1  0.52257239  0.15394506  0.82517411  1
  H+  H121  1  0.27861127  0.14052633  1.00354792  1
  H+  H122  1  1.00625466  0.13618524  0.80570708  1
  H+  H123  1  0.50888453  0.16934681  0.15395379  1
  H+  H124  1  0.64712196  0.86866525  0.66280982  1
  H+  H125  1  0.88110142  0.36390671  0.66217213  1
  H+  H126  1  0.41841480  0.39899372  0.84645302  1
  H+  H127  1  0.10766230  0.36470642  0.99663623  1
  H+  H128  1  0.35884174  0.62304901  0.33426151  1
  H+  H129  1  0.54129616  0.41619260  0.67310446  1
  H+  H130  1  0.78044419  0.11403479  0.16669142  1
  H+  H131  1  0.12402850  0.72980751  0.67820033  1
  H+  H132  1  0.78430986  0.66298655  0.33257827  1
  H+  H133  1  0.61305301  0.23154821  0.00187144  1
  H+  H134  1  0.05419665  0.09879903  0.65074302  1
  H+  H135  1  0.36651226  0.62018494  0.66938509  1
  H+  H136  1  0.63031854  0.76835839  0.99409849  1
  H+  H137  1  0.84145017  0.17477791  0.77461283  1
  H+  H138  1  0.38070053  0.52468832  0.50429367  1
  H+  H139  1  0.51542834  0.63502616  0.99986282  1
  H+  H140  1  0.22801911  0.36387576  0.51562918  1
  H+  H141  1  0.65064439  0.02406086  0.84763313  1
  H+  H142  1  0.75802469  0.62054733  0.82614028  1
  H+  H143  1  0.13690087  0.77688418  0.51646249  1
  H+  H144  1  0.47993697  0.35744954  0.33839907  1
  H+  H145  1  0.65600116  0.89310653  0.52156946  1
  H+  H146  1  0.62063081  0.98217846  0.00451300  1
  H+  H147  1  0.36191263  0.72304879  0.48118008  1
  H+  H148  1  0.63666660  0.28029767  0.83313343  1
  H+  H149  1  0.22829632  0.61882149  0.31663671  1
  H+  H150  1  0.85794790  0.39255252  0.00119460  1
  H+  H151  1  0.12531579  0.98083964  0.34639296  1
  H+  H152  1  0.14329095  0.85940309  0.18462758  1
  H+  H153  1  0.88445874  0.61998687  0.32549754  1
  H+  H154  1  0.88467953  0.01011567  1.00270704  1
  H+  H155  1  0.87844662  -0.01068694  0.49181841  1
  H+  H156  1  0.72946282  0.37187726  0.17031295  1
  H+  H157  1  0.37245769  0.00985655  0.66200750  1
  H+  H158  1  0.69145751  -0.03777548  0.19628327  1
  H+  H159  1  0.24846568  0.42005541  0.85501892  1
  H+  H160  1  0.37665886  0.10887019  0.83439427  1
  H+  H161  1  0.26388899  0.26093378  0.86800007  1
  H+  H162  1  0.68269722  0.82610554  0.24116335  1
  H+  H163  1  0.60460428  0.91559789  0.26351674  1
  H+  H164  1  0.01322186  0.10903060  0.78285774  1
  H+  H165  1  0.37263009  0.10536592  0.50553623  1
  H+  H166  1  0.88473325  0.61185715  0.83496516  1
  H+  H167  1  0.12852320  0.62562474  0.98539864  1
  H+  H168  1  -0.03709161  0.37168538  0.30863580  1
  H+  H169  1  0.38895127  1.02480763  -0.01138013  1
  H+  H170  1  0.83054942  0.42282895  0.06095141  1
  H+  H171  1  0.62297414  0.39048717  0.82377884  1
  H+  H172  1  0.29710905  0.83766344  0.02463489  1
  H+  H173  1  0.87896554  0.97591125  0.67729689  1
  H+  H174  1  0.63517204  0.52546548  0.51343649  1
  H+  H175  1  0.62671571  0.60326331  0.83925912  1
  H+  H176  1  0.89974991  0.79929332  0.90691048  1
  H+  H177  1  0.02389991  0.63772330  0.82199146  1
  H+  H178  1  0.61923659  0.16831568  0.50188960  1
  H+  H179  1  0.27651348  0.14109061  0.16149324  1
  H+  H180  1  0.40532709  0.56593009  0.92692028  1
  H+  H181  1  0.41257630  0.36047657  0.57995649  1
  H+  H182  1  0.60907016  0.87709920  0.82601485  1
  H+  H183  1  0.21951273  0.07837366  0.49955908  1
  H+  H184  1  0.37150895  0.22726071  1.00315037  1
  H+  H185  1  0.46127254  0.54904321  0.81595408  1
  H+  H186  1  0.12785214  0.97536321  0.16228452  1
  H+  H187  1  0.92795662  0.18457713  0.86920988  1
  H+  H188  1  0.66020339  0.54223944  0.66159108  1
  H+  H189  1  0.38152738  0.85489406  0.66878140  1
  H+  H190  1  0.76452821  0.77954291  0.77786623  1
  H+  H191  1  0.60399083  0.62893188  0.49054835  1
  H+  H192  1  0.37026640  1.00165985  0.15865107  1
  H+  H193  1  0.86263008  0.48213690  0.66763189  1
  H+  H194  1  0.12566747  0.87355877  0.99001268  1
  H+  H195  1  0.33265016  0.20720773  0.80721179  1
  H+  H196  1  0.36515198  0.39241591  0.50056354  1
  H+  H197  1  0.69937195  0.76249150  0.28339148  1
  H+  H198  1  0.36957054  0.61307926  0.15826648  1
  H+  H199  1  0.88536102  0.37438415  0.83813942  1
  H+  H200  1  0.37857104  0.70388429  0.15022595  1
  H+  H201  1  0.14017502  0.10169993  0.33229025  1
  H+  H202  1  0.22828873  0.09320660  0.65899373  1
  H+  H203  1  0.13878659  0.77487155  0.83511482  1
  H+  H204  1  0.36340831  0.72123819  -0.00071776  1
  H+  H205  1  0.12724125  0.52548381  0.83895545  1
  H+  H206  1  0.85528361  0.38805878  0.15649016  1
  H+  H207  1  0.74819913  0.63157713  0.66211823  1
  H+  H208  1  0.11595723  0.22497887  0.15358864  1
  H+  H209  1  0.00323917  0.35951422  -0.00839543  1
  H+  H210  1  0.39878237  0.27698627  0.17777727  1
  H+  H211  1  0.59131314  0.91789525  0.76571808  1
  H+  H212  1  0.64702358  0.54382689  0.16923572  1
  H+  H213  1  0.38634401  0.11226737  0.99344965  1
  H+  H214  1  0.71212890  0.12776575  0.51325501  1
  H+  H215  1  0.88009141  0.26906433  0.51419313  1
  H+  H216  1  0.18633708  0.18146008  0.83837458  1
  H+  H217  1  0.63271212  0.51753627  0.84053259  1
  H+  H218  1  0.38125990  0.74371556  0.32260587  1
  H+  H219  1  0.14210858  0.77104756  0.18182089  1
  H+  H220  1  0.34401463  0.41286302  0.05949502  1
  H+  H221  1  0.38806779  0.12733804  0.17598313  1
  H+  H222  1  -0.01251054  0.10739091  0.15995375  1
  H+  H223  1  0.90556565  0.52926570  0.50803814  1
  H+  H224  1  0.02422766  0.38864230  0.52446261  1
  H+  H225  1  0.10183408  0.87776935  0.82273410  1
  H+  H226  1  0.11135253  0.22060493  -0.00239836  1
  H+  H227  1  0.07213208  0.41018316  0.05036604  1
  H+  H228  1  0.13145537  0.63661737  0.67698011  1
  H+  H229  1  0.61852587  0.39733137  0.51677038  1
  H+  H230  1  0.64164720  0.11495382  0.99623842  1
  H+  H231  1  0.04002244  0.57221047  0.38560363  1
  H+  H232  1  0.90906795  0.86902625  0.17867907  1
  H+  H233  1  0.69407265  0.86933490  0.13879194  1
  H+  H234  1  0.66859065  0.30686533  0.53740973  1
  H+  H235  1  0.36465829  -0.01929796  0.82868022  1
  H+  H236  1  0.64761531  0.63321162  0.16242177  1
  H+  H237  1  0.12734406  0.84805514  0.66882168  1
  H+  H238  1  0.38235848  0.51380911  0.32781907  1
  H+  H239  1  0.62167212  0.35726303  0.98552299  1
  H+  H240  1  0.13511383  1.02064527  -0.00371059  1
  H+  H241  1  0.09907520  0.49277514  0.13851447  1
  H+  H242  1  0.88347670  0.26561102  0.99041847  1
  H+  H243  1  0.62122634  0.13776040  0.33968549  1
  H+  H244  1  0.03928470  0.88660150  0.16690180  1
  H+  H245  1  0.66027377  0.58305991  0.93660656  1
  H+  H246  1  0.77497139  0.13382263  1.00802795  1
  H+  H247  1  0.85639001  0.75085337  0.49180625  1
  H+  H248  1  0.42244423  0.57303857  0.23355646  1
  H+  H249  1  0.48968767  0.37401968  0.83645607  1
  H+  H250  1  0.09919927  0.37785385  0.67453575  1
  H+  H251  1  0.87751632  0.14395164  0.67770382  1
  H+  H252  1  0.09320095  0.25290535  0.65974292  1
  H+  H253  1  0.25501673  0.11377464  0.81880541  1
  H+  H254  1  0.48193075  0.11646972  0.32611722  1
  H+  H255  1  0.16763006  0.38470957  0.19660394  1
  H+  H256  1  0.38173905  0.47761067  0.15733900  1
  H+  H257  1  0.84742636  1.01489618  0.82944166  1
  H+  H258  1  0.64527453  0.02046960  0.33918413  1
  H+  H259  1  0.03005096  0.12444328  0.35670539  1
  H+  H260  1  0.78405378  0.65410696  0.15165745  1
  H+  H261  1  0.11540014  0.63942660  0.15170323  1
  H+  H262  1  0.66943084  0.33944417  0.23175734  1
  H+  H263  1  0.73732568  0.11517096  0.84866082  1
  H+  H264  1  0.86192547  0.48156935  0.15720804  1
  H+  H265  1  0.01121976  0.86708472  0.66620850  1
  H+  H266  1  0.09958130  0.37185912  0.24558654  1
  H+  H267  1  0.14835272  0.33131758  0.35943437  1
  H+  H268  1  0.87348259  0.36718132  0.32363999  1
  H+  H269  1  0.86109450  0.24020885  0.82948662  1
  H+  H270  1  0.35237657  0.96485142  0.49744644  1
  H+  H271  1  0.58227546  0.69923573  0.82744817  1
  H+  H272  1  0.87780271  0.73699948  0.15926295  1
  H+  H273  1  0.11349144  0.39655595  0.82863733  1
  H+  H274  1  0.27758703  0.89489645  0.34114046  1
  H+  H275  1  0.02703723  0.64191490  0.50360511  1
  H+  H276  1  0.33230875  0.10178829  0.66411346  1
  H+  H277  1  0.13915555  0.36336283  0.52658727  1
  H+  H278  1  0.67449987  0.59434225  0.56774220  1
  H+  H279  1  0.23265026  0.10966830  0.32840079  1
  H+  H280  1  0.52493580  0.14116671  1.00391078  1
  H+  H281  1  0.76849328  0.86744877  1.01087301  1
  H+  H282  1  0.78065369  0.14180734  0.34386403  1
  H+  H283  1  0.83725956  0.83311538  0.82461715  1
  H+  H284  1  0.52554018  0.89542327  0.67527047  1
  H+  H285  1  0.21623571  0.62684856  0.98781584  1
  H+  H286  1  0.11956966  0.88999291  0.35500793  1
  H+  H287  1  0.00717550  0.86867801  0.01838558  1
  H+  H288  1  0.32736032  0.66287201  0.05779346  1
  H+  H289  1  0.67285545  0.10532639  0.61414227  1
  H+  H290  1  0.40907497  0.82266081  0.61077587  1
  H+  H291  1  0.68993724  0.63453243  0.25321556  1
  H+  H292  1  0.17194446  0.34234874  0.93072794  1
  H+  H293  1  0.57606216  0.67563355  0.09667318  1
  H+  H294  1  0.05823971  0.36248277  0.41491570  1
  H+  H295  1  0.86273789  0.23612900  0.34343718  1
  H+  H296  1  0.86626271  0.38635597  0.49609880  1
  H+  H297  1  0.57391837  0.91396504  0.05924855  1
  H+  H298  1  0.93973805  0.08883563  0.60375720  1
  H+  H299  1  0.83169846  0.42204241  0.40139777  1
  H+  H300  1  0.32398096  0.62997994  0.76703412  1
  H+  H301  1  0.34019878  0.41550098  0.43683994  1
  H+  H302  1  0.56068091  0.95277940  0.41085202  1
  H+  H303  1  0.16292880  0.83809536  0.89258585  1
  H+  H304  1  0.84854821  0.70060731  0.06089242  1
  H+  H305  1  0.42679554  0.09909745  0.23311950  1
  H+  H306  1  0.59000535  0.93491823  0.41746489  1
  H+  H307  1  0.16523205  0.82429892  0.61010955  1
  H+  H308  1  0.95257700  0.14497936  0.92247232  1
  H+  H309  1  0.51318426  0.13346443  0.67376911  1
  H+  H310  1  0.38661761  0.86395833  0.49099114  1
  H+  H311  1  0.15287931  0.32106724  0.61137056  1
  H+  H312  1  0.09225877  0.66517591  0.74311427  1
  H+  H313  1  0.17318830  0.58954712  0.21717922  1
  H+  H314  1  0.37777466  0.38629824  0.34533009  1
  H+  H315  1  0.82287479  0.67508688  0.42854516  1
  H+  H316  1  0.16057894  0.32023531  0.28899299  1
  H+  H317  1  0.88220818  0.97923896  0.15762407  1
  H+  H318  1  0.07782922  0.90866267  0.07169462  1
  H+  H319  1  0.17392052  0.59493162  0.60501584  1
  H+  H320  1  0.90585076  0.71530669  0.71603167  1
  H+  H321  1  0.91144902  0.32936661  0.93104319  1
  H+  H322  1  0.10448960  0.37197316  0.41663011  1
  H+  H323  1  -0.02797632  0.36585108  0.66338873  1
  H+  H324  1  0.92675525  0.58671743  0.56823210  1
  H+  H325  1  0.38682779  0.36240324  0.69698046  1
  H+  H326  1  0.81850602  0.64964939  0.76469253  1
  H+  H327  1  0.12075033  0.95114979  0.44552245  1
  H+  H328  1  0.60646213  0.26803565  0.15259333  1
  H+  H329  1  0.43442850  0.84875460  0.89745789  1
  H+  H330  1  0.16261466  0.82245059  0.27969434  1
  H+  H331  1  0.82240381  0.16821440  0.43505269  1
  H+  H332  1  0.91983994  0.58952995  0.89461413  1
  H+  H333  1  0.39490608  0.81602507  0.26429018  1
  H+  H334  1  0.59696722  0.42415544  0.76382688  1
  H+  H335  1  0.07800379  0.41825588  0.76825408  1
  H+  H336  1  0.65451106  0.82129520  0.90065080  1
  H+  H337  1  0.33377881  0.16624444  0.43761015  1
  H+  H338  1  0.90646057  0.82694533  0.55664774  1
  H+  H339  1  0.88801753  0.61849323  0.16728388  1
  H+  H340  1  0.09530722  0.15898765  0.44954806  1
  H+  H341  1  0.57713307  0.18344033  0.76413884  1
  H+  H342  1  0.41112696  0.08665401  0.89575374  1
  H+  H343  1  0.57769392  0.40291607  0.41217478  1
  H+  H344  1  0.67897361  0.06060754  0.27529206  1
  H+  H345  1  0.82482995  0.41858785  0.72454243  1
  H+  H346  1  0.88615635  0.85368768  0.65009672  1
  H+  H347  1  0.83766482  0.90086905  0.72865036  1
  H+  H348  1  0.83085849  0.89501934  0.07010221  1
  H+  H349  1  0.10748729  0.74180214  1.00442887  1
  H+  H350  1  0.33668377  0.17181141  0.10162281  1
  H+  H351  1  0.39790144  0.06884028  0.60171866  1
  H+  H352  1  0.33391464  0.91322106  0.73701531  1
  H+  H353  1  0.57508311  0.65495439  0.76297894  1
  H+  H354  1  0.15526710  0.87529112  0.52142708  1
  H+  H355  1  0.83594479  0.92046117  0.39685006  1
  H+  H356  1  0.16267438  0.06730915  0.89895270  1
  H+  H357  1  0.43780234  0.28360721  0.57744784  1
  H+  H358  1  0.60499294  0.63638805  0.00619909  1
  H+  H359  1  0.46873126  0.60483566  0.32841478  1
  H+  H360  1  0.83402290  0.16370552  0.06746189  1
  H+  H361  1  0.27839896  0.91325127  0.15960296  1
  H+  H362  1  0.41663155  0.58896249  0.56079660  1
  H+  H363  1  0.41324780  0.51717363  0.63482336  1
  H+  H364  1  0.56986874  0.19751775  0.08716792  1
  H+  H365  1  0.68630074  0.84825545  0.56761246  1
  H+  H366  1  0.34108574  0.91852387  0.06680646  1
  H+  H367  1  0.08735915  0.67829547  0.44399148  1
  H+  H368  1  0.40228027  0.36618342  0.17709679  1
  H+  H369  1  0.06423510  0.89907035  0.73002557  1
  H+  H370  1  0.56921196  0.65162580  0.40231596  1
  H+  H371  1  0.87776083  0.86541016  0.49902060  1
  H+  H372  1  1.02401229  0.12964087  1.00743083  1
  H+  H373  1  0.44772512  0.34922097  0.92933098  1
  H+  H374  1  0.89897107  0.32874223  0.22755542  1
  H+  H375  1  0.67376456  0.08381558  0.93691251  1
  H+  H376  1  0.22583505  0.35986743  0.99234737  1
  H+  H377  1  0.17307314  0.08280942  0.23324993  1
  H+  H378  1  0.88462114  0.62577409  0.98850793  1
  H+  H379  1  0.67021216  0.33942133  0.89358254  1
  H+  H380  1  0.93674605  0.83855803  0.23908241  1
  H+  H381  1  0.91160509  0.58729073  0.26526024  1
  H+  H382  1  0.33010326  0.65858602  0.39358465  1
  H+  H383  1  0.29682080  0.13335143  0.72378538  1
  O2-  O384  1  0.09720454  0.16750508  0.13797702  1
  O2-  O385  1  0.09248242  0.16477352  0.49444880  1
  O2-  O386  1  0.22575992  0.24372374  0.83280472  1
  O2-  O387  1  0.04969354  0.44351238  0.11654612  1
  O2-  O388  1  0.08716262  0.41685799  0.52947974  1
  O2-  O389  1  0.07827454  0.42164382  0.81379414  1
  O2-  O390  1  0.08302360  0.67002953  0.14457653  1
  O2-  O391  1  0.09069046  0.67923800  0.48861117  1
  O2-  O392  1  0.08529720  0.66705990  0.80717364  1
  O2-  O393  1  0.09858433  0.91407242  0.14866992  1
  O2-  O394  1  0.14161980  0.95416411  0.48855679  1
  O2-  O395  1  0.06656066  0.90358254  0.80930174  1
  O2-  O396  1  0.33787472  0.17319203  0.14687728  1
  O2-  O397  1  0.32836691  0.15841543  0.48320068  1
  O2-  O398  1  0.31265327  0.14679652  0.79718043  1
  O2-  O399  1  0.35398916  0.41782464  0.13905454  1
  O2-  O400  1  0.33455518  0.41880750  0.48214091  1
  O2-  O401  1  0.40636761  0.49257421  0.81597687  1
  O2-  O402  1  0.33966597  0.64354301  0.14092534  1
  O2-  O403  1  0.32794035  0.66179814  0.46871158  1
  O2-  O404  1  0.32009070  0.62110418  0.81175878  1
  O2-  O405  1  0.33795511  0.94025600  0.14362789  1
  O2-  O406  1  0.32822954  0.90515403  0.48173448  1
  O2-  O407  1  0.33869991  0.91874197  0.81471453  1
  O2-  O408  1  0.55605967  0.21712417  0.12799903  1
  O2-  O409  1  0.61304999  0.21296007  0.47803825  1
  O2-  O410  1  0.58144267  0.18858288  0.80954342  1
  O2-  O411  1  0.59544450  0.44347770  0.15056605  1
  O2-  O412  1  0.58199609  0.41644169  0.49620870  1
  O2-  O413  1  0.59117805  0.42041669  0.80889387  1
  O2-  O414  1  0.58009060  0.67847953  0.14243311  1
  O2-  O415  1  0.57251391  0.65413391  0.47002602  1
  O2-  O416  1  0.56469308  0.64319570  0.80787253  1
  O2-  O417  1  0.54910394  0.90083494  0.13599845  1
  O2-  O418  1  0.58274581  0.93738726  0.54688373  1
  O2-  O419  1  0.58409384  0.91295779  0.81054839  1
  O2-  O420  1  0.83477328  0.15528360  0.14662262  1
  O2-  O421  1  0.81267873  0.15651495  0.48055185  1
  O2-  O422  1  0.83760813  0.17825253  0.81938668  1
  O2-  O423  1  0.82927371  0.42179604  0.14010779  1
  O2-  O424  1  0.84159798  0.42183179  0.47994993  1
  O2-  O425  1  0.83299117  0.42100452  0.80422780  1
  O2-  O426  1  0.84526918  0.68105948  0.13707795  1
  O2-  O427  1  0.82026754  0.67942435  0.47419699  1
  O2-  O428  1  0.81907468  0.64954787  0.81050479  1
  O2-  O429  1  0.85081020  0.91351732  0.14884893  1
  O2-  O430  1  0.84253986  0.93045130  0.47545724  1
  O2-  O431  1  0.79434128  0.83615960  0.79692762  1
  O2-  O432  1  0.17550986  0.08277505  0.18757576  1
  O2-  O433  1  0.15923186  0.03746799  0.51278185  1
  O2-  O434  1  0.16240806  0.06939085  0.85354255  1
  O2-  O435  1  0.12384939  0.34092199  0.22267032  1
  O2-  O436  1  0.16905318  0.32906268  0.53196819  1
  O2-  O437  1  0.18838348  0.36993031  0.85865622  1
  O2-  O438  1  0.17211615  0.58475570  0.17200397  1
  O2-  O439  1  0.17242139  0.59623375  0.52979103  1
  O2-  O440  1  0.16039785  0.58782441  0.85071004  1
  O2-  O441  1  0.17359338  0.82945658  0.20069318  1
  O2-  O442  1  0.17397242  0.83480035  0.53631368  1
  O2-  O443  1  0.16801255  0.83656288  0.84734616  1
  O2-  O444  1  0.42505798  0.10140192  0.18719837  1
  O2-  O445  1  0.39749983  0.06931289  0.52272577  1
  O2-  O446  1  0.40833581  0.08103029  0.85060383  1
  O2-  O447  1  0.42964916  0.33564127  0.19595840  1
  O2-  O448  1  0.42295246  0.31498011  0.54819297  1
  O2-  O449  1  0.43252963  0.35374975  0.85666500  1
  O2-  O450  1  0.42469525  0.57276862  0.18790977  1
  O2-  O451  1  0.40938674  0.58698117  0.51539090  1
  O2-  O452  1  0.34983826  0.50953390  0.85539969  1
  O2-  O453  1  0.37310728  0.82811716  0.19376629  1
  O2-  O454  1  0.42579921  0.83762777  0.49235938  1
  O2-  O455  1  0.43039120  0.85064606  0.84912102  1
  O2-  O456  1  0.68440979  0.01370092  0.20494298  1
  O2-  O457  1  0.65606542  0.10905732  0.53378309  1
  O2-  O458  1  0.67910759  0.08056746  0.86748601  1
  O2-  O459  1  0.66878670  0.34267799  0.18586661  1
  O2-  O460  1  0.69244393  0.36667024  0.55228501  1
  O2-  O461  1  0.67321555  0.34272444  0.84859811  1
  O2-  O462  1  0.68143728  0.60782818  0.17894946  1
  O2-  O463  1  0.66699864  0.58846804  0.52257818  1
  O2-  O464  1  0.66085966  0.57822428  0.85656684  1
  O2-  O465  1  0.65927348  0.85556892  0.17548494  1
  O2-  O466  1  0.68964592  0.86376516  0.52395745  1
  O2-  O467  1  0.64621045  0.81573020  0.85528677  1
  O2-  O468  1  0.92703988  0.07380104  0.17366312  1
  O2-  O469  1  0.94021009  0.09569833  0.53046631  1
  O2-  O470  1  0.97465267  0.19755053  0.89829176  1
  O2-  O471  1  0.89789246  0.32464866  0.18193748  1
  O2-  O472  1  0.90763180  0.32922985  0.52771295  1
  O2-  O473  1  0.91383140  0.34405641  0.85677662  1
  O2-  O474  1  0.91424502  0.58552872  0.18505799  1
  O2-  O475  1  0.93615549  0.58917717  0.52335299  1
  O2-  O476  1  0.92178155  0.58824256  0.84929087  1
  O2-  O477  1  0.93802508  0.83720807  0.19352687  1
  O2-  O478  1  0.90004660  0.82587902  0.51104454  1
  O2-  O479  1  0.90448104  0.80575355  0.86206993  1
  O2-  O480  1  0.17314158  0.07698685  0.31148769  1
  O2-  O481  1  0.14625794  0.05289425  0.63463823  1
  O2-  O482  1  0.16923064  0.07877633  0.97838186  1
  O2-  O483  1  0.17796018  0.31302157  0.33092111  1
  O2-  O484  1  0.13430257  0.31449191  0.65462202  1
  O2-  O485  1  0.16574508  0.33116303  0.97629191  1
  O2-  O486  1  0.17171894  0.59584106  0.29552187  1
  O2-  O487  1  0.17234605  0.59221222  0.65103151  1
  O2-  O488  1  0.15779882  0.59547491  0.96954358  1
  O2-  O489  1  0.16450720  0.82856687  0.32516692  1
  O2-  O490  1  0.16216007  0.82057553  0.65623984  1
  O2-  O491  1  0.16029540  0.84929997  0.97093395  1
  O2-  O492  1  0.42251224  0.08959585  0.30972668  1
  O2-  O493  1  0.39391396  0.06986226  0.64692256  1
  O2-  O494  1  0.41887052  0.08512995  0.97587149  1
  O2-  O495  1  0.41910525  0.32938085  0.32095699  1
  O2-  O496  1  0.43810559  0.40142178  0.67383814  1
  O2-  O497  1  0.44356208  0.34259245  0.97604438  1
  O2-  O498  1  0.40821694  0.57384425  0.31086269  1
  O2-  O499  1  0.42706275  0.57839255  0.63641399  1
  O2-  O500  1  0.41700943  0.57843321  0.97080177  1
  O2-  O501  1  0.41634857  0.80785575  0.30515661  1
  O2-  O502  1  0.41594093  0.82763346  0.65488354  1
  O2-  O503  1  0.43968656  0.84376449  0.96188814  1
  O2-  O504  1  0.67449958  0.07599820  0.31814051  1
  O2-  O505  1  0.67182003  0.09290882  0.65829013  1
  O2-  O506  1  0.67103023  0.08333175  0.98393589  1
  O2-  O507  1  0.66724239  0.33530056  0.30775538  1
  O2-  O508  1  0.67791327  0.35364966  0.61847689  1
  O2-  O509  1  0.65871926  0.33293960  0.97525986  1
  O2-  O510  1  0.70217424  0.66369129  0.29403519  1
  O2-  O511  1  0.68834314  0.60300274  0.64671943  1
  O2-  O512  1  0.65977992  0.58548550  0.98195510  1
  O2-  O513  1  0.68967868  0.81268825  0.28490552  1
  O2-  O514  1  0.67464051  0.83589760  0.64861323  1
  O2-  O515  1  0.66722137  0.82901698  0.97877246  1
  O2-  O516  1  0.93622857  0.09599287  0.33149271  1
  O2-  O517  1  0.93711622  0.08375498  0.65037101  1
  O2-  O518  1  0.91804137  0.07265772  0.99537307  1
  O2-  O519  1  0.89966325  0.33422428  0.30518569  1
  O2-  O520  1  0.91083593  0.33205663  0.64883176  1
  O2-  O521  1  0.91528986  0.32756220  0.97700991  1
  O2-  O522  1  0.91187106  0.58623032  0.31077253  1
  O2-  O523  1  0.91699310  0.58542217  0.64611241  1
  O2-  O524  1  0.91509715  0.59525781  0.97560974  1
  O2-  O525  1  0.93360781  0.84186310  0.31855860  1
  O2-  O526  1  0.91490444  0.82368894  0.63205294  1
  O2-  O527  1  0.89290430  0.78874150  0.99313556  1
  O2-  O528  1  0.08750887  0.16285484  0.01678614  1
  O2-  O529  1  0.09156703  0.14517652  0.37042714  1
  O2-  O530  1  0.02852544  0.13154485  0.66840614  1
  O2-  O531  1  0.06898877  0.39094761  0.00703553  1
  O2-  O532  1  0.07468573  0.42609006  0.30154126  1
  O2-  O533  1  0.07398974  0.41424740  0.68986542  1
  O2-  O534  1  0.07875459  0.68297657  0.02182469  1
  O2-  O535  1  0.06001512  0.62471636  0.36174423  1
  O2-  O536  1  0.09735064  0.66677092  0.69412727  1
  O2-  O537  1  0.06892366  0.90821000  0.02649852  1
  O2-  O538  1  0.09437855  0.92505603  0.36954797  1
  O2-  O539  1  0.07066080  0.89688312  0.68488166  1
  O2-  O540  1  0.33876570  0.16802756  0.01952441  1
  O2-  O541  1  0.33637605  0.16564357  0.36103221  1
  O2-  O542  1  0.29358847  0.12644776  0.67770399  1
  O2-  O543  1  0.33605479  0.40847021  0.01464899  1
  O2-  O544  1  0.34620963  0.41671607  0.35995613  1
  O2-  O545  1  0.40250437  0.41354573  0.61649096  1
  O2-  O546  1  0.31262977  0.69094837  0.02536647  1
  O2-  O547  1  0.33151367  0.65868529  0.34723450  1
  O2-  O548  1  0.33524909  0.64809498  0.68740094  1
  O2-  O549  1  0.33431016  0.90016016  0.02307325  1
  O2-  O550  1  0.33900412  0.92853758  0.35273276  1
  O2-  O551  1  0.33099562  0.90802105  0.69147167  1
  O2-  O552  1  0.58313841  0.17401408  0.02287936  1
  O2-  O553  1  0.59212949  0.17003943  0.35166903  1
  O2-  O554  1  0.57224955  0.17091143  0.68810569  1
  O2-  O555  1  0.53284409  0.38266730  -0.00110722  1
  O2-  O556  1  0.57336041  0.40254133  0.36731946  1
  O2-  O557  1  0.60242471  0.43555877  0.68292570  1
  O2-  O558  1  0.57412716  0.66720739  0.01941917  1
  O2-  O559  1  0.56548090  0.65238398  0.35479225  1
  O2-  O560  1  0.58971516  0.66835309  0.68682036  1
  O2-  O561  1  0.58822585  0.91871619  0.01500326  1
  O2-  O562  1  0.58172531  0.88318925  0.30154316  1
  O2-  O563  1  0.58888946  0.92456546  0.68130166  1
  O2-  O564  1  0.83634653  0.16473256  0.02213240  1
  O2-  O565  1  0.83833252  0.17809929  0.36246053  1
  O2-  O566  1  0.84200296  0.16869664  0.69114342  1
  O2-  O567  1  0.82959990  0.42448828  0.01545234  1
  O2-  O568  1  0.82922233  0.42116970  0.35583909  1
  O2-  O569  1  0.82813385  0.41952111  0.67904867  1
  O2-  O570  1  0.84165559  0.69828709  0.01475510  1
  O2-  O571  1  0.83910967  0.67646855  0.35392383  1
  O2-  O572  1  0.85739702  0.67694497  0.69038138  1
  O2-  O573  1  0.82900909  0.88937942  0.02488729  1
  O2-  O574  1  0.84335324  0.92118075  0.35166117  1
  O2-  O575  1  0.84265574  0.91291214  0.68434047  1
