# generated using pymatgen
data_H2O
_symmetry_space_group_name_H-M   'P 1'
_cell_length_a   17.99158609
_cell_length_b   17.99776740
_cell_length_c   22.00797426
_cell_angle_alpha   89.98759677
_cell_angle_beta   90.00747890
_cell_angle_gamma   119.98900377
_symmetry_Int_Tables_number   1
_chemical_formula_structural   H2O
_chemical_formula_sum   'H384 O192'
_cell_volume   6172.29803283
_cell_formula_units_Z   192
loop_
 _symmetry_equiv_pos_site_id
 _symmetry_equiv_pos_as_xyz
  1  'x, y, z'
loop_
 _atom_type_symbol
 _atom_type_oxidation_number
  H+  1.0
  O2-  -2.0
loop_
 _atom_site_type_symbol
 _atom_site_label
 _atom_site_symmetry_multiplicity
 _atom_site_fract_x
 _atom_site_fract_y
 _atom_site_fract_z
 _atom_site_occupancy
  H+  H0  1  0.49650681  0.88837190  1.01058798  1
  H+  H1  1  0.76590614  0.37463469  0.66036185  1
  H+  H2  1  0.39241078  0.61844160  0.65929718  1
  H+  H3  1  0.62750027  0.60360290  0.50171377  1
  H+  H4  1  0.47632588  0.86071548  0.32174249  1
  H+  H5  1  0.86760863  0.73108433  0.66751334  1
  H+  H6  1  0.51318677  0.40206942  0.67373602  1
  H+  H7  1  0.70204997  0.02983220  0.50224582  1
  H+  H8  1  0.37331537  0.10912285  0.83875981  1
  H+  H9  1  0.86243687  0.89012960  0.34459130  1
  H+  H10  1  0.10213817  0.61963806  0.15654658  1
  H+  H11  1  0.54608810  0.63349247  0.08007262  1
  H+  H12  1  0.26040060  0.87857585  0.83134653  1
  H+  H13  1  0.61807206  0.48568679  0.85068210  1
  H+  H14  1  0.48270255  0.36678591  0.17418107  1
  H+  H15  1  -0.00941405  0.38386468  0.50447294  1
  H+  H16  1  0.62588744  0.02991766  0.18137346  1
  H+  H17  1  0.61032398  0.97790569  0.67113154  1
  H+  H18  1  0.25803197  0.38696796  0.34169115  1
  H+  H19  1  0.61417088  0.64314143  0.33992468  1
  H+  H20  1  0.63209871  0.75852232  0.50602490  1
  H+  H21  1  0.77319530  0.13700651  0.68054906  1
  H+  H22  1  0.36074861  0.72657815  0.82175253  1
  H+  H23  1  0.15311226  0.28148804  0.17164871  1
  H+  H24  1  0.86284644  0.93570000  0.15784406  1
  H+  H25  1  0.59470319  0.94144388  0.48587309  1
  H+  H26  1  0.38437393  0.85945597  0.50229688  1
  H+  H27  1  0.83268600  0.17652355  0.07127668  1
  H+  H28  1  0.24197638  0.87215015  0.99760528  1
  H+  H29  1  0.21578340  0.89540368  0.15891016  1
  H+  H30  1  0.12576226  0.42220458  0.35664055  1
  H+  H31  1  0.61075788  0.22471342  0.49061000  1
  H+  H32  1  0.99349711  0.05594938  0.18296862  1
  H+  H33  1  0.61100968  0.97178670  0.33464716  1
  H+  H34  1  0.52932087  0.64445620  0.66665782  1
  H+  H35  1  0.62449271  0.84280336  0.50553334  1
  H+  H36  1  0.63259029  0.87187061  0.81687982  1
  H+  H37  1  0.27569605  0.64119231  0.33741246  1
  H+  H38  1  0.48307557  0.09133786  0.18456308  1
  H+  H39  1  0.88987053  0.27003648  0.65925296  1
  H+  H40  1  0.28611583  0.39693463  0.15921669  1
  H+  H41  1  0.51324732  0.12159432  0.67151175  1
  H+  H42  1  0.37236161  0.48793408  0.67344751  1
  H+  H43  1  0.27340144  0.38179018  0.49355153  1
  H+  H44  1  0.66715931  0.58736060  0.90135002  1
  H+  H45  1  0.02820488  0.65018444  0.81525843  1
  H+  H46  1  0.27678109  0.63604151  0.66846588  1
  H+  H47  1  0.71430755  0.61095225  0.17740156  1
  H+  H48  1  0.11829963  0.21358215  0.49951541  1
  H+  H49  1  0.96866388  0.59731405  0.16717114  1
  H+  H50  1  0.12273326  0.13206016  0.34549838  1
  H+  H51  1  0.51990985  0.63343364  0.33784260  1
  H+  H52  1  0.38716501  0.36328324  0.99330733  1
  H+  H53  1  0.38100435  0.60858766  0.50461687  1
  H+  H54  1  0.78837265  0.87995982  1.00124740  1
  H+  H55  1  0.22631364  0.35901969  0.83742869  1
  H+  H56  1  0.60546598  0.32723110  0.32978031  1
  H+  H57  1  -0.02167160  0.10915103  0.50684903  1
  H+  H58  1  0.88534835  0.02523861  0.50372093  1
  H+  H59  1  0.90445854  0.86907516  0.99468204  1
  H+  H60  1  0.61479623  0.11352495  0.34836820  1
  H+  H61  1  0.86449796  0.47135366  0.48347880  1
  H+  H62  1  0.11522049  0.65278457  0.48419358  1
  H+  H63  1  0.12081797  0.90881385  0.34040338  1
  H+  H64  1  0.36879976  0.98060630  0.00975309  1
  H+  H65  1  0.16099920  0.02751948  0.17710590  1
  H+  H66  1  0.73129330  0.62376017  0.65315462  1
  H+  H67  1  0.39563079  0.37059136  0.16982949  1
  H+  H68  1  0.40768194  0.33453632  0.26485088  1
  H+  H69  1  0.57227425  0.91662861  0.75701520  1
  H+  H70  1  0.77331825  0.88612787  0.49536063  1
  H+  H71  1  0.98208793  0.37544473  1.00124380  1
  H+  H72  1  1.02736305  0.64589450  1.00213311  1
  H+  H73  1  0.37124626  -0.02604680  0.49252725  1
  H+  H74  1  0.70116159  0.12218451  1.01042425  1
  H+  H75  1  0.16994431  0.58204025  0.23490691  1
  H+  H76  1  0.35923886  0.72155470  0.49257001  1
  H+  H77  1  0.98674720  0.87017821  0.66408092  1
  H+  H78  1  0.89426497  0.63126141  -0.00824540  1
  H+  H79  1  0.09768266  0.73170497  0.48779135  1
  H+  H80  1  0.89674105  0.13340498  0.18444214  1
  H+  H81  1  0.37925515  0.86098489  0.84187030  1
  H+  H82  1  0.66556584  0.55916521  0.35628067  1
  H+  H83  1  0.36071764  0.72368405  0.01223440  1
  H+  H84  1  0.02713629  0.38875483  0.66751040  1
  H+  H85  1  0.37955394  0.63841386  0.16234370  1
  H+  H86  1  0.97174338  0.61085933  0.48781874  1
  H+  H87  1  0.13519083  0.27356937  0.83756598  1
  H+  H88  1  0.10764321  0.85979635  0.51004164  1
  H+  H89  1  0.27835735  0.88377479  0.67351031  1
  H+  H90  1  0.07572634  0.31002659  0.30575132  1
  H+  H91  1  0.89651850  0.86833789  0.65956319  1
  H+  H92  1  0.96124916  -0.03864143  0.20691710  1
  H+  H93  1  0.11481634  0.10829927  0.82874213  1
  H+  H94  1  0.27436541  0.14120342  0.82713059  1
  H+  H95  1  0.99385482  0.88679913  0.33803628  1
  H+  H96  1  0.03274557  0.38170057  0.16132421  1
  H+  H97  1  0.62823084  0.34522536  0.64023175  1
  H+  H98  1  0.86330043  0.73189291  0.01068777  1
  H+  H99  1  0.36224726  0.38832450  0.82593552  1
  H+  H100  1  0.88979601  0.77487281  0.83685824  1
  H+  H101  1  0.92719485  0.60960297  0.93028726  1
  H+  H102  1  0.14477653  0.11140827  0.50925936  1
  H+  H103  1  0.86994081  -0.02033299  0.82443153  1
  H+  H104  1  0.83695062  0.41452499  0.91050065  1
  H+  H105  1  0.13936901  0.15572036  0.67083673  1
  H+  H106  1  0.87848024  0.60436616  0.48897603  1
  H+  H107  1  0.22133007  0.62568346  0.50290663  1
  H+  H108  1  0.89069981  1.02106226  -0.00122865  1
  H+  H109  1  0.68576591  0.11232860  0.83707156  1
  H+  H110  1  0.75853072  0.16705768  0.52438519  1
  H+  H111  1  0.64266357  0.76397070  0.65612400  1
  H+  H112  1  0.13061967  0.65818103  0.66649122  1
  H+  H113  1  0.14148564  0.01855835  0.99950013  1
  H+  H114  1  0.89969549  0.11534594  1.00505420  1
  H+  H115  1  0.37142087  1.01796575  0.83990023  1
  H+  H116  1  1.03651320  0.88264367  1.01398761  1
  H+  H117  1  0.58454851  0.15112017  0.43943258  1
  H+  H118  1  0.59199121  0.89408829  0.16739147  1
  H+  H119  1  0.62969647  0.77047548  0.32072784  1
  H+  H120  1  0.86877395  0.38026142  0.97256932  1
  H+  H121  1  0.27014871  0.37983426  0.00675049  1
  H+  H122  1  0.58338375  0.15987328  0.11661163  1
  H+  H123  1  0.12858162  0.44021332  0.49579352  1
  H+  H124  1  0.12507713  0.89671668  0.67706963  1
  H+  H125  1  0.14853608  0.63341579  0.32460855  1
  H+  H126  1  0.37310979  0.23633681  0.15237375  1
  H+  H127  1  0.08916540  0.15882128  0.43763103  1
  H+  H128  1  0.39085664  0.27783863  0.84003902  1
  H+  H129  1  0.77179694  0.64492968  0.00890965  1
  H+  H130  1  0.28909039  0.14543103  0.15470704  1
  H+  H131  1  0.38004660  0.51982525  0.32491181  1
  H+  H132  1  0.59459231  0.44335908  0.32015042  1
  H+  H133  1  0.63042253  0.26422169  0.17708127  1
  H+  H134  1  0.61860186  0.64203699  0.66327984  1
  H+  H135  1  0.15436425  0.28779082  0.66120191  1
  H+  H136  1  0.14159979  0.53778954  0.82553339  1
  H+  H137  1  0.14427658  0.02885516  0.66327307  1
  H+  H138  1  0.00095061  0.36155503  0.33129545  1
  H+  H139  1  0.69493852  0.32957603  0.33173762  1
  H+  H140  1  0.72275855  0.13574340  0.14219902  1
  H+  H141  1  0.38561840  0.76812350  0.32726715  1
  H+  H142  1  0.12674835  0.33331650  0.51159372  1
  H+  H143  1  0.50246343  0.85786701  0.48935389  1
  H+  H144  1  0.89018169  0.62095370  0.82995362  1
  H+  H145  1  0.48080185  0.11487004  0.50645175  1
  H+  H146  1  0.12625916  0.54352527  0.50256009  1
  H+  H147  1  0.87524299  0.66326625  0.33932584  1
  H+  H148  1  0.61446577  0.47208521  0.16407404  1
  H+  H149  1  0.27681718  0.13833328  0.00370843  1
  H+  H150  1  0.36913318  0.96689822  0.67750081  1
  H+  H151  1  0.39145595  0.11613551  0.49988785  1
  H+  H152  1  0.40929369  0.83004222  0.93389256  1
  H+  H153  1  0.12180769  0.39642470  0.82050085  1
  H+  H154  1  0.04276032  0.07585054  0.77856449  1
  H+  H155  1  0.49961764  0.37299701  0.33630899  1
  H+  H156  1  0.92275116  0.08097941  0.90650531  1
  H+  H157  1  0.54848856  0.91818810  0.11154318  1
  H+  H158  1  0.83177166  0.35621980  0.33856245  1
  H+  H159  1  0.76502114  0.62450218  0.48754923  1
  H+  H160  1  0.23851711  0.38040925  0.65767851  1
  H+  H161  1  0.13490626  0.35798702  -0.00434978  1
  H+  H162  1  0.13773664  0.10599373  0.99685867  1
  H+  H163  1  0.90678959  0.07517286  0.59827221  1
  H+  H164  1  0.88862627  0.14089961  0.83245706  1
  H+  H165  1  0.58968049  0.18608533  0.34583706  1
  H+  H166  1  0.15164906  0.78676800  0.66164126  1
  H+  H167  1  0.38546185  0.85379767  0.65866879  1
  H+  H168  1  0.45968260  0.85526938  0.17988044  1
  H+  H169  1  0.76898987  0.88031536  0.34186721  1
  H+  H170  1  0.85811148  -0.02519948  0.66341301  1
  H+  H171  1  0.16447502  0.32856381  0.93582024  1
  H+  H172  1  0.64892365  0.31757013  0.76893855  1
  H+  H173  1  0.84425302  0.50482696  0.32348345  1
  H+  H174  1  0.62240586  0.26930854  0.83321286  1
  H+  H175  1  0.52153682  0.88746404  0.66793126  1
  H+  H176  1  0.63885298  0.53726816  0.65806601  1
  H+  H177  1  0.60940690  0.47194151  0.48969056  1
  H+  H178  1  0.36285602  0.14668967  0.67032350  1
  H+  H179  1  0.86765064  0.38344177  0.49164028  1
  H+  H180  1  0.90077075  0.88369267  0.50770457  1
  H+  H181  1  0.91127897  0.80906639  0.17684315  1
  H+  H182  1  0.71661154  0.95062659  0.20336661  1
  H+  H183  1  0.12777167  0.88670588  1.00988313  1
  H+  H184  1  0.14598511  0.79795054  0.31525707  1
  H+  H185  1  0.25547553  0.13437514  0.34537354  1
  H+  H186  1  0.11561986  0.22052461  0.34652708  1
  H+  H187  1  0.13957582  0.54051908  0.33510060  1
  H+  H188  1  0.12011504  0.88196745  0.83188212  1
  H+  H189  1  0.36814971  0.39680719  0.67057571  1
  H+  H190  1  0.27555640  0.14678316  0.67252832  1
  H+  H191  1  0.14879651  0.36816934  0.17118560  1
  H+  H192  1  0.99142106  0.12073454  0.33036836  1
  H+  H193  1  0.13951442  0.53129105  0.65404986  1
  H+  H194  1  0.87106143  0.38607163  0.83173087  1
  H+  H195  1  0.35895601  0.63321420  1.01238579  1
  H+  H196  1  0.93552934  0.54310377  0.34383439  1
  H+  H197  1  0.46857782  0.86128054  0.83688391  1
  H+  H198  1  0.05032017  0.78269424  0.55366638  1
  H+  H199  1  0.59454925  0.70509587  1.02978679  1
  H+  H200  1  0.38819626  0.27451239  -0.00831518  1
  H+  H201  1  0.02704589  0.13200521  0.00688120  1
  H+  H202  1  0.11550086  0.22259969  0.00652896  1
  H+  H203  1  0.41998987  0.58676442  0.59956703  1
  H+  H204  1  0.14867402  0.10841034  0.17340665  1
  H+  H205  1  0.73052275  0.36261549  0.49788393  1
  H+  H206  1  0.87575141  0.10156168  0.65878436  1
  H+  H207  1  0.58462537  0.89484158  0.02924891  1
  H+  H208  1  0.32708184  0.87377528  0.16226753  1
  H+  H209  1  1.03335282  0.89256979  0.82687473  1
  H+  H210  1  0.64068122  0.28389741  -0.00342043  1
  H+  H211  1  0.40846055  0.07821643  0.93492264  1
  H+  H212  1  0.98409637  0.10249833  0.84730258  1
  H+  H213  1  0.11446663  0.18646089  0.73095857  1
  H+  H214  1  0.86984612  0.13401563  0.33909958  1
  H+  H215  1  0.41139622  0.82518015  0.56253476  1
  H+  H216  1  0.12218259  0.47229811  0.16279386  1
  H+  H217  1  0.63552884  0.10998242  0.67174126  1
  H+  H218  1  -0.00914184  0.38030558  0.82607136  1
  H+  H219  1  0.74563477  0.64163108  0.33122466  1
  H+  H220  1  0.59643409  -0.03093895  0.82161736  1
  H+  H221  1  0.12153833  0.72727523  0.00651514  1
  H+  H222  1  0.64687382  0.84247479  0.97792794  1
  H+  H223  1  0.63704975  0.52510547  -0.00511581  1
  H+  H224  1  0.89154419  0.17233568  0.18685427  1
  H+  H225  1  0.47491372  0.36121829  0.50271838  1
  H+  H226  1  0.38258302  0.52009658  0.50494980  1
  H+  H227  1  0.85913418  0.45403440  0.16220674  1
  H+  H228  1  0.68882214  1.04366629  0.47373790  1
  H+  H229  1  0.33244609  0.16962976  0.43234973  1
  H+  H230  1  0.36264956  0.89255265  0.33607131  1
  H+  H231  1  0.38731462  0.28158862  0.65750055  1
  H+  H232  1  0.59360400  0.14474862  0.86351062  1
  H+  H233  1  0.87165895  0.52169094  0.64088990  1
  H+  H234  1  0.61471401  0.38217185  0.16238889  1
  H+  H235  1  0.41497266  0.06825706  0.23977612  1
  H+  H236  1  0.22058095  0.60524964  0.00778319  1
  H+  H237  1  0.11677261  0.74010654  0.81573698  1
  H+  H238  1  0.62644969  0.60668871  -0.00080987  1
  H+  H239  1  0.23033134  0.60730615  0.17680790  1
  H+  H240  1  0.38159604  0.11122868  -0.00637827  1
  H+  H241  1  0.36333362  0.38472820  0.48980614  1
  H+  H242  1  0.38765348  0.76622543  0.65641825  1
  H+  H243  1  0.89396441  0.53463061  0.83849875  1
  H+  H244  1  0.14459825  1.01397104  0.84201411  1
  H+  H245  1  0.52758033  0.38967312  0.00700515  1
  H+  H246  1  0.28028224  0.13914328  0.49536285  1
  H+  H247  1  0.88371947  0.24139234  0.48988674  1
  H+  H248  1  0.02399383  0.17802919  0.15154916  1
  H+  H249  1  0.81347504  0.15724523  0.84751823  1
  H+  H250  1  0.88215737  0.75693176  0.34018699  1
  H+  H251  1  0.36872875  0.52073841  0.84595081  1
  H+  H252  1  0.74216522  0.86018278  0.65475541  1
  H+  H253  1  0.63983036  0.61118761  0.83656711  1
  H+  H254  1  0.90861926  0.28682062  0.82865299  1
  H+  H255  1  0.82397672  0.66608602  0.10783012  1
  H+  H256  1  0.62977934  0.73002464  0.81747023  1
  H+  H257  1  0.88757671  0.35747893  0.65518260  1
  H+  H258  1  0.11704689  0.47323617  0.01044824  1
  H+  H259  1  0.26857678  0.64126755  0.81677628  1
  H+  H260  1  0.37288617  0.36326710  0.32313696  1
  H+  H261  1  0.89641794  0.28516236  1.00602830  1
  H+  H262  1  0.73021340  0.10230329  0.32598316  1
  H+  H263  1  0.36251574  -0.02431270  0.16749116  1
  H+  H264  1  0.38574654  0.27231056  0.50323793  1
  H+  H265  1  0.31403861  0.02427229  0.62735342  1
  H+  H266  1  0.45869135  0.60092208  0.99529405  1
  H+  H267  1  0.76294588  0.87850392  0.14988106  1
  H+  H268  1  0.51076319  0.14784676  0.01219025  1
  H+  H269  1  0.62852962  0.02680001  1.00044569  1
  H+  H270  1  0.38687702  1.03895960  0.33118006  1
  H+  H271  1  0.40798041  0.52196900  0.16394633  1
  H+  H272  1  0.37695184  0.85900897  0.99363833  1
  H+  H273  1  0.34732351  0.22491278  0.34182262  1
  H+  H274  1  0.92414430  0.26180963  0.32505963  1
  H+  H275  1  0.89924060  0.35424242  0.17802892  1
  H+  H276  1  0.40515313  0.81969610  0.24936779  1
  H+  H277  1  0.37636201  0.75509584  0.18120787  1
  H+  H278  1  0.35563575  0.47198684  0.00470626  1
  H+  H279  1  0.04101423  0.66700304  0.33027746  1
  H+  H280  1  0.61991479  0.13187149  0.17671684  1
  H+  H281  1  0.03250518  0.90745620  0.49224222  1
  H+  H282  1  0.89080441  0.86354603  0.83798630  1
  H+  H283  1  0.51591346  0.62968754  0.49207530  1
  H+  H284  1  0.58959239  0.40952076  0.71547221  1
  H+  H285  1  0.87408237  0.14738317  0.49395034  1
  H+  H286  1  0.66533752  0.15812145  0.52524941  1
  H+  H287  1  0.16886908  0.59466510  0.59621203  1
  H+  H288  1  0.41479843  0.33456251  0.90180645  1
  H+  H289  1  0.93450635  0.22217931  0.07239060  1
  H+  H290  1  0.17449093  0.08455227  0.60094915  1
  H+  H291  1  0.33858610  0.91508326  0.43417637  1
  H+  H292  1  0.93575868  0.85602646  0.56536285  1
  H+  H293  1  0.58652932  0.41902391  0.06680438  1
  H+  H294  1  0.84163794  0.16764438  0.39809224  1
  H+  H295  1  0.83438220  0.91597803  0.72434873  1
  H+  H296  1  0.67353732  0.82488239  0.59129383  1
  H+  H297  1  0.85046993  0.63002872  0.16382122  1
  H+  H298  1  0.09438154  0.42451264  0.75869484  1
  H+  H299  1  0.39720542  0.07464545  0.58758147  1
  H+  H300  1  0.36356376  0.63715323  0.33586787  1
  H+  H301  1  0.81558177  0.39088095  0.40097915  1
  H+  H302  1  0.08739342  0.44742153  0.41732054  1
  H+  H303  1  0.59852692  0.20951992  0.66326704  1
  H+  H304  1  0.11165229  0.91020056  0.10463403  1
  H+  H305  1  0.77591549  0.38119192  0.82637401  1
  H+  H306  1  0.12373543  1.00281173  0.34315335  1
  H+  H307  1  0.33508031  0.92105779  0.07024357  1
  H+  H308  1  0.68559050  0.11141311  0.61237802  1
  H+  H309  1  0.09454901  0.93176400  0.43235643  1
  H+  H310  1  0.83615903  0.90691428  0.06461290  1
  H+  H311  1  0.33249970  0.41820207  0.76650742  1
  H+  H312  1  0.33129843  0.66296422  0.43308784  1
  H+  H313  1  0.09514329  0.68568938  0.72342137  1
  H+  H314  1  0.85655780  0.63691151  0.66105295  1
  H+  H315  1  0.13202830  0.60359347  1.00171697  1
  H+  H316  1  0.16897885  0.08853622  0.27972511  1
  H+  H317  1  0.42214127  0.57874264  0.26616132  1
  H+  H318  1  0.36981763  0.60974490  0.84420032  1
  H+  H319  1  0.33482369  0.66582729  0.72952742  1
  H+  H320  1  0.14942159  0.02543320  0.50790993  1
  H+  H321  1  0.91254906  0.56835323  0.22751134  1
  H+  H322  1  0.83053118  0.67256032  0.43294256  1
  H+  H323  1  0.18638616  0.85020549  0.93587714  1
  H+  H324  1  0.66245743  0.57866263  0.56050609  1
  H+  H325  1  0.57133479  0.90366888  0.39143576  1
  H+  H326  1  0.94018235  0.85438247  0.27631513  1
  H+  H327  1  0.67853020  0.86496042  0.87482031  1
  H+  H328  1  0.37109284  0.11763229  0.32540830  1
  H+  H329  1  0.66188342  0.57996318  0.23849918  1
  H+  H330  1  0.08942154  0.41058069  0.06801654  1
  H+  H331  1  0.92786723  0.06114776  0.27892503  1
  H+  H332  1  0.66525693  0.31992123  0.58443980  1
  H+  H333  1  0.16722553  0.86124743  0.25857715  1
  H+  H334  1  0.32166665  0.41393493  0.39848298  1
  H+  H335  1  0.67025492  0.86043347  0.23467230  1
  H+  H336  1  0.65320900  0.32131194  0.23558138  1
  H+  H337  1  0.16944872  0.84583282  0.60354278  1
  H+  H338  1  0.76798422  0.37900202  -0.03071144  1
  H+  H339  1  0.51810132  0.38394840  0.85040333  1
  H+  H340  1  0.41695506  0.33861027  0.59635573  1
  H+  H341  1  0.64086331  0.36466054  0.49793358  1
  H+  H342  1  0.07504007  0.65322327  0.09865268  1
  H+  H343  1  0.10383814  0.79341935  0.88348889  1
  H+  H344  1  0.39673294  0.57646682  0.93549792  1
  H+  H345  1  0.33926297  0.17386454  0.06239875  1
  H+  H346  1  0.11912435  0.39443565  0.66562589  1
  H+  H347  1  0.77185165  0.36772048  0.17050247  1
  H+  H348  1  0.62995310  0.85913361  0.32400149  1
  H+  H349  1  0.07694466  0.16634544  0.09800813  1
  H+  H350  1  0.82917623  0.91623560  0.43438680  1
  H+  H351  1  0.92729099  0.33868964  0.56249975  1
  H+  H352  1  0.77497295  0.63736082  0.82040798  1
  H+  H353  1  0.33386428  0.17512162  0.76703178  1
  H+  H354  1  1.01270304  0.87181965  0.18048224  1
  H+  H355  1  0.55950872  0.59990698  0.17856028  1
  H+  H356  1  0.90096038  0.58032497  0.58223715  1
  H+  H357  1  0.33871752  0.41997357  0.09603155  1
  H+  H358  1  0.59948905  0.66822508  0.76101835  1
  H+  H359  1  0.17152487  0.07525129  0.90240611  1
  H+  H360  1  0.82722150  0.41613758  0.71760300  1
  H+  H361  1  0.34283486  0.66725451  0.10562038  1
  H+  H362  1  0.57674544  0.41072725  0.43054308  1
  H+  H363  1  0.83155663  0.66898453  0.75912164  1
  H+  H364  1  0.53342972  0.22038141  0.05894958  1
  H+  H365  1  0.09396630  0.92359434  0.73739392  1
  H+  H366  1  0.32152831  0.90674668  0.77258402  1
  H+  H367  1  0.57617763  0.66197145  0.43242935  1
  H+  H368  1  0.15540067  0.33005210  0.26472865  1
  H+  H369  1  0.77980543  0.89527821  0.81353805  1
  H+  H370  1  0.50800224  0.14737175  0.85612304  1
  H+  H371  1  0.67094968  0.07960154  0.26489565  1
  H+  H372  1  0.09404423  0.69096842  0.39233082  1
  H+  H373  1  0.84140839  0.16743087  0.73504672  1
  H+  H374  1  0.66198870  0.77388572  0.94615349  1
  H+  H375  1  0.14089491  0.62634621  0.82215569  1
  H+  H376  1  0.94278253  0.32367195  0.22922115  1
  H+  H377  1  0.92993045  0.83481524  0.93602733  1
  H+  H378  1  0.77725679  0.23258972  0.11636094  1
  H+  H379  1  0.27822210  0.89972724  0.33486965  1
  H+  H380  1  0.61438226  0.38588557  0.83501069  1
  H+  H381  1  0.65731952  0.07875946  0.90563459  1
  H+  H382  1  0.17371165  0.33034983  0.57224268  1
  H+  H383  1  0.65034368  0.37582287  0.99378882  1
  O2-  O384  1  0.07173436  0.16791387  0.14395339  1
  O2-  O385  1  0.08631863  0.15409924  0.48377151  1
  O2-  O386  1  0.07356404  0.12354008  0.80678942  1
  O2-  O387  1  0.09534879  0.41220308  0.14698938  1
  O2-  O388  1  0.08302966  0.44881002  0.48003120  1
  O2-  O389  1  0.09343843  0.42719003  0.80413638  1
  O2-  O390  1  0.06730634  0.64507549  0.14349969  1
  O2-  O391  1  0.08173745  0.67786231  0.46452226  1
  O2-  O392  1  0.08780589  0.67992184  0.79874062  1
  O2-  O393  1  0.11797403  0.91929052  0.15067666  1
  O2-  O394  1  0.09449643  0.93012587  0.47848958  1
  O2-  O395  1  0.09417134  0.92174050  0.81357326  1
  O2-  O396  1  0.34461528  0.17861898  0.13334288  1
  O2-  O397  1  0.33996369  0.17121423  0.47835071  1
  O2-  O398  1  0.33518835  0.17515677  0.81249915  1
  O2-  O399  1  0.34551732  0.42606227  0.14167853  1
  O2-  O400  1  0.33194269  0.41472114  0.47553340  1
  O2-  O401  1  0.32647492  0.41261570  0.81179470  1
  O2-  O402  1  0.34504618  0.66564634  0.15191101  1
  O2-  O403  1  0.32878574  0.66018240  0.47826386  1
  O2-  O404  1  0.33198073  0.66785846  0.80433688  1
  O2-  O405  1  0.31625561  0.91776402  0.14519065  1
  O2-  O406  1  0.34320583  0.91329570  0.47916429  1
  O2-  O407  1  0.32137953  0.91025753  0.81785999  1
  O2-  O408  1  0.58507290  0.16219181  0.16122443  1
  O2-  O409  1  0.58276992  0.16155353  0.48509309  1
  O2-  O410  1  0.57091831  0.18463385  0.86329038  1
  O2-  O411  1  0.58507835  0.41327668  0.14621779  1
  O2-  O412  1  0.58031939  0.41039813  0.47553351  1
  O2-  O413  1  0.58501654  0.41708096  0.85253135  1
  O2-  O414  1  0.52803683  0.62612780  0.15882075  1
  O2-  O415  1  0.57718216  0.65887263  0.47782828  1
  O2-  O416  1  0.60785262  0.66987760  0.80566405  1
  O2-  O417  1  0.54751463  0.90989600  0.15647658  1
  O2-  O418  1  0.56312040  0.88212918  0.47152284  1
  O2-  O419  1  0.57177343  0.91087294  0.80409421  1
  O2-  O420  1  0.75577948  0.17324491  0.10364600  1
  O2-  O421  1  0.84708550  0.18000135  0.47729653  1
  O2-  O422  1  0.85886274  0.17274809  0.81779305  1
  O2-  O423  1  0.83179280  0.39109752  0.15614803  1
  O2-  O424  1  0.83306473  0.40815576  0.47340739  1
  O2-  O425  1  0.83725906  0.41828542  0.83643231  1
  O2-  O426  1  0.82215663  0.66371154  0.15315165  1
  O2-  O427  1  0.82611799  0.65242269  0.47519723  1
  O2-  O428  1  0.83437097  0.67047303  0.80481539  1
  O2-  O429  1  0.81788673  0.88751843  0.13345528  1
  O2-  O430  1  0.83285899  0.92085720  0.48058645  1
  O2-  O431  1  0.84223062  0.92212774  0.80449120  1
  O2-  O432  1  0.18477549  0.08766355  0.19088425  1
  O2-  O433  1  0.17913084  0.08553491  0.52548790  1
  O2-  O434  1  0.17339067  0.07652690  0.85692937  1
  O2-  O435  1  0.18259521  0.34074811  0.18758674  1
  O2-  O436  1  0.17074417  0.32107862  0.52594507  1
  O2-  O437  1  0.16583085  0.33162855  0.85402567  1
  O2-  O438  1  0.16963880  0.57571778  0.18980308  1
  O2-  O439  1  0.16228573  0.60561612  0.51838975  1
  O2-  O440  1  0.17390485  0.59912581  0.83694839  1
  O2-  O441  1  0.15397408  0.86713991  0.17389908  1
  O2-  O442  1  0.10700383  0.81104848  0.53477898  1
  O2-  O443  1  0.15032658  0.83159144  0.85644063  1
  O2-  O444  1  0.42529151  0.04750664  0.19979116  1
  O2-  O445  1  0.41820040  0.08417826  0.51852958  1
  O2-  O446  1  0.40042238  0.07752537  0.85676158  1
  O2-  O447  1  0.42166386  0.33860257  0.18869932  1
  O2-  O448  1  0.41461406  0.33377725  0.51809504  1
  O2-  O449  1  0.42188379  0.33838814  0.85596966  1
  O2-  O450  1  0.44028491  0.58184421  0.18411969  1
  O2-  O451  1  0.41369237  0.58055289  0.51998297  1
  O2-  O452  1  0.39447921  0.57778613  0.86529695  1
  O2-  O453  1  0.39844997  0.81614646  0.19808590  1
  O2-  O454  1  0.41069898  0.82333268  0.51687906  1
  O2-  O455  1  0.41092925  0.83195325  0.85665706  1
  O2-  O456  1  0.66618944  0.08856052  0.19445928  1
  O2-  O457  1  0.71420422  0.16685017  0.55138291  1
  O2-  O458  1  0.63731696  0.07304209  0.86205732  1
  O2-  O459  1  0.65964805  0.32651493  0.19046612  1
  O2-  O460  1  0.66958274  0.33281901  0.51293101  1
  O2-  O461  1  0.65687869  0.32987500  0.81235412  1
  O2-  O462  1  0.65413868  0.57711078  0.19405626  1
  O2-  O463  1  0.65758476  0.57241766  0.51520691  1
  O2-  O464  1  0.66522620  0.57724622  0.85629718  1
  O2-  O465  1  0.67970907  0.88988585  0.19373431  1
  O2-  O466  1  0.66031122  0.81912848  0.52195189  1
  O2-  O467  1  0.67107741  0.84862426  0.83219272  1
  O2-  O468  1  0.94603731  0.00719442  0.20406613  1
  O2-  O469  1  0.91747001  0.08533914  0.51999530  1
  O2-  O470  1  0.92353773  0.08041829  0.86080645  1
  O2-  O471  1  0.93722066  0.32918526  0.18475626  1
  O2-  O472  1  0.92819434  0.34356411  0.51738121  1
  O2-  O473  1  0.92883745  0.34745654  0.83811250  1
  O2-  O474  1  0.90728246  0.56809466  0.18317718  1
  O2-  O475  1  0.91146055  0.57458139  0.50188094  1
  O2-  O476  1  0.92515143  0.59692579  0.84707612  1
  O2-  O477  1  0.95663448  0.85940981  0.19795614  1
  O2-  O478  1  0.94049396  0.86335999  0.52062971  1
  O2-  O479  1  0.92031469  0.83379731  0.85465514  1
  O2-  O480  1  0.16542556  0.08767376  0.32420052  1
  O2-  O481  1  0.17632018  0.08883121  0.64675706  1
  O2-  O482  1  0.16872655  0.07710403  0.98089184  1
  O2-  O483  1  0.13697861  0.32437816  0.30819665  1
  O2-  O484  1  0.17810724  0.34699442  0.64208502  1
  O2-  O485  1  0.16437433  0.32581444  0.98100739  1
  O2-  O486  1  0.17464243  0.59781500  0.31353377  1
  O2-  O487  1  0.17403366  0.59254680  0.64143198  1
  O2-  O488  1  0.16119053  0.57008454  0.99303439  1
  O2-  O489  1  0.17549223  0.85933090  0.30287814  1
  O2-  O490  1  0.18247348  0.85093387  0.64775136  1
  O2-  O491  1  0.18170153  0.84380285  0.98089518  1
  O2-  O492  1  0.40568717  0.09299519  0.30898795  1
  O2-  O493  1  0.37559694  0.06353499  0.63194620  1
  O2-  O494  1  0.41262410  0.08041557  0.98028993  1
  O2-  O495  1  0.40460707  0.33369314  0.31053212  1
  O2-  O496  1  0.41724998  0.34193817  0.64190904  1
  O2-  O497  1  0.41935790  0.33562262  0.97671627  1
  O2-  O498  1  0.41527398  0.58063318  0.31072612  1
  O2-  O499  1  0.42552715  0.59006702  0.64480478  1
  O2-  O500  1  0.39791907  0.57363666  0.98229750  1
  O2-  O501  1  0.41374165  0.82761127  0.30800382  1
  O2-  O502  1  0.41598873  0.82626789  0.63959140  1
  O2-  O503  1  0.40856591  0.82912928  0.97969126  1
  O2-  O504  1  0.66971583  0.06950581  0.31139682  1
  O2-  O505  1  0.67162331  0.08690597  0.65536382  1
  O2-  O506  1  0.67575357  0.07696769  0.97960357  1
  O2-  O507  1  0.63664770  0.29949919  0.31329603  1
  O2-  O508  1  0.66087012  0.31674968  0.63090689  1
  O2-  O509  1  0.67520020  0.34132046  0.97761672  1
  O2-  O510  1  0.68179553  0.60119243  0.32367223  1
  O2-  O511  1  0.67016331  0.59442921  0.63774740  1
  O2-  O512  1  0.66235351  0.58571784  0.97979110  1
  O2-  O513  1  0.66122879  0.83122641  0.30636417  1
  O2-  O514  1  0.67905543  0.82570411  0.63805245  1
  O2-  O515  1  0.67067671  0.80491834  0.98427719  1
  O2-  O516  1  0.93783400  0.10660773  0.30777079  1
  O2-  O517  1  0.89978042  0.06615048  0.64315992  1
  O2-  O518  1  0.92235227  0.08176469  0.98350673  1
  O2-  O519  1  0.97293991  0.31121311  0.30352451  1
  O2-  O520  1  0.92137213  0.33005730  0.64295047  1
  O2-  O521  1  0.91949781  0.34417877  0.99060649  1
  O2-  O522  1  0.89911945  0.55946120  0.32125911  1
  O2-  O523  1  0.89183181  0.58049154  0.62674601  1
  O2-  O524  1  0.93133294  0.61016411  0.97505428  1
  O2-  O525  1  0.93258943  0.85278939  0.32108345  1
  O2-  O526  1  0.92783541  0.83860000  0.64612594  1
  O2-  O527  1  0.93250629  0.83588464  0.98134630  1
  O2-  O528  1  0.08697463  0.16267190  0.02363266  1
  O2-  O529  1  0.09013997  0.16260769  0.36425845  1
  O2-  O530  1  0.11954478  0.19475965  0.68683095  1
  O2-  O531  1  0.08623018  0.40965031  0.02266158  1
  O2-  O532  1  0.09026643  0.44738991  0.36742354  1
  O2-  O533  1  0.08821422  0.42378438  0.68113911  1
  O2-  O534  1  0.08662830  0.66702444  0.01979024  1
  O2-  O535  1  0.09942580  0.69403731  0.34599539  1
  O2-  O536  1  0.10513920  0.69374631  0.67853417  1
  O2-  O537  1  0.09656802  0.91395949  0.02999887  1
  O2-  O538  1  0.09042889  0.93627596  0.35908467  1
  O2-  O539  1  0.09286748  0.92547878  0.69155276  1
  O2-  O540  1  0.33845515  0.17127587  0.01579165  1
  O2-  O541  1  0.31995281  0.16684842  0.35976657  1
  O2-  O542  1  0.33688422  0.17939518  0.68773812  1
  O2-  O543  1  0.33125106  0.41167636  0.02086045  1
  O2-  O544  1  0.31917739  0.41600150  0.35282787  1
  O2-  O545  1  0.33920027  0.42701056  0.68816229  1
  O2-  O546  1  0.33481129  0.66679942  0.03262956  1
  O2-  O547  1  0.33714093  0.67035840  0.35214746  1
  O2-  O548  1  0.33757092  0.66480408  0.68353556  1
  O2-  O549  1  0.34006502  0.91972794  0.02473759  1
  O2-  O550  1  0.33501831  0.92201845  0.35510747  1
  O2-  O551  1  0.33730590  0.90746056  0.69266910  1
  O2-  O552  1  0.55971741  0.19222052  0.03710321  1
  O2-  O553  1  0.58076524  0.13565826  0.36936174  1
  O2-  O554  1  0.57101490  0.15631639  0.68790080  1
  O2-  O555  1  0.58825129  0.42180047  0.02130792  1
  O2-  O556  1  0.56206758  0.39850646  0.34982502  1
  O2-  O557  1  0.57027897  0.44278308  0.69271378  1
  O2-  O558  1  0.55967321  0.64280599  0.03581546  1
  O2-  O559  1  0.57954812  0.66904885  0.35395716  1
  O2-  O560  1  0.59121059  0.67498577  0.68018339  1
  O2-  O561  1  0.55317821  0.92539643  0.03380693  1
  O2-  O562  1  0.57364225  0.90853352  0.34630259  1
  O2-  O563  1  0.57856720  0.91867899  0.68813545  1
  O2-  O564  1  0.88581468  0.18964882  0.04545230  1
  O2-  O565  1  0.83948164  0.16524725  0.35266877  1
  O2-  O566  1  0.83641852  0.16715101  0.69036616  1
  O2-  O567  1  0.83313968  0.40914731  -0.04337992  1
  O2-  O568  1  0.80219957  0.38426608  0.35575817  1
  O2-  O569  1  0.82707252  0.40858546  0.67370215  1
  O2-  O570  1  0.83004571  0.67243384  0.02712379  1
  O2-  O571  1  0.84496119  0.69330072  0.35185044  1
  O2-  O572  1  0.83134401  0.67018200  0.68111517  1
  O2-  O573  1  0.84588647  0.91626834  0.01853591  1
  O2-  O574  1  0.82547380  0.91109621  0.36204078  1
  O2-  O575  1  0.83071836  0.91162120  0.67915981  1
