# generated using pymatgen
data_H2O
_symmetry_space_group_name_H-M   'P 1'
_cell_length_a   17.98574966
_cell_length_b   17.98036069
_cell_length_c   21.99873841
_cell_angle_alpha   89.98978724
_cell_angle_beta   89.99204165
_cell_angle_gamma   120.00106167
_symmetry_Int_Tables_number   1
_chemical_formula_structural   H2O
_chemical_formula_sum   'H384 O192'
_cell_volume   6160.99253755
_cell_formula_units_Z   192
loop_
 _symmetry_equiv_pos_site_id
 _symmetry_equiv_pos_as_xyz
  1  'x, y, z'
loop_
 _atom_type_symbol
 _atom_type_oxidation_number
  H+  1.0
  O2-  -2.0
loop_
 _atom_site_type_symbol
 _atom_site_label
 _atom_site_symmetry_multiplicity
 _atom_site_fract_x
 _atom_site_fract_y
 _atom_site_fract_z
 _atom_site_occupancy
  H+  H0  1  -0.08060875  0.83988271  0.56665953  1
  H+  H1  1  0.14516484  1.03069375  0.33989079  1
  H+  H2  1  0.12369983  0.73438634  0.49844702  1
  H+  H3  1  0.30215965  0.94372573  0.16730943  1
  H+  H4  1  0.11053000  0.98230521  0.50654065  1
  H+  H5  1  0.17872841  0.07530777  0.84283506  1
  H+  H6  1  0.30403566  0.54104543  0.03854741  1
  H+  H7  1  0.36468287  0.61935102  -0.00443242  1
  H+  H8  1  0.11648590  0.89754704  0.67207622  1
  H+  H9  1  0.08069539  0.16999197  0.05985706  1
  H+  H10  1  0.48230743  0.61434888  0.18206236  1
  H+  H11  1  0.13413680  0.25856894  0.98124042  1
  H+  H12  1  0.10592457  0.86130691  0.84803278  1
  H+  H13  1  0.07745960  0.16669313  0.40203881  1
  H+  H14  1  0.77219415  0.13874046  1.00117108  1
  H+  H15  1  0.27604198  0.87095988  0.79824644  1
  H+  H16  1  0.77647445  0.22763491  0.12446803  1
  H+  H17  1  0.37586336  0.61189889  0.81805822  1
  H+  H18  1  0.91717128  0.09891326  0.21944940  1
  H+  H19  1  0.48408280  0.86750779  0.98886719  1
  H+  H20  1  0.85880522  0.75389113  0.98255328  1
  H+  H21  1  0.88152751  0.10446260  0.99574157  1
  H+  H22  1  0.36586268  0.97838091  0.33725083  1
  H+  H23  1  0.13738085  0.61398454  0.50795652  1
  H+  H24  1  0.64913476  0.53207392  0.18697798  1
  H+  H25  1  0.84803351  0.86057670  0.15331620  1
  H+  H26  1  0.38559209  0.86204803  0.82645248  1
  H+  H27  1  0.61201729  0.88890998  0.49589468  1
  H+  H28  1  0.36068317  0.13686881  1.03983372  1
  H+  H29  1  0.83074766  0.42397844  0.43635167  1
  H+  H30  1  0.83672650  0.93044835  0.75341793  1
  H+  H31  1  0.60210110  0.62207537  0.81402900  1
  H+  H32  1  0.86202175  0.12865324  0.49806542  1
  H+  H33  1  0.85938110  0.49024588  0.49891598  1
  H+  H34  1  0.59349863  0.37540416  0.83249206  1
  H+  H35  1  0.99278616  0.35446798  0.50531741  1
  H+  H36  1  0.36707199  0.87568576  0.33898543  1
  H+  H37  1  0.70880328  0.86950745  0.32645256  1
  H+  H38  1  0.39247126  0.77275123  0.16421620  1
  H+  H39  1  0.62227545  0.26029036  1.01938021  1
  H+  H40  1  0.38439459  0.60884149  0.50923324  1
  H+  H41  1  0.72679463  0.11070237  0.65712990  1
  H+  H42  1  0.71600944  0.10940900  0.83552906  1
  H+  H43  1  0.47059488  0.35653220  0.33198964  1
  H+  H44  1  0.02233091  0.38801823  0.34466388  1
  H+  H45  1  0.72212717  0.11420744  0.50788658  1
  H+  H46  1  0.10879559  0.39268851  0.82417817  1
  H+  H47  1  0.37969205  0.15195080  0.65690686  1
  H+  H48  1  0.10850263  0.62822657  0.15694591  1
  H+  H49  1  0.88178835  0.52758447  0.84137850  1
  H+  H50  1  0.72219851  0.36662507  0.84254098  1
  H+  H51  1  0.09613511  0.11717744  0.67813365  1
  H+  H52  1  0.62954055  0.77240308  0.50921175  1
  H+  H53  1  0.89992904  0.32841157  0.65913021  1
  H+  H54  1  0.71200159  0.60161194  0.83081729  1
  H+  H55  1  0.47858635  0.10908110  0.33667371  1
  H+  H56  1  0.48305218  0.12450837  0.65814735  1
  H+  H57  1  0.63371589  0.10367925  0.17932670  1
  H+  H58  1  0.60676457  0.05423938  0.98611577  1
  H+  H59  1  0.73613544  0.87693326  0.65805647  1
  H+  H60  1  0.82199754  0.66314972  0.76277844  1
  H+  H61  1  0.52470784  0.63498804  0.49833403  1
  H+  H62  1  0.89834609  0.24036183  0.65602120  1
  H+  H63  1  0.89390623  0.25275466  0.50275555  1
  H+  H64  1  0.91708398  0.33655528  0.27686286  1
  H+  H65  1  0.38716957  0.15252275  0.19086527  1
  H+  H66  1  0.63596175  0.77138052  0.17512844  1
  H+  H67  1  0.88595133  0.79201783  0.66160502  1
  H+  H68  1  0.35932381  0.63926923  0.34334514  1
  H+  H69  1  0.37722514  0.01285067  0.80910754  1
  H+  H70  1  0.97029506  0.10433269  0.51473304  1
  H+  H71  1  0.86372056  0.14915796  0.34053865  1
  H+  H72  1  0.62322661  0.64983011  0.49817845  1
  H+  H73  1  0.62320776  0.03219872  0.84289855  1
  H+  H74  1  0.96135364  0.61777754  0.99367224  1
  H+  H75  1  0.63100209  0.84534275  0.83105048  1
  H+  H76  1  0.11101347  0.45963960  0.00492836  1
  H+  H77  1  0.63168221  0.60864988  0.33860246  1
  H+  H78  1  0.89241789  0.28286147  0.17908888  1
  H+  H79  1  0.39159580  0.52673821  0.18072690  1
  H+  H80  1  0.23349228  0.60423237  0.65248218  1
  H+  H81  1  0.76304494  0.03820726  0.78494018  1
  H+  H82  1  0.40223909  0.29467953  0.17999768  1
  H+  H83  1  0.78856471  0.38743023  1.01142702  1
  H+  H84  1  0.25224645  0.12411467  0.20309276  1
  H+  H85  1  0.20990399  0.83089772  0.16683246  1
  H+  H86  1  0.72094669  0.10691263  0.17497911  1
  H+  H87  1  0.10558360  0.73957427  0.01058299  1
  H+  H88  1  0.15132484  0.03586928  0.66363134  1
  H+  H89  1  0.11660292  0.64376507  0.34193961  1
  H+  H90  1  0.63244343  0.02191099  0.33332067  1
  H+  H91  1  0.84227254  0.10071579  0.82361402  1
  H+  H92  1  0.22835937  0.36035720  0.18083057  1
  H+  H93  1  0.61393826  0.13598125  0.34615502  1
  H+  H94  1  0.52199712  0.38517373  0.02362785  1
  H+  H95  1  0.62546137  0.17450788  0.00935756  1
  H+  H96  1  0.94236823  0.05448664  0.66985577  1
  H+  H97  1  0.85702617  0.97138230  0.49545653  1
  H+  H98  1  0.11528184  0.75949493  0.16683605  1
  H+  H99  1  0.22585480  0.60992907  0.50538427  1
  H+  H100  1  0.47867883  0.37619401  0.50450773  1
  H+  H101  1  0.62088576  0.48623402  0.49387706  1
  H+  H102  1  0.63223021  0.52744764  0.64865810  1
  H+  H103  1  0.10424245  0.22363775  0.49416556  1
  H+  H104  1  0.22804229  0.36206971  0.50257230  1
  H+  H105  1  0.26405108  0.63704650  0.81981613  1
  H+  H106  1  0.76148108  0.39255175  0.49795902  1
  H+  H107  1  0.59005717  0.91070084  0.06555410  1
  H+  H108  1  0.57600851  0.16645367  0.44129810  1
  H+  H109  1  0.59499280  0.46287100  0.82181515  1
  H+  H110  1  0.27503692  0.14192038  0.05042786  1
  H+  H111  1  1.02720436  0.64128387  0.34406654  1
  H+  H112  1  0.89073831  0.88424559  0.65644722  1
  H+  H113  1  0.39741110  0.78013624  0.98718775  1
  H+  H114  1  0.41128546  0.29139193  0.65688607  1
  H+  H115  1  0.35481416  0.72440234  0.81774304  1
  H+  H116  1  0.09177854  0.42388084  0.72901726  1
  H+  H117  1  0.91882242  0.59839140  0.60368154  1
  H+  H118  1  0.61815171  0.89085606  0.67052738  1
  H+  H119  1  0.86763263  0.47655421  0.34806798  1
  H+  H120  1  0.84282907  0.68833198  0.34621943  1
  H+  H121  1  0.13926351  0.50522996  0.65547989  1
  H+  H122  1  0.12656524  0.90117763  0.14210544  1
  H+  H123  1  0.05006035  0.91902505  0.14008017  1
  H+  H124  1  0.86552732  0.76179716  0.15714724  1
  H+  H125  1  0.87888955  0.54729285  0.66488015  1
  H+  H126  1  0.64997745  0.57227935  0.88909038  1
  H+  H127  1  0.72739438  0.36268936  0.33975374  1
  H+  H128  1  0.13564458  0.24371192  0.65568407  1
  H+  H129  1  0.46959344  0.37036512  0.84921340  1
  H+  H130  1  0.13232238  0.61842767  0.84293122  1
  H+  H131  1  0.16296510  0.03941173  0.18244019  1
  H+  H132  1  0.71767869  0.43189802  0.97220277  1
  H+  H133  1  0.36957793  0.98059500  0.01695631  1
  H+  H134  1  0.32792401  0.08868266  0.47639855  1
  H+  H135  1  0.11888931  0.38567088  0.49815846  1
  H+  H136  1  0.63993503  0.96853598  0.00861702  1
  H+  H137  1  0.84693896  0.63151361  -0.00065744  1
  H+  H138  1  0.36949769  0.22315017  0.32935739  1
  H+  H139  1  0.36331959  0.39017208  0.49673167  1
  H+  H140  1  0.38220928  0.35469093  0.33060720  1
  H+  H141  1  0.84833037  0.09731180  0.66889967  1
  H+  H142  1  0.14476524  0.59790309  1.00894105  1
  H+  H143  1  0.35888722  0.47476942  0.34403318  1
  H+  H144  1  0.88267619  0.27601231  0.33601828  1
  H+  H145  1  0.86913092  0.47901987  0.16690978  1
  H+  H146  1  0.22631522  0.34919726  -0.02233762  1
  H+  H147  1  0.73885083  0.37063059  0.18371932  1
  H+  H148  1  0.83584955  0.16355084  0.43714095  1
  H+  H149  1  0.63697309  0.36942922  0.50470888  1
  H+  H150  1  0.24760183  0.89198564  0.51448833  1
  H+  H151  1  0.76895079  0.88107059  0.99761698  1
  H+  H152  1  0.36578605  0.89025124  0.01142154  1
  H+  H153  1  0.16482561  0.92285535  0.35823495  1
  H+  H154  1  0.11175922  0.48287671  0.82404235  1
  H+  H155  1  0.02964661  0.38675209  0.16573984  1
  H+  H156  1  0.62088016  0.15268416  0.67006333  1
  H+  H157  1  0.89361258  0.35976883  -0.00478206  1
  H+  H158  1  0.24082431  0.12699324  0.65936734  1
  H+  H159  1  0.86810351  0.85893883  0.83025707  1
  H+  H160  1  0.47414041  0.86139795  0.65535015  1
  H+  H161  1  0.91218911  0.33799152  0.89297949  1
  H+  H162  1  0.86411604  0.22283466  0.00090778  1
  H+  H163  1  0.62343019  0.51639377  -0.00394324  1
  H+  H164  1  0.36287420  0.37514384  -0.00120011  1
  H+  H165  1  0.10557426  0.13574261  0.49716778  1
  H+  H166  1  0.10523458  0.12825116  0.00337355  1
  H+  H167  1  0.37471020  0.77325202  0.34091022  1
  H+  H168  1  0.10665346  0.73215060  0.84025224  1
  H+  H169  1  0.17179596  0.09523026  0.56940379  1
  H+  H170  1  0.62633078  0.63924937  0.17560739  1
  H+  H171  1  0.47160179  0.61207188  0.33674022  1
  H+  H172  1  0.38974220  0.26884073  1.00911837  1
  H+  H173  1  0.48757411  0.13568078  1.02079567  1
  H+  H174  1  0.22540617  0.35730206  0.83270869  1
  H+  H175  1  0.63312375  0.86073666  0.16837100  1
  H+  H176  1  0.37754856  0.39667819  0.67763036  1
  H+  H177  1  0.75549932  0.62890148  -0.00042278  1
  H+  H178  1  0.88571459  0.02825670  0.16835622  1
  H+  H179  1  0.39363878  0.03624555  0.65378314  1
  H+  H180  1  0.61339353  0.22487351  0.34704539  1
  H+  H181  1  0.68549879  0.58591967  0.59169035  1
  H+  H182  1  0.61237806  0.72808165  1.00752999  1
  H+  H183  1  0.62951907  0.39897997  0.17614837  1
  H+  H184  1  0.37560794  0.14935416  0.80654197  1
  H+  H185  1  0.09439270  0.13277972  0.82859801  1
  H+  H186  1  0.17508841  0.84812968  0.60215712  1
  H+  H187  1  1.00596052  0.89829840  0.31661577  1
  H+  H188  1  0.11151238  0.47267084  0.49850202  1
  H+  H189  1  0.61892377  0.28457313  0.66004216  1
  H+  H190  1  0.86984045  0.66113282  0.67297603  1
  H+  H191  1  0.51884712  0.14114136  0.81723822  1
  H+  H192  1  0.13811332  0.52247484  0.17267283  1
  H+  H193  1  0.87217005  0.47780633  0.00980816  1
  H+  H194  1  0.60951410  -0.02283781  0.49540362  1
  H+  H195  1  0.39668499  0.52877906  0.66106204  1
  H+  H196  1  0.60653720  0.72192649  0.34500056  1
  H+  H197  1  0.97152428  0.10562723  0.99406149  1
  H+  H198  1  0.11600896  0.23039464  0.34376942  1
  H+  H199  1  0.13720874  0.77870521  0.32730018  1
  H+  H200  1  0.71562118  0.59698075  0.34335644  1
  H+  H201  1  0.90364069  0.05830066  0.57073036  1
  H+  H202  1  0.39002258  0.11336891  0.32689720  1
  H+  H203  1  0.11056116  0.22588355  0.15002386  1
  H+  H204  1  0.97734862  0.35133351  -0.00831823  1
  H+  H205  1  0.88755224  0.86279726  0.50557034  1
  H+  H206  1  0.29798381  0.16494287  0.79566813  1
  H+  H207  1  0.59532882  0.91653084  0.87900921  1
  H+  H208  1  0.63383591  1.02865218  0.65943494  1
  H+  H209  1  0.88599123  0.61146234  0.17552792  1
  H+  H210  1  0.95128056  0.84836008  0.83296891  1
  H+  H211  1  0.60960516  0.14602195  0.82385758  1
  H+  H212  1  0.61106893  0.38290981  0.34711484  1
  H+  H213  1  0.38479207  0.77266456  0.65476655  1
  H+  H214  1  -0.02488483  0.61645674  0.50724019  1
  H+  H215  1  0.13402719  0.36159898  0.33010001  1
  H+  H216  1  0.85718093  0.39360734  0.82617331  1
  H+  H217  1  0.35261406  0.38502686  0.83119029  1
  H+  H218  1  0.63632963  0.85367393  0.98448863  1
  H+  H219  1  0.60490849  0.13839407  0.50047459  1
  H+  H220  1  0.01978205  0.64271448  0.83404058  1
  H+  H221  1  0.46566866  0.86525798  0.34106397  1
  H+  H222  1  0.14030517  0.36076152  0.17814861  1
  H+  H223  1  0.41841960  1.04314105  0.18285755  1
  H+  H224  1  0.02975844  0.65955044  0.67758510  1
  H+  H225  1  0.38460979  0.51986905  0.50871919  1
  H+  H226  1  0.61263397  0.39146132  0.01938709  1
  H+  H227  1  0.82062938  0.40677405  0.66964816  1
  H+  H228  1  0.28358571  0.38125553  0.67153354  1
  H+  H229  1  0.22584498  0.61240552  0.17392693  1
  H+  H230  1  0.12590033  0.26265056  0.83321573  1
  H+  H231  1  0.94551776  0.97780890  0.36455687  1
  H+  H232  1  0.76936826  0.13773781  0.34660070  1
  H+  H233  1  0.08957663  0.65724407  -0.02510736  1
  H+  H234  1  0.09090285  0.67662009  0.43892862  1
  H+  H235  1  -0.00499708  0.88901846  0.35015707  1
  H+  H236  1  0.72005433  0.86003561  0.50725976  1
  H+  H237  1  0.42109878  0.58344729  0.59839774  1
  H+  H238  1  0.97392698  0.60987700  0.17577848  1
  H+  H239  1  0.46984882  0.85181386  0.50018010  1
  H+  H240  1  1.04191825  0.37933349  0.66775773  1
  H+  H241  1  0.45229463  0.08352472  0.50375001  1
  H+  H242  1  0.21959272  0.86668029  0.00865739  1
  H+  H243  1  0.63319880  0.27561497  0.84431453  1
  H+  H244  1  0.22508518  0.58666303  0.99645445  1
  H+  H245  1  0.88311476  0.59870714  0.33658239  1
  H+  H246  1  0.72180047  0.69308198  0.54918079  1
  H+  H247  1  0.65015161  0.28212583  0.18506231  1
  H+  H248  1  0.75552989  0.87500791  0.15372782  1
  H+  H249  1  0.52412401  0.88106719  0.15087189  1
  H+  H250  1  0.52138857  0.64615307  0.66438041  1
  H+  H251  1  0.14232825  0.79021753  0.66350311  1
  H+  H252  1  1.01029947  0.13955832  0.82986056  1
  H+  H253  1  0.49073880  0.65403343  0.95890724  1
  H+  H254  1  0.55414056  0.37224229  0.66094551  1
  H+  H255  1  0.79605508  0.77261319  0.31550809  1
  H+  H256  1  0.88598896  1.01808741  0.83975986  1
  H+  H257  1  0.35951947  0.71751862  0.49641520  1
  H+  H258  1  0.96841093  0.37120369  0.83342632  1
  H+  H259  1  0.77189416  0.64890722  0.50143121  1
  H+  H260  1  0.33064663  0.41685961  0.43637084  1
  H+  H261  1  0.89829383  0.81771413  0.31983902  1
  H+  H262  1  0.86457436  0.38589785  0.35208711  1
  H+  H263  1  0.61928203  0.74397647  0.66847495  1
  H+  H264  1  0.77243273  0.63401884  0.16270988  1
  H+  H265  1  0.63505438  0.27816906  0.50729806  1
  H+  H266  1  0.88533435  0.61788340  0.50738057  1
  H+  H267  1  0.36414653  0.63520945  0.66691947  1
  H+  H268  1  0.13399910  0.52530554  0.32865288  1
  H+  H269  1  0.48911609  0.38317754  0.17058078  1
  H+  H270  1  0.38377111  0.28479558  0.84516948  1
  H+  H271  1  0.27036856  0.38549107  0.34342161  1
  H+  H272  1  0.15227850  0.87782578  0.51127971  1
  H+  H273  1  0.86014880  0.97045248  0.00294917  1
  H+  H274  1  0.61989366  0.60224847  -0.01001604  1
  H+  H275  1  0.39653686  0.86314267  0.17154523  1
  H+  H276  1  0.41934655  0.32262335  0.94524648  1
  H+  H277  1  0.59458333  0.88314134  0.34155210  1
  H+  H278  1  0.89890299  0.05666638  0.31913070  1
  H+  H279  1  0.37163476  0.39544483  0.16078475  1
  H+  H280  1  0.36521021  0.88946887  0.65906966  1
  H+  H281  1  0.20054832  0.88816741  0.86569314  1
  H+  H282  1  0.87352064  0.92393418  0.31835982  1
  H+  H283  1  0.51399191  0.62704698  0.81047239  1
  H+  H284  1  0.25031453  0.04947303  0.43022997  1
  H+  H285  1  0.77095916  0.88653803  0.81059665  1
  H+  H286  1  0.02802130  0.90063292  0.66936671  1
  H+  H287  1  0.54271355  0.15050247  0.17452501  1
  H+  H288  1  0.90013479  0.37316640  0.18247901  1
  H+  H289  1  0.87134894  0.72734758  0.49316824  1
  H+  H290  1  0.16340482  0.32864795  0.27154167  1
  H+  H291  1  0.15016209  0.84773537  0.95751435  1
  H+  H292  1  0.07201286  0.95537531  0.82281059  1
  H+  H293  1  0.41089502  0.82529499  0.55832816  1
  H+  H294  1  0.82727242  0.13912020  0.72477695  1
  H+  H295  1  0.08517863  0.41761038  0.40171175  1
  H+  H296  1  0.11149407  0.37141439  0.00322505  1
  H+  H297  1  0.11674074  0.10725835  0.32937523  1
  H+  H298  1  0.36107437  0.19278133  0.71500744  1
  H+  H299  1  0.91631628  0.57848501  0.27412825  1
  H+  H300  1  0.42946286  0.35618827  0.56637916  1
  H+  H301  1  0.02604210  0.88968032  0.49905206  1
  H+  H302  1  0.87933270  0.61485736  0.83869045  1
  H+  H303  1  0.84131821  0.71555361  0.82405846  1
  H+  H304  1  0.60063843  0.43027937  0.11693623  1
  H+  H305  1  0.88829264  0.81945591  0.91715345  1
  H+  H306  1  0.19671805  0.05289455  0.97290010  1
  H+  H307  1  0.90484336  0.58192743  0.93324095  1
  H+  H308  1  0.32547766  0.66224887  0.72345301  1
  H+  H309  1  0.16771453  0.57276486  0.59043525  1
  H+  H310  1  0.51583391  0.88407394  0.83585583  1
  H+  H311  1  0.65749145  0.83361745  0.26493359  1
  H+  H312  1  0.67502701  0.34996744  0.93052004  1
  H+  H313  1  0.67305420  0.33642595  0.27840649  1
  H+  H314  1  0.98445044  0.14284491  0.32045891  1
  H+  H315  1  0.07336784  0.65318764  0.09736408  1
  H+  H316  1  0.66573003  0.07795995  0.27279635  1
  H+  H317  1  0.06014471  0.14860413  0.73274343  1
  H+  H318  1  0.26900194  0.63729557  0.34188692  1
  H+  H319  1  0.58102706  0.66697381  0.40704424  1
  H+  H320  1  0.73676599  0.40972181  0.67817720  1
  H+  H321  1  0.10126426  0.96250328  0.03986322  1
  H+  H322  1  0.16326432  0.58378712  0.26875194  1
  H+  H323  1  0.57627472  0.91687318  0.40435715  1
  H+  H324  1  0.61468133  0.97066643  0.15535699  1
  H+  H325  1  0.32577690  0.65645555  0.43809431  1
  H+  H326  1  0.17061004  0.32189152  0.56186147  1
  H+  H327  1  0.87347912  0.81173085  0.21880343  1
  H+  H328  1  0.58280416  0.67097706  0.72825823  1
  H+  H329  1  0.32404257  0.40897956  0.76699154  1
  H+  H330  1  0.43861664  0.09128795  0.24767469  1
  H+  H331  1  0.34162344  0.92844434  0.10670562  1
  H+  H332  1  0.16484064  0.58349879  0.89815381  1
  H+  H333  1  0.66983642  0.83863156  0.60076283  1
  H+  H334  1  0.66363654  0.81924843  0.92489400  1
  H+  H335  1  0.60684264  0.47010185  0.34398269  1
  H+  H336  1  0.32849861  0.15371426  0.38289752  1
  H+  H337  1  0.58801791  0.42402590  0.43551154  1
  H+  H338  1  0.93031848  0.31168752  0.56771251  1
  H+  H339  1  0.33973930  0.91367594  0.74127762  1
  H+  H340  1  0.66021879  0.10603653  0.92884336  1
  H+  H341  1  0.42453624  0.62505116  0.90485910  1
  H+  H342  1  0.15965280  0.83435332  0.26625677  1
  H+  H343  1  0.36358296  0.45689629  -0.02573536  1
  H+  H344  1  0.64684412  0.34413880  0.60181697  1
  H+  H345  1  0.66315205  0.08518680  0.56686713  1
  H+  H346  1  0.77523545  0.64322578  0.66956326  1
  H+  H347  1  0.15871500  0.07675654  0.26341649  1
  H+  H348  1  0.21459465  0.10379217  0.50240252  1
  H+  H349  1  0.58433393  0.91688030  0.72869104  1
  H+  H350  1  0.34891353  0.17848800  0.13536084  1
  H+  H351  1  0.42445482  0.11084394  0.96646657  1
  H+  H352  1  0.06297774  0.90319292  0.76208503  1
  H+  H353  1  0.27687089  0.89461917  0.66361144  1
  H+  H354  1  0.90954501  0.07389832  0.90230890  1
  H+  H355  1  0.21534769  0.25371671  0.62220070  1
  H+  H356  1  0.39062538  0.06228000  0.86983081  1
  H+  H357  1  0.27212317  0.88760357  0.33207806  1
  H+  H358  1  0.81758646  0.90270995  0.08985346  1
  H+  H359  1  0.08472576  0.40832180  0.10427778  1
  H+  H360  1  0.33002056  0.42368475  0.10888149  1
  H+  H361  1  0.12707601  0.94421897  0.41837231  1
  H+  H362  1  0.63279299  0.75786864  0.82809079  1
  H+  H363  1  0.36654460  0.63536860  0.16759580  1
  H+  H364  1  0.86693451  0.85284418  -0.01472091  1
  H+  H365  1  0.12118846  0.05226202  0.90067325  1
  H+  H366  1  0.84400871  0.41906286  0.10774467  1
  H+  H367  1  0.52768763  0.66513129  0.04529532  1
  H+  H368  1  0.82118547  0.18156861  0.09450363  1
  H+  H369  1  0.82102605  0.65634356  0.09730455  1
  H+  H370  1  0.82696774  0.64829693  0.41383110  1
  H+  H371  1  0.60001828  0.66396220  0.11267456  1
  H+  H372  1  0.67684507  0.59156646  0.24622277  1
  H+  H373  1  0.08745104  0.68724975  0.73653066  1
  H+  H374  1  0.40775600  0.83343136  0.89092016  1
  H+  H375  1  0.33243423  0.64891411  0.10472814  1
  H+  H376  1  0.37368655  0.52180325  0.82831051  1
  H+  H377  1  0.58971008  0.18141302  0.72926506  1
  H+  H378  1  0.16298709  0.32158010  0.89944477  1
  H+  H379  1  0.81858426  0.42663495  0.77189444  1
  H+  H380  1  1.01803444  0.14210048  0.14515977  1
  H+  H381  1  0.59886950  0.18326877  0.11316715  1
  H+  H382  1  0.83175277  0.91660550  0.43492485  1
  H+  H383  1  0.41642207  0.58579663  0.27581332  1
  O2-  O384  1  0.07728181  0.17093033  0.12779007  1
  O2-  O385  1  0.07096499  0.16186848  0.48170983  1
  O2-  O386  1  0.07109823  0.16948061  0.81352529  1
  O2-  O387  1  0.08952120  0.41623468  0.14905571  1
  O2-  O388  1  0.08283587  0.41142924  0.48425075  1
  O2-  O389  1  0.08177824  0.42353406  0.80642813  1
  O2-  O390  1  0.07404161  0.65499602  0.14218933  1
  O2-  O391  1  0.08958417  0.67379067  0.48433570  1
  O2-  O392  1  0.08221723  0.67371734  0.82307142  1
  O2-  O393  1  0.11077139  0.94459078  0.12950303  1
  O2-  O394  1  0.08876762  0.92345699  0.48917493  1
  O2-  O395  1  0.05141250  0.89617858  0.80756572  1
  O2-  O396  1  0.35108874  0.17859924  0.18031826  1
  O2-  O397  1  0.28650143  0.10129644  0.45494100  1
  O2-  O398  1  0.36040737  0.19383677  0.79516220  1
  O2-  O399  1  0.33512706  0.42434886  0.15317110  1
  O2-  O400  1  0.32874434  0.41751409  0.48208362  1
  O2-  O401  1  0.31663746  0.40810366  0.81267912  1
  O2-  O402  1  0.33387281  0.66123150  0.14852326  1
  O2-  O403  1  0.32538108  0.65420005  0.48350734  1
  O2-  O404  1  0.32287143  0.66488858  0.80121212  1
  O2-  O405  1  0.34661146  0.93239964  0.15229323  1
  O2-  O406  1  0.35737843  0.96661727  0.50005127  1
  O2-  O407  1  0.33700142  0.90957734  0.79025632  1
  O2-  O408  1  0.60318495  0.17793200  0.15766626  1
  O2-  O409  1  0.57387005  0.16825893  0.48667124  1
  O2-  O410  1  0.58097056  0.17783230  0.80879481  1
  O2-  O411  1  0.60323534  0.43366265  0.16202878  1
  O2-  O412  1  0.59129469  0.42587587  0.48167946  1
  O2-  O413  1  0.55836003  0.39982891  0.81767905  1
  O2-  O414  1  0.59543116  0.66819438  0.15697868  1
  O2-  O415  1  0.58358569  0.67129805  0.48146797  1
  O2-  O416  1  0.57577721  0.65654256  0.79746090  1
  O2-  O417  1  0.58730215  0.91167024  0.13688050  1
  O2-  O418  1  0.58151385  0.91760764  0.47854684  1
  O2-  O419  1  0.58125995  0.91757506  0.83620524  1
  O2-  O420  1  0.80715174  0.19736998  0.13491542  1
  O2-  O421  1  0.83935084  0.16631964  0.48317236  1
  O2-  O422  1  0.79429121  0.09820261  0.79806773  1
  O2-  O423  1  0.84197077  0.41769943  0.15304004  1
  O2-  O424  1  0.82534285  0.42729003  0.48331066  1
  O2-  O425  1  0.82397816  0.42427328  0.81669119  1
  O2-  O426  1  0.83039806  0.66373413  0.14196380  1
  O2-  O427  1  0.83520883  0.66549409  0.48237733  1
  O2-  O428  1  0.81715392  0.65596729  0.80859499  1
  O2-  O429  1  0.81684194  0.89968868  0.13616186  1
  O2-  O430  1  0.82641199  0.91102188  0.47930032  1
  O2-  O431  1  0.83258816  0.92210388  0.79989919  1
  O2-  O432  1  0.18767652  0.09051046  0.20921546  1
  O2-  O433  1  0.16013629  0.08961489  0.52483362  1
  O2-  O434  1  0.12013119  0.05778919  0.85502777  1
  O2-  O435  1  0.16702614  0.32745891  0.19370681  1
  O2-  O436  1  0.16615924  0.33105729  0.51776434  1
  O2-  O437  1  0.16203820  0.32511222  0.85008344  1
  O2-  O438  1  0.16438527  0.58348670  0.18683105  1
  O2-  O439  1  0.16418372  0.57919146  0.52129219  1
  O2-  O440  1  0.16352946  0.58658617  0.85324986  1
  O2-  O441  1  0.15329035  0.82137467  0.17850736  1
  O2-  O442  1  0.18575582  0.85029895  0.52465647  1
  O2-  O443  1  0.14158754  0.84212556  0.87178923  1
  O2-  O444  1  0.44551559  0.10086851  0.20130445  1
  O2-  O445  1  0.38906455  0.05258854  0.51246529  1
  O2-  O446  1  0.40378066  0.07274784  0.82667136  1
  O2-  O447  1  0.42672903  0.35271178  0.16218246  1
  O2-  O448  1  0.42032242  0.35052301  0.52196807  1
  O2-  O449  1  0.40758673  0.34118746  0.86556098  1
  O2-  O450  1  0.42174093  0.58776509  0.19570162  1
  O2-  O451  1  0.41644816  0.58037803  0.52506331  1
  O2-  O452  1  0.40929007  0.58503370  0.83422113  1
  O2-  O453  1  0.43036114  0.83425912  0.17459335  1
  O2-  O454  1  0.41002788  0.81475163  0.51418514  1
  O2-  O455  1  0.41288557  0.83095575  0.84609758  1
  O2-  O456  1  0.66193639  0.06987733  0.19109873  1
  O2-  O457  1  0.66164328  0.08370181  0.52133595  1
  O2-  O458  1  0.65899640  0.09390006  0.85381408  1
  O2-  O459  1  0.67899589  0.34274042  0.20009289  1
  O2-  O460  1  0.66873367  0.34022432  0.52021285  1
  O2-  O461  1  0.66317449  0.33517993  0.86132975  1
  O2-  O462  1  0.67979252  0.59432162  0.20046421  1
  O2-  O463  1  0.69672295  0.63794645  0.52797822  1
  O2-  O464  1  0.65019801  0.57339923  0.84407166  1
  O2-  O465  1  0.66656867  0.83426494  0.18633286  1
  O2-  O466  1  0.66130959  0.83324945  0.52511966  1
  O2-  O467  1  0.66363076  0.81782201  0.84501448  1
  O2-  O468  1  0.91474349  0.09020533  0.17499212  1
  O2-  O469  1  0.90791333  0.07129765  0.52654868  1
  O2-  O470  1  0.91205838  0.07779439  0.85670402  1
  O2-  O471  1  0.92795629  0.34040215  0.19779688  1
  O2-  O472  1  0.92989442  0.31612720  0.52164307  1
  O2-  O473  1  0.90868588  0.34390064  0.84848611  1
  O2-  O474  1  0.91467281  0.58152724  0.19337902  1
  O2-  O475  1  0.91437729  0.58456577  0.52167165  1
  O2-  O476  1  0.91190558  0.58843887  0.85679158  1
  O2-  O477  1  0.88540771  0.82197560  0.17441556  1
  O2-  O478  1  0.92072470  0.83614283  0.52108049  1
  O2-  O479  1  0.89134501  0.82404600  0.84990106  1
  O2-  O480  1  0.12566904  0.06111126  0.31007315  1
  O2-  O481  1  0.17794175  0.09670530  0.64940881  1
  O2-  O482  1  0.14070205  0.05008212  0.97512474  1
  O2-  O483  1  0.16343169  0.32949921  0.31725090  1
  O2-  O484  1  0.18858183  0.28721865  0.63431177  1
  O2-  O485  1  0.16497210  0.31915912  0.96305341  1
  O2-  O486  1  0.16386816  0.58610630  0.31404723  1
  O2-  O487  1  0.17150697  0.56869553  0.63728042  1
  O2-  O488  1  0.16573836  0.56950648  0.98161669  1
  O2-  O489  1  0.16880791  0.83880948  0.31072836  1
  O2-  O490  1  0.17442335  0.85143446  0.64776530  1
  O2-  O491  1  0.15719094  0.83950581  1.00110854  1
  O2-  O492  1  0.42066553  0.07836941  0.31683248  1
  O2-  O493  1  0.42257071  0.09816641  0.64441367  1
  O2-  O494  1  0.42521910  0.09856012  1.00958279  1
  O2-  O495  1  0.41246818  0.32593735  0.31395387  1
  O2-  O496  1  0.43728011  0.35549630  0.64702353  1
  O2-  O497  1  0.42162742  0.32701118  0.99062229  1
  O2-  O498  1  0.41157473  0.58445667  0.32099304  1
  O2-  O499  1  0.42580018  0.58868983  0.64478081  1
  O2-  O500  1  0.43988226  0.65581912  0.94505692  1
  O2-  O501  1  0.40403469  0.83507982  0.32725542  1
  O2-  O502  1  0.41409584  0.83322340  0.64052613  1
  O2-  O503  1  0.42372324  0.83993742  0.97404457  1
  O2-  O504  1  0.66686638  0.08235425  0.31799748  1
  O2-  O505  1  0.66605752  0.08912721  0.64492350  1
  O2-  O506  1  0.65843672  0.10755382  0.97483343  1
  O2-  O507  1  0.66765280  0.33233461  0.32375839  1
  O2-  O508  1  0.63730519  0.34453805  0.64628031  1
  O2-  O509  1  0.68761195  0.36921452  0.97556872  1
  O2-  O510  1  0.66022329  0.57748875  0.32143235  1
  O2-  O511  1  0.69031695  0.56463820  0.63334259  1
  O2-  O512  1  0.65084828  0.57356351  0.97501920  1
  O2-  O513  1  0.65188982  0.83037358  0.31036535  1
  O2-  O514  1  0.67235668  0.83989414  0.64673306  1
  O2-  O515  1  0.66598481  0.82231636  0.97050135  1
  O2-  O516  1  0.92469589  0.11592005  0.30361549  1
  O2-  O517  1  0.88293488  0.02656752  0.65282205  1
  O2-  O518  1  0.90992080  0.07220414  0.98069394  1
  O2-  O519  1  0.91532615  0.33733594  0.32236693  1
  O2-  O520  1  0.93092202  0.30228993  0.64102254  1
  O2-  O521  1  0.91687371  0.32489110  0.97689747  1
  O2-  O522  1  0.91945052  0.57596431  0.31933366  1
  O2-  O523  1  0.91960518  0.60495184  0.64860445  1
  O2-  O524  1  0.90133590  0.58034968  0.97921080  1
  O2-  O525  1  0.84756333  0.78050527  0.29468880  1
  O2-  O526  1  0.92047365  0.85107247  0.64422075  1
  O2-  O527  1  0.88808463  0.81566891  0.96496418  1
  O2-  O528  1  0.08042592  0.16500306  0.01227252  1
  O2-  O529  1  0.08051885  0.16803627  0.35650244  1
  O2-  O530  1  0.05595826  0.13846821  0.68817733  1
  O2-  O531  1  0.08164540  0.39995042  0.02108970  1
  O2-  O532  1  0.08437157  0.41888105  0.35659522  1
  O2-  O533  1  0.09873483  0.42190437  0.68392000  1
  O2-  O534  1  0.07296156  0.67332746  0.01274605  1
  O2-  O535  1  0.08822256  0.67576804  0.35757228  1
  O2-  O536  1  0.08997914  0.69227239  0.69186777  1
  O2-  O537  1  0.08290231  0.96126944  -0.00301592  1
  O2-  O538  1  0.16483074  0.96994100  0.38156235  1
  O2-  O539  1  0.08617543  0.92746427  0.68881952  1
  O2-  O540  1  0.33742226  0.17390149  0.05420014  1
  O2-  O541  1  0.34142708  0.15978146  0.33887495  1
  O2-  O542  1  0.35285946  0.18863452  0.67036569  1
  O2-  O543  1  0.33033691  0.40742420  0.00052860  1
  O2-  O544  1  0.33018395  0.41462364  0.35950453  1
  O2-  O545  1  0.33953646  0.41979979  0.69121346  1
  O2-  O546  1  0.31651014  0.59856552  0.02676536  1
  O2-  O547  1  0.32840717  0.66876218  0.35905872  1
  O2-  O548  1  0.32812252  0.66127608  0.67793547  1
  O2-  O549  1  0.33693724  0.91965047  0.02971837  1
  O2-  O550  1  0.33191504  0.91525034  0.34920817  1
  O2-  O551  1  0.33904618  0.92232589  0.67731800  1
  O2-  O552  1  0.59519571  0.19974400  0.03200308  1
  O2-  O553  1  0.58240453  0.16435671  0.36215087  1
  O2-  O554  1  0.59036916  0.18295591  0.68402111  1
  O2-  O555  1  0.58340391  0.42089755  0.03647602  1
  O2-  O556  1  0.57943506  0.41164373  0.36244619  1
  O2-  O557  1  0.52229533  0.40088400  0.67623055  1
  O2-  O558  1  0.57822731  0.66880073  0.02574246  1
  O2-  O559  1  0.57989506  0.66271084  0.36099309  1
  O2-  O560  1  0.58334895  0.68013024  0.68168083  1
  O2-  O561  1  0.59250321  0.91140514  0.01846345  1
  O2-  O562  1  0.57019134  0.91729218  0.35854430  1
  O2-  O563  1  0.58474340  0.91901947  0.68436903  1
  O2-  O564  1  0.83065041  0.16246391  0.01780909  1
  O2-  O565  1  0.82973400  0.17116956  0.36264080  1
  O2-  O566  1  0.83390245  0.14306637  0.67964862  1
  O2-  O567  1  0.84823620  0.41850885  0.02680850  1
  O2-  O568  1  0.83555333  0.41790856  0.36758033  1
  O2-  O569  1  0.79857965  0.43830938  0.69211144  1
  O2-  O570  1  0.81700032  0.66324525  0.01339610  1
  O2-  O571  1  0.81929154  0.63353858  0.36786451  1
  O2-  O572  1  0.83279775  0.68406321  0.68832075  1
  O2-  O573  1  0.82794333  0.90768275  0.01594432  1
  O2-  O574  1  0.88547975  0.95883507  0.35497841  1
  O2-  O575  1  0.83871176  0.93631697  0.67896413  1
