# generated using pymatgen
data_H2O
_symmetry_space_group_name_H-M   'P 1'
_cell_length_a   17.97534168
_cell_length_b   17.97743204
_cell_length_c   21.97914157
_cell_angle_alpha   89.99854852
_cell_angle_beta   90.00661992
_cell_angle_gamma   119.98421756
_symmetry_Int_Tables_number   1
_chemical_formula_structural   H2O
_chemical_formula_sum   'H384 O192'
_cell_volume   6151.98418724
_cell_formula_units_Z   192
loop_
 _symmetry_equiv_pos_site_id
 _symmetry_equiv_pos_as_xyz
  1  'x, y, z'
loop_
 _atom_type_symbol
 _atom_type_oxidation_number
  H+  1.0
  O2-  -2.0
loop_
 _atom_site_type_symbol
 _atom_site_label
 _atom_site_symmetry_multiplicity
 _atom_site_fract_x
 _atom_site_fract_y
 _atom_site_fract_z
 _atom_site_occupancy
  H+  H0  1  0.26663070  0.63199700  0.16005848  1
  H+  H1  1  0.88287149  0.37507241  0.67151709  1
  H+  H2  1  0.87467345  0.77554569  0.32078102  1
  H+  H3  1  -0.03970593  0.84121463  0.50906466  1
  H+  H4  1  1.03640030  0.13457867  0.68511151  1
  H+  H5  1  0.10320801  0.39085551  0.34174462  1
  H+  H6  1  0.87798044  -0.01477489  0.32718394  1
  H+  H7  1  0.39370492  0.37582032  0.83383488  1
  H+  H8  1  0.64490746  0.12679551  0.83268088  1
  H+  H9  1  0.43451306  0.84785235  0.25147927  1
  H+  H10  1  0.20506777  0.93255917  0.52781424  1
  H+  H11  1  0.64058173  0.29388883  0.32820899  1
  H+  H12  1  0.28794022  0.88945850  0.48378870  1
  H+  H13  1  0.51367741  0.13317605  0.16640481  1
  H+  H14  1  0.38869592  0.02167626  0.65463433  1
  H+  H15  1  0.88387879  0.84706718  0.83109505  1
  H+  H16  1  0.87822809  0.10796870  0.16451013  1
  H+  H17  1  0.86371876  0.31290504  0.31640657  1
  H+  H18  1  0.39116591  0.36413199  0.17047085  1
  H+  H19  1  0.11845109  0.73375722  0.15310568  1
  H+  H20  1  0.38659209  0.74264483  0.48525341  1
  H+  H21  1  1.01084171  0.38339293  0.33648723  1
  H+  H22  1  0.65315719  0.84326173  0.60787804  1
  H+  H23  1  0.89166841  0.29008178  0.67062804  1
  H+  H24  1  0.63119461  0.27620246  0.17191164  1
  H+  H25  1  0.46063900  0.87845420  0.99151593  1
  H+  H26  1  0.96758932  0.62047882  0.32367154  1
  H+  H27  1  0.36582683  0.73564830  0.01393350  1
  H+  H28  1  0.13509280  -0.00860314  0.98523123  1
  H+  H29  1  0.72677031  0.12540575  0.45946199  1
  H+  H30  1  0.27350517  0.14847874  0.49513650  1
  H+  H31  1  0.89829367  0.44653006  0.84405048  1
  H+  H32  1  0.58293618  0.14428513  0.70717029  1
  H+  H33  1  0.61754015  0.64555299  0.50176940  1
  H+  H34  1  0.63890016  0.04577631  0.19380924  1
  H+  H35  1  0.38406036  0.24048353  0.66810631  1
  H+  H36  1  0.83967341  0.97098352  -0.00303836  1
  H+  H37  1  0.62720180  0.60618844  0.99708722  1
  H+  H38  1  0.52182834  0.39242247  -0.00126532  1
  H+  H39  1  0.64749903  0.30016698  0.66956757  1
  H+  H40  1  0.22084149  0.61742196  0.65256476  1
  H+  H41  1  0.27441621  0.38204590  0.16068634  1
  H+  H42  1  0.86684000  0.11171048  0.82594739  1
  H+  H43  1  -0.02203412  0.09534884  0.85170367  1
  H+  H44  1  0.86632630  0.76850331  0.51582340  1
  H+  H45  1  0.13901051  0.36549891  0.17302780  1
  H+  H46  1  0.62879009  0.02678392  0.83326905  1
  H+  H47  1  0.86594420  0.47460091  0.01142587  1
  H+  H48  1  0.87530801  0.62254547  0.81919885  1
  H+  H49  1  0.73503003  0.60737503  0.65855933  1
  H+  H50  1  0.35131278  0.87915774  0.67549783  1
  H+  H51  1  0.61872729  0.39252025  0.49488753  1
  H+  H52  1  0.13122642  0.98881775  0.44605240  1
  H+  H53  1  0.85718327  0.64741643  0.33948510  1
  H+  H54  1  1.00790941  0.38455179  0.49530465  1
  H+  H55  1  0.85912860  0.89452970  0.51221758  1
  H+  H56  1  0.16475001  0.58107594  0.22846935  1
  H+  H57  1  0.10771549  0.49519021  0.67904820  1
  H+  H58  1  0.11799965  0.13150076  0.83637186  1
  H+  H59  1  0.60852927  0.71076696  0.16302306  1
  H+  H60  1  0.60835227  0.88531145  0.84110071  1
  H+  H61  1  0.40593132  0.38747047  0.98837532  1
  H+  H62  1  0.01303705  0.41271115  0.01778661  1
  H+  H63  1  0.81287098  0.13740679  0.34119344  1
  H+  H64  1  0.76990058  0.63336681  0.16309994  1
  H+  H65  1  0.38886674  0.62054452  0.83986892  1
  H+  H66  1  0.37179849  0.11300276  1.01102083  1
  H+  H67  1  0.35006678  0.79277903  0.74233144  1
  H+  H68  1  0.14074704  0.61475718  0.83888434  1
  H+  H69  1  0.38146792  0.26875232  0.32570080  1
  H+  H70  1  0.41859125  0.14671983  0.84527334  1
  H+  H71  1  0.52295166  0.18192402  0.73090917  1
  H+  H72  1  0.40030179  0.39372782  0.49248205  1
  H+  H73  1  0.87667849  0.36880227  0.51208279  1
  H+  H74  1  0.96618037  0.10584131  0.16940757  1
  H+  H75  1  0.48263792  0.37420785  0.83228705  1
  H+  H76  1  0.10463712  0.97767781  0.14286370  1
  H+  H77  1  0.13637969  0.51784665  0.32371272  1
  H+  H78  1  0.47172824  0.35850012  0.32722562  1
  H+  H79  1  0.73241666  0.61297252  0.81664830  1
  H+  H80  1  -0.02268679  0.12717649  0.51706363  1
  H+  H81  1  0.86571347  0.13379325  1.00520901  1
  H+  H82  1  0.24179120  0.08001360  0.99156154  1
  H+  H83  1  0.88360822  -0.01664162  0.67936783  1
  H+  H84  1  0.46995949  0.84564702  0.15339898  1
  H+  H85  1  0.63544403  0.13039447  0.18465401  1
  H+  H86  1  0.10554149  0.35540601  0.01363743  1
  H+  H87  1  0.13422131  0.51712461  0.17151898  1
  H+  H88  1  0.88586939  0.12173444  0.51720599  1
  H+  H89  1  0.03281693  0.89345865  0.67573215  1
  H+  H90  1  0.46277572  0.85860168  0.85220561  1
  H+  H91  1  0.02917593  0.55476753  0.37536063  1
  H+  H92  1  0.13801332  0.29354888  0.51489293  1
  H+  H93  1  0.39723447  0.85899279  0.49392008  1
  H+  H94  1  0.52796807  0.64539039  0.82583286  1
  H+  H95  1  0.12260060  0.14973787  0.35610102  1
  H+  H96  1  0.75182531  0.41865759  0.85405930  1
  H+  H97  1  0.52088695  0.38590492  0.16802097  1
  H+  H98  1  0.37123710  0.64837907  0.00943440  1
  H+  H99  1  0.55779249  0.17902149  0.84463602  1
  H+  H100  1  0.48082934  0.35286178  0.50630377  1
  H+  H101  1  0.90419646  0.11094628  0.67058966  1
  H+  H102  1  0.11494901  0.00101786  0.32545599  1
  H+  H103  1  0.90489334  0.33753335  0.57108105  1
  H+  H104  1  0.13784250  0.37966804  0.51983254  1
  H+  H105  1  -0.01190629  0.40052665  0.84534569  1
  H+  H106  1  0.87854878  0.71528927  0.81445175  1
  H+  H107  1  0.02680945  0.60509923  0.02748022  1
  H+  H108  1  0.40483288  0.53457466  0.50587766  1
  H+  H109  1  0.61178191  0.47812493  0.49475773  1
  H+  H110  1  0.62636324  0.60223110  0.17697880  1
  H+  H111  1  0.72340244  0.36920997  1.02148474  1
  H+  H112  1  0.22725293  0.37362642  0.33291861  1
  H+  H113  1  0.18354367  0.06238582  0.92439140  1
  H+  H114  1  0.01507106  0.61862044  0.82377450  1
  H+  H115  1  0.09066192  0.84419576  0.48287649  1
  H+  H116  1  0.37676261  0.60755661  0.16929891  1
  H+  H117  1  0.51463832  0.62528321  0.16144769  1
  H+  H118  1  0.27944761  0.62357081  0.33977030  1
  H+  H119  1  0.14982406  0.01843478  0.83664635  1
  H+  H120  1  0.62277707  0.89918873  0.48776409  1
  H+  H121  1  0.86735263  0.41402400  0.34734423  1
  H+  H122  1  0.65865767  0.08792715  0.67501094  1
  H+  H123  1  0.56894938  0.15739765  0.10678106  1
  H+  H124  1  0.67169759  0.34689382  0.26592677  1
  H+  H125  1  0.53081655  0.65006303  0.49962463  1
  H+  H126  1  0.38098230  0.11257116  0.49962620  1
  H+  H127  1  0.15845691  0.03187726  0.65996755  1
  H+  H128  1  0.72683403  0.84845152  0.16628350  1
  H+  H129  1  0.06292192  0.64205749  0.40874673  1
  H+  H130  1  0.93710903  0.07159120  1.01014482  1
  H+  H131  1  0.37650249  0.76863226  0.84574384  1
  H+  H132  1  0.37395631  0.14617663  0.67181363  1
  H+  H133  1  1.00017333  0.64258762  0.50626022  1
  H+  H134  1  0.37118415  0.22587661  0.15295836  1
  H+  H135  1  0.34568523  0.87646184  0.82519150  1
  H+  H136  1  0.12037240  0.75724558  0.83692109  1
  H+  H137  1  0.11601254  0.16197642  0.50710987  1
  H+  H138  1  0.63492779  0.77583854  0.84211908  1
  H+  H139  1  0.66207151  0.83094069  0.90391449  1
  H+  H140  1  0.12677414  0.22102014  0.68593221  1
  H+  H141  1  0.13968296  0.28636646  0.33266851  1
  H+  H142  1  0.64214611  0.38480015  0.66133654  1
  H+  H143  1  0.24912954  0.12202400  0.66058143  1
  H+  H144  1  0.27987564  0.13956536  0.15430736  1
  H+  H145  1  0.47549470  0.11295565  0.64971230  1
  H+  H146  1  0.35826171  0.37718685  0.33798562  1
  H+  H147  1  0.35203759  0.43581446  0.76416565  1
  H+  H148  1  1.02709821  0.38534583  0.16655061  1
  H+  H149  1  0.82172652  0.90924888  0.08973664  1
  H+  H150  1  0.63478121  0.83970126  0.16250376  1
  H+  H151  1  0.10345026  0.62020091  0.15063131  1
  H+  H152  1  0.56964779  0.93772424  -0.07576271  1
  H+  H153  1  0.87417175  0.53137119  0.52017971  1
  H+  H154  1  0.42211493  0.59313230  0.56664804  1
  H+  H155  1  0.86063878  0.47195557  0.16565588  1
  H+  H156  1  0.72938070  0.87938561  0.51821943  1
  H+  H157  1  0.09202127  0.74117587  0.98251839  1
  H+  H158  1  0.63690285  0.27985327  0.51440103  1
  H+  H159  1  0.40274879  0.35869791  0.64691346  1
  H+  H160  1  0.27756404  0.39254083  0.81587302  1
  H+  H161  1  0.72471797  0.36295563  0.17183763  1
  H+  H162  1  1.01453279  0.62324157  0.15121541  1
  H+  H163  1  0.62802731  0.52601638  0.33314559  1
  H+  H164  1  0.40549001  0.00192992  0.33883433  1
  H+  H165  1  0.24990292  0.35091317  0.65900127  1
  H+  H166  1  0.77295547  0.88258430  0.82807666  1
  H+  H167  1  0.83490877  0.16845077  0.09588723  1
  H+  H168  1  0.24033566  0.11016303  0.83733143  1
  H+  H169  1  0.02178610  0.65196331  0.67292472  1
  H+  H170  1  0.34708703  0.73043762  0.69149964  1
  H+  H171  1  0.63189715  0.61775558  0.33535002  1
  H+  H172  1  0.85822391  0.65344081  0.72998283  1
  H+  H173  1  0.24628744  0.82219478  0.33269814  1
  H+  H174  1  0.03520160  0.14724619  0.34314890  1
  H+  H175  1  0.64395394  0.07888097  0.74785428  1
  H+  H176  1  0.63028332  0.96874193  0.33096707  1
  H+  H177  1  0.26134882  0.84268557  0.30185238  1
  H+  H178  1  0.37665324  0.11584995  0.32715698  1
  H+  H179  1  0.38122173  0.76242232  0.16896136  1
  H+  H180  1  0.38586936  0.50425577  0.32600528  1
  H+  H181  1  0.89482024  0.27979993  0.99254407  1
  H+  H182  1  0.11781327  0.76506733  0.30637940  1
  H+  H183  1  0.60396733  0.16050231  0.34753463  1
  H+  H184  1  0.25332619  0.86738729  0.81945877  1
  H+  H185  1  0.12030823  0.89170869  0.67448109  1
  H+  H186  1  0.61163993  0.85493447  0.66883370  1
  H+  H187  1  0.61335449  0.39356421  0.01763787  1
  H+  H188  1  0.26130144  0.13465740  0.34061744  1
  H+  H189  1  0.47352889  0.13589700  0.32606715  1
  H+  H190  1  0.23257529  0.61962363  0.99669653  1
  H+  H191  1  0.51958844  0.38284359  0.65960033  1
  H+  H192  1  0.71568544  0.61235481  0.50719093  1
  H+  H193  1  0.71925593  0.60858264  0.99706231  1
  H+  H194  1  0.51811023  0.63457530  1.00661289  1
  H+  H195  1  0.88266954  0.61053057  0.16629175  1
  H+  H196  1  0.48181887  0.63109444  0.65429794  1
  H+  H197  1  0.82129540  0.67030991  0.43565403  1
  H+  H198  1  0.06082650  0.16064228  0.23746697  1
  H+  H199  1  0.86298223  -0.01485877  0.51207685  1
  H+  H200  1  0.61988452  0.64911710  0.67256060  1
  H+  H201  1  0.86634290  0.96825495  0.83358526  1
  H+  H202  1  0.89591288  0.23468769  0.33346049  1
  H+  H203  1  0.02222784  0.40587092  0.68250021  1
  H+  H204  1  0.11691155  0.39204976  0.82877959  1
  H+  H205  1  0.37335619  -0.02076990  0.48854330  1
  H+  H206  1  0.97670086  0.85525418  0.83409507  1
  H+  H207  1  0.08762362  -0.01482667  0.44886052  1
  H+  H208  1  0.36124225  0.47212926  0.15910789  1
  H+  H209  1  0.35295039  0.87595343  0.16181863  1
  H+  H210  1  0.13977589  0.26992635  0.83310981  1
  H+  H211  1  0.36794250  0.62349260  0.34020744  1
  H+  H212  1  0.64077234  0.79033544  0.51312514  1
  H+  H213  1  0.34883249  0.41780087  0.40001012  1
  H+  H214  1  0.10816582  0.64419445  0.66681830  1
  H+  H215  1  0.29345807  0.38651935  0.00125446  1
  H+  H216  1  0.10316362  0.50301627  0.01884333  1
  H+  H217  1  0.60946394  0.14506310  0.47394650  1
  H+  H218  1  0.76589631  0.64246301  0.34207213  1
  H+  H219  1  0.89827761  0.59716204  0.57746013  1
  H+  H220  1  0.59333321  0.84690914  0.06745530  1
  H+  H221  1  0.77996598  0.41889764  0.68963842  1
  H+  H222  1  0.14807536  0.61001720  0.32650642  1
  H+  H223  1  0.13770065  0.05903830  0.51227574  1
  H+  H224  1  0.10945170  0.31658912  1.00618979  1
  H+  H225  1  0.64885821  0.62293293  0.82252352  1
  H+  H226  1  0.17510160  0.59053316  0.93680161  1
  H+  H227  1  0.27308286  0.63880940  0.82640687  1
  H+  H228  1  0.88075066  0.36079154  -0.00290062  1
  H+  H229  1  0.87721443  0.53813810  0.32483064  1
  H+  H230  1  0.10024633  0.71859004  0.50613528  1
  H+  H231  1  0.48024053  0.85276065  0.70400560  1
  H+  H232  1  0.14549556  0.52849758  0.84204806  1
  H+  H233  1  0.76907223  0.39665903  0.50228801  1
  H+  H234  1  0.61614436  0.48274879  0.17402633  1
  H+  H235  1  0.37100419  0.23778244  0.82717062  1
  H+  H236  1  0.70851398  0.86017497  0.00283548  1
  H+  H237  1  0.13911943  0.77832710  0.65806719  1
  H+  H238  1  0.00041922  0.87366122  0.32505981  1
  H+  H239  1  0.77633992  0.14464497  0.15723138  1
  H+  H240  1  0.51990955  0.14188069  0.49247407  1
  H+  H241  1  0.68157412  0.09233714  0.36448397  1
  H+  H242  1  0.48822604  0.86290268  0.49028202  1
  H+  H243  1  0.84174621  0.88045537  0.99534450  1
  H+  H244  1  0.95993814  0.85956549  0.98545840  1
  H+  H245  1  0.61492660  0.73713428  0.67236081  1
  H+  H246  1  0.85310354  0.96807569  0.15019027  1
  H+  H247  1  0.18318940  0.33378373  0.60646676  1
  H+  H248  1  0.57517803  0.19226673  0.40456888  1
  H+  H249  1  0.60533957  0.92887537  0.09938433  1
  H+  H250  1  0.61858321  0.49727539  0.00171090  1
  H+  H251  1  0.40191858  0.50614895  0.66960783  1
  H+  H252  1  0.84707107  0.63844323  0.49699059  1
  H+  H253  1  0.11666075  0.23235512  0.18982621  1
  H+  H254  1  0.63927085  0.03471143  0.45650569  1
  H+  H255  1  0.87945368  0.85776948  0.16247940  1
  H+  H256  1  0.10908702  0.87739543  0.82765165  1
  H+  H257  1  0.89858773  0.77040201  0.66559859  1
  H+  H258  1  0.85808468  0.72309030  0.15838845  1
  H+  H259  1  0.65041285  0.06092227  0.97398973  1
  H+  H260  1  0.55898821  -0.05060422  0.69984937  1
  H+  H261  1  0.61328951  0.39743629  0.33768518  1
  H+  H262  1  0.28950614  0.89107051  0.07035599  1
  H+  H263  1  0.08864052  0.86464584  0.99708077  1
  H+  H264  1  0.02837966  0.15242467  -0.03294388  1
  H+  H265  1  0.81066943  0.14755115  0.67184213  1
  H+  H266  1  0.62217434  0.87545826  0.32669889  1
  H+  H267  1  0.50442318  0.87378777  0.31141593  1
  H+  H268  1  0.85909970  0.23198113  0.49245527  1
  H+  H269  1  0.23033906  0.86821712  0.65943958  1
  H+  H270  1  0.89200349  0.27603375  0.17150620  1
  H+  H271  1  0.45511867  0.46999956  0.70214396  1
  H+  H272  1  0.15604939  0.58819389  0.59481294  1
  H+  H273  1  0.86231296  0.38283470  0.16776615  1
  H+  H274  1  0.56124676  0.90255022  0.78597023  1
  H+  H275  1  1.01510742  0.88939030  0.14580944  1
  H+  H276  1  0.08032358  0.82745185  0.29971092  1
  H+  H277  1  0.64986357  0.77583640  0.32717775  1
  H+  H278  1  0.10984345  0.60220132  0.50617490  1
  H+  H279  1  0.61952089  0.40143105  0.82209374  1
  H+  H280  1  0.88278106  0.86992921  0.31669214  1
  H+  H281  1  0.38030090  0.61319902  0.65874077  1
  H+  H282  1  0.88007107  0.88512566  0.68220155  1
  H+  H283  1  0.17911285  0.24602684  0.96729531  1
  H+  H284  1  0.34648955  -0.03853511  0.16728421  1
  H+  H285  1  0.84481610  0.72107398  0.00308722  1
  H+  H286  1  0.18487054  0.82619749  -0.00318944  1
  H+  H287  1  0.77360108  0.40299447  0.34121749  1
  H+  H288  1  0.69390866  0.10683465  0.58651722  1
  H+  H289  1  0.90314509  0.82396226  0.92623533  1
  H+  H290  1  0.84556481  0.46014881  0.74675571  1
  H+  H291  1  0.57776190  0.41800046  0.72400191  1
  H+  H292  1  0.91038387  0.06343328  0.90954227  1
  H+  H293  1  0.78215490  0.11971967  0.81667121  1
  H+  H294  1  0.82045323  0.66355928  0.06296048  1
  H+  H295  1  0.01659096  0.76413451  0.45141800  1
  H+  H296  1  0.91024332  0.83163960  0.22326983  1
  H+  H297  1  0.27431176  0.57203431  0.70376209  1
  H+  H298  1  0.42582855  0.32558322  0.57139337  1
  H+  H299  1  0.05885962  0.87989745  0.38234293  1
  H+  H300  1  0.85730556  0.17904930  0.43254142  1
  H+  H301  1  0.32516995  0.91691479  0.72988966  1
  H+  H302  1  0.83763252  0.41843027  0.07314727  1
  H+  H303  1  0.14690154  0.81482357  0.89696125  1
  H+  H304  1  0.33117886  0.66516549  0.10201417  1
  H+  H305  1  0.57594204  0.65798762  0.06731439  1
  H+  H306  1  0.45386927  0.12097947  0.90343521  1
  H+  H307  1  0.46101903  0.47480290  0.45388070  1
  H+  H308  1  0.34601884  0.66519970  0.42603252  1
  H+  H309  1  0.78758640  0.15314590  0.00277860  1
  H+  H310  1  0.12683891  0.79823881  0.21486189  1
  H+  H311  1  0.33082699  0.14213915  0.06315680  1
  H+  H312  1  0.47752806  0.56767485  0.29903706  1
  H+  H313  1  0.58149457  0.41886515  0.40000451  1
  H+  H314  1  0.41837326  0.59259024  0.93383855  1
  H+  H315  1  0.11748365  0.51851934  0.50570608  1
  H+  H316  1  0.64005836  0.52557976  0.65988459  1
  H+  H317  1  0.17694584  0.85384821  0.57128358  1
  H+  H318  1  0.08368923  0.15911932  0.77845039  1
  H+  H319  1  0.18193796  0.10640555  0.57442047  1
  H+  H320  1  0.38708483  0.53294528  -0.00613950  1
  H+  H321  1  0.08800904  0.42977574  0.77261435  1
  H+  H322  1  0.61737229  0.38659329  0.16782638  1
  H+  H323  1  0.40879206  0.07987508  0.23288049  1
  H+  H324  1  0.41798863  0.33114754  0.23036697  1
  H+  H325  1  0.82990681  0.43463606  0.44384335  1
  H+  H326  1  0.92024528  0.32632661  0.23590533  1
  H+  H327  1  0.62743105  0.22506896  0.79206152  1
  H+  H328  1  0.61905065  0.76882313  1.00248291  1
  H+  H329  1  0.17292515  0.34722592  0.23598656  1
  H+  H330  1  0.70115050  0.12676395  0.92294836  1
  H+  H331  1  0.39239883  0.83074322  0.94113717  1
  H+  H332  1  0.92821861  0.57123579  0.92619853  1
  H+  H333  1  0.67165280  0.82328990  0.26141095  1
  H+  H334  1  0.32416302  0.86897233  1.01165653  1
  H+  H335  1  0.92476045  0.08627831  0.25781313  1
  H+  H336  1  0.91500011  0.58847761  0.22717165  1
  H+  H337  1  0.06675016  0.41424206  0.43513070  1
  H+  H338  1  0.14504149  0.11769539  0.18282664  1
  H+  H339  1  0.27569806  0.28040002  0.94587938  1
  H+  H340  1  0.59449864  0.68144698  0.41366381  1
  H+  H341  1  0.65911243  0.58055985  0.23965364  1
  H+  H342  1  0.07045238  0.17532533  0.03076881  1
  H+  H343  1  0.58977983  0.90931806  0.42141280  1
  H+  H344  1  0.92218198  0.07800522  0.60831650  1
  H+  H345  1  0.78586874  0.89890228  0.32862871  1
  H+  H346  1  0.85720365  0.16592622  0.73711174  1
  H+  H347  1  0.07802616  0.65988298  0.76550835  1
  H+  H348  1  0.38191378  0.10505455  0.17017475  1
  H+  H349  1  0.92481802  0.36772129  0.90231786  1
  H+  H350  1  0.66190723  0.58235444  0.56905789  1
  H+  H351  1  0.33876323  0.42293710  0.06610844  1
  H+  H352  1  0.61425546  0.48504030  0.81134148  1
  H+  H353  1  0.21316109  0.83691092  0.16761583  1
  H+  H354  1  0.33300267  0.66044222  0.76652012  1
  H+  H355  1  0.91772625  0.83021498  0.60752967  1
  H+  H356  1  0.35002193  0.17939086  0.76795492  1
  H+  H357  1  0.68436385  0.09883842  0.28880832  1
  H+  H358  1  0.41208193  0.08237344  0.55860465  1
  H+  H359  1  0.87392311  0.55276435  0.67626512  1
  H+  H360  1  0.58539245  0.67881794  0.76517866  1
  H+  H361  1  0.64016296  0.29489884  0.99122484  1
  H+  H362  1  0.60445299  0.90374651  -0.02436338  1
  H+  H363  1  0.18041072  0.07086870  0.22376846  1
  H+  H364  1  0.84526935  0.91767447  0.74514697  1
  H+  H365  1  0.42431123  0.89753122  0.31907908  1
  H+  H366  1  0.37963942  0.64190263  0.49134525  1
  H+  H367  1  0.38254148  0.93641086  0.39591924  1
  H+  H368  1  0.08754215  0.91619392  0.76863878  1
  H+  H369  1  0.19382569  0.32897045  0.88627493  1
  H+  H370  1  0.08198658  0.18315842  0.44603173  1
  H+  H371  1  0.52999545  0.65934550  0.35837779  1
  H+  H372  1  0.09367848  0.06141598  0.28751213  1
  H+  H373  1  0.38938417  0.53186274  0.83968858  1
  H+  H374  1  0.40441320  0.57347113  0.22790442  1
  H+  H375  1  0.91572428  0.12631494  0.32146830  1
  H+  H376  1  0.36742451  0.23015430  0.49234562  1
  H+  H377  1  0.67581111  0.32293887  0.86079643  1
  H+  H378  1  0.68750304  0.06237928  0.58182294  1
  H+  H379  1  0.07003419  0.91120487  0.05421930  1
  H+  H380  1  0.07967736  0.42659229  0.10553223  1
  H+  H381  1  0.32091617  0.16549859  0.40053903  1
  H+  H382  1  0.42898031  0.35345199  0.92707952  1
  H+  H383  1  0.67010157  0.34332103  0.57337531  1
  O2-  O384  1  0.08377698  0.16763562  0.19616867  1
  O2-  O385  1  0.07842590  0.18390386  0.49096573  1
  O2-  O386  1  0.08306637  0.15794859  0.82510440  1
  O2-  O387  1  0.08737183  0.41535573  0.15049224  1
  O2-  O388  1  0.06825385  0.41631796  0.48039706  1
  O2-  O389  1  0.09070137  0.42755989  0.81856252  1
  O2-  O390  1  0.07429185  0.65119811  0.13381890  1
  O2-  O391  1  0.05591367  0.67160848  0.48226273  1
  O2-  O392  1  0.07726024  0.65544796  0.81059397  1
  O2-  O393  1  0.07234747  0.91935186  0.12581628  1
  O2-  O394  1  0.03789280  0.82534991  0.45785036  1
  O2-  O395  1  0.08422854  0.91424400  0.81420589  1
  O2-  O396  1  0.34047235  0.16487044  0.13990864  1
  O2-  O397  1  0.33107065  0.16923726  0.47576184  1
  O2-  O398  1  0.34677812  0.17676496  0.81362777  1
  O2-  O399  1  0.33497230  0.41092797  0.14528008  1
  O2-  O400  1  0.40163124  0.44350239  0.46802488  1
  O2-  O401  1  0.34093950  0.42895165  0.80891791  1
  O2-  O402  1  0.32914984  0.66292143  0.14820188  1
  O2-  O403  1  0.35246483  0.67474913  0.47259180  1
  O2-  O404  1  0.33514397  0.67074592  0.81176298  1
  O2-  O405  1  0.31447500  0.89982352  0.15475525  1
  O2-  O406  1  0.34888186  0.91954856  0.47159732  1
  O2-  O407  1  0.31139474  0.89442080  0.80037908  1
  O2-  O408  1  0.57472216  0.16734609  0.15126778  1
  O2-  O409  1  0.58010859  0.17975673  0.47727838  1
  O2-  O410  1  0.62173077  0.20547782  0.83419102  1
  O2-  O411  1  0.58559181  0.41968333  0.15760922  1
  O2-  O412  1  0.58676890  0.41929438  0.47645804  1
  O2-  O413  1  0.58242709  0.42110246  0.80163786  1
  O2-  O414  1  0.57572414  0.65000568  0.14798202  1
  O2-  O415  1  0.59208178  0.68032402  0.48540104  1
  O2-  O416  1  0.58830076  0.67955057  0.81082033  1
  O2-  O417  1  0.57980997  0.86724388  0.10586348  1
  O2-  O418  1  0.59082188  0.92391041  0.46515892  1
  O2-  O419  1  0.57323606  0.91330566  0.83110283  1
  O2-  O420  1  0.83543307  0.16698592  0.14223367  1
  O2-  O421  1  0.83526414  0.17289376  0.47525482  1
  O2-  O422  1  0.84209610  0.14262309  0.80353813  1
  O2-  O423  1  0.82880218  0.41036558  0.15266930  1
  O2-  O424  1  0.83080544  0.43199989  0.48886332  1
  O2-  O425  1  0.86604694  0.47868070  0.82909027  1
  O2-  O426  1  0.82834112  0.66112515  0.14552863  1
  O2-  O427  1  0.81671022  0.66819093  0.48116588  1
  O2-  O428  1  0.85245200  0.65655927  0.79614720  1
  O2-  O429  1  0.82376868  0.90741873  0.13563826  1
  O2-  O430  1  0.82767482  0.92399266  0.49996184  1
  O2-  O431  1  0.83304781  0.90966517  0.81242367  1
  O2-  O432  1  0.17634070  0.08485225  0.18107028  1
  O2-  O433  1  0.17509957  0.11649181  0.52853149  1
  O2-  O434  1  0.18148919  0.07711532  0.85570154  1
  O2-  O435  1  0.17112491  0.33760093  0.19103882  1
  O2-  O436  1  0.17151276  0.35236446  0.53178573  1
  O2-  O437  1  0.17457237  0.33215800  0.84457678  1
  O2-  O438  1  0.16253893  0.58014801  0.18312917  1
  O2-  O439  1  0.14595138  0.57936557  0.52053058  1
  O2-  O440  1  0.17686303  0.59094654  0.85431670  1
  O2-  O441  1  0.14831592  0.79999219  0.17132200  1
  O2-  O442  1  0.18343821  0.87080802  0.52610566  1
  O2-  O443  1  0.15079862  0.81840284  0.85153461  1
  O2-  O444  1  0.40902321  0.07277209  0.18778726  1
  O2-  O445  1  0.41321844  0.08303395  0.51292746  1
  O2-  O446  1  0.45959721  0.12802742  0.85921268  1
  O2-  O447  1  0.42407811  0.33553569  0.18496737  1
  O2-  O448  1  0.42070612  0.32505754  0.52135092  1
  O2-  O449  1  0.42277989  0.34468669  0.84973382  1
  O2-  O450  1  0.40759099  0.57631596  0.18287200  1
  O2-  O451  1  0.42548746  0.59429913  0.51995286  1
  O2-  O452  1  0.42101325  0.59218087  0.85545754  1
  O2-  O453  1  0.41810951  0.82644165  0.17833917  1
  O2-  O454  1  0.42716827  0.82678876  0.50439884  1
  O2-  O455  1  0.40068565  0.82816132  0.86271568  1
  O2-  O456  1  0.67030963  0.10670572  0.20381931  1
  O2-  O457  1  0.66600677  0.09650027  0.44372004  1
  O2-  O458  1  0.66875746  0.08796739  0.82238661  1
  O2-  O459  1  0.66337521  0.33700252  0.18681578  1
  O2-  O460  1  0.66837945  0.34107941  0.52767583  1
  O2-  O461  1  0.69001576  0.38317142  0.86408272  1
  O2-  O462  1  0.65853939  0.57419464  0.19420774  1
  O2-  O463  1  0.65541787  0.58093157  0.52349542  1
  O2-  O464  1  0.67200855  0.58409743  0.82965598  1
  O2-  O465  1  0.66692906  0.81606952  0.18413136  1
  O2-  O466  1  0.66508011  0.85037892  0.52738740  1
  O2-  O467  1  0.66544514  0.83645405  0.85917922  1
  O2-  O468  1  0.90452085  0.07310336  0.17971977  1
  O2-  O469  1  0.91750995  0.09413062  0.53417076  1
  O2-  O470  1  0.91576873  0.06125431  0.86309231  1
  O2-  O471  1  0.92015854  0.33459889  0.18941634  1
  O2-  O472  1  0.90307764  0.33434112  0.52567888  1
  O2-  O473  1  0.92946371  0.38578888  0.85890760  1
  O2-  O474  1  0.91428893  0.58149277  0.18221010  1
  O2-  O475  1  0.90227205  0.59358338  0.53236512  1
  O2-  O476  1  0.91573541  0.56859124  0.85231531  1
  O2-  O477  1  0.91093445  0.82882153  0.17777002  1
  O2-  O478  1  0.90743634  0.82712539  0.53183526  1
  O2-  O479  1  0.91472235  0.81742667  0.84547369  1
  O2-  O480  1  0.14065465  0.06282333  0.31084540  1
  O2-  O481  1  0.19542773  0.08530950  0.63722826  1
  O2-  O482  1  0.18060150  0.05407086  0.97104543  1
  O2-  O483  1  0.16783857  0.34579177  0.31608257  1
  O2-  O484  1  0.18946247  0.31644975  0.64867580  1
  O2-  O485  1  0.23297063  0.29790563  0.95306258  1
  O2-  O486  1  0.17481682  0.57860776  0.30884703  1
  O2-  O487  1  0.15985332  0.59634356  0.64055412  1
  O2-  O488  1  0.17273956  0.59141826  0.98181367  1
  O2-  O489  1  0.08424237  0.77952825  0.27904689  1
  O2-  O490  1  0.17012966  0.83918857  0.64243362  1
  O2-  O491  1  0.12817126  0.80334535  0.97460937  1
  O2-  O492  1  0.41481560  0.09482621  0.31090503  1
  O2-  O493  1  0.41566436  0.08026429  0.63553521  1
  O2-  O494  1  0.48052730  0.12632712  0.99345469  1
  O2-  O495  1  0.41255667  0.32876194  0.30932306  1
  O2-  O496  1  0.43297657  0.32853409  0.63427847  1
  O2-  O497  1  0.42810184  0.35052533  0.97256155  1
  O2-  O498  1  0.42252227  0.56409836  0.30733291  1
  O2-  O499  1  0.42257203  0.59514990  0.63775503  1
  O2-  O500  1  0.41875577  0.59408253  0.97949454  1
  O2-  O501  1  0.44207294  0.85485450  0.29730236  1
  O2-  O502  1  0.37102567  0.79373410  0.70112300  1
  O2-  O503  1  0.39881233  0.83672249  0.98640858  1
  O2-  O504  1  0.69682450  0.07484729  0.32531968  1
  O2-  O505  1  0.61514104  0.07075643  0.70680831  1
  O2-  O506  1  0.69246610  0.12205240  0.96689601  1
  O2-  O507  1  0.67466195  0.35335322  0.31127124  1
  O2-  O508  1  0.67945687  0.35795192  0.65145251  1
  O2-  O509  1  0.65907378  0.33730053  1.02375667  1
  O2-  O510  1  0.65913582  0.58646763  0.31698984  1
  O2-  O511  1  0.67521666  0.58720509  0.64574258  1
  O2-  O512  1  0.65595533  0.57371558  0.98390124  1
  O2-  O513  1  0.67629479  0.83272856  0.30651696  1
  O2-  O514  1  0.64960346  0.83463206  0.65278026  1
  O2-  O515  1  0.64419262  0.83226987  0.99480373  1
  O2-  O516  1  0.94381169  0.09492147  0.30128413  1
  O2-  O517  1  0.92407680  0.07194037  0.65392086  1
  O2-  O518  1  0.89465691  0.06699026  0.98055302  1
  O2-  O519  1  0.91833541  0.31681335  0.30682515  1
  O2-  O520  1  0.91119458  0.34675829  0.65126761  1
  O2-  O521  1  0.91798859  0.34030164  0.97867683  1
  O2-  O522  1  0.90872011  0.59734063  0.30755980  1
  O2-  O523  1  0.90326206  0.61322066  0.65740455  1
  O2-  O524  1  0.93078809  0.57624637  0.97315673  1
  O2-  O525  1  0.90816731  0.83306440  0.30109113  1
  O2-  O526  1  0.92181664  0.83132902  0.65335682  1
  O2-  O527  1  0.89921742  0.83000416  0.97101150  1
  O2-  O528  1  0.08137126  0.16580398  -0.01108012  1
  O2-  O529  1  0.09211085  0.18146683  0.36392478  1
  O2-  O530  1  0.09077332  0.16542260  0.70755499  1
  O2-  O531  1  0.06017302  0.45421075  0.04441490  1
  O2-  O532  1  0.07111005  0.42033262  0.35397139  1
  O2-  O533  1  0.08100872  0.43811299  0.69906787  1
  O2-  O534  1  0.02341828  0.62227834  -0.01446392  1
  O2-  O535  1  0.05654243  0.61639022  0.36748009  1
  O2-  O536  1  0.08254543  0.67803938  0.68523943  1
  O2-  O537  1  0.06959089  0.90719223  0.00776607  1
  O2-  O538  1  0.06305728  0.89739539  0.33910870  1
  O2-  O539  1  0.09273771  0.92373688  0.69124290  1
  O2-  O540  1  0.32539752  0.12549718  0.01945767  1
  O2-  O541  1  0.32135116  0.16518024  0.35433659  1
  O2-  O542  1  0.35190743  0.18159077  0.69005760  1
  O2-  O543  1  0.34599887  0.43251358  0.02127171  1
  O2-  O544  1  0.33333013  0.41153396  0.35563060  1
  O2-  O545  1  0.39605050  0.45396331  0.69231826  1
  O2-  O546  1  0.33988379  0.67511851  0.02880921  1
  O2-  O547  1  0.33898798  0.65308346  0.35666082  1
  O2-  O548  1  0.31641991  0.62910702  0.68920716  1
  O2-  O549  1  0.28067248  0.88338715  0.02612631  1
  O2-  O550  1  0.41257166  0.95433439  0.35595217  1
  O2-  O551  1  0.33180217  0.92093233  0.68358541  1
  O2-  O552  1  0.52577806  0.10732164  0.02786743  1
  O2-  O553  1  0.57668561  0.19392983  0.35815292  1
  O2-  O554  1  0.56916745  0.19178209  0.70289227  1
  O2-  O555  1  0.58084642  0.42644330  0.01917159  1
  O2-  O556  1  0.57732142  0.42077341  0.35433812  1
  O2-  O557  1  0.58183189  0.42255253  0.67845588  1
  O2-  O558  1  0.57903211  0.66468458  0.02223277  1
  O2-  O559  1  0.59050728  0.67929808  0.36702332  1
  O2-  O560  1  0.58576035  0.67496893  0.68713131  1
  O2-  O561  1  0.57822014  0.94027362  -0.03164353  1
  O2-  O562  1  0.59048551  0.90636134  0.34036962  1
  O2-  O563  1  0.54349507  0.89040574  0.71147719  1
  O2-  O564  1  0.84522930  0.17379937  0.02183422  1
  O2-  O565  1  0.87322994  0.17292864  0.35454723  1
  O2-  O566  1  0.86693211  0.17985343  0.69078631  1
  O2-  O567  1  0.83151993  0.41546578  0.02790968  1
  O2-  O568  1  0.83215527  0.43849325  0.36056307  1
  O2-  O569  1  0.84156142  0.45508750  0.70152846  1
  O2-  O570  1  0.81390778  0.66115260  0.01819479  1
  O2-  O571  1  0.82631282  0.67580844  0.35715724  1
  O2-  O572  1  0.85444837  0.65433081  0.68107692  1
  O2-  O573  1  0.81061105  0.90810128  0.01366807  1
  O2-  O574  1  0.84668321  0.92486553  0.34131461  1
  O2-  O575  1  0.85456604  0.92110284  0.69786155  1
