# generated using pymatgen
data_H2O
_symmetry_space_group_name_H-M   'P 1'
_cell_length_a   17.99157818
_cell_length_b   17.99324313
_cell_length_c   22.00431476
_cell_angle_alpha   89.98215023
_cell_angle_beta   90.00369216
_cell_angle_gamma   119.99964755
_symmetry_Int_Tables_number   1
_chemical_formula_structural   H2O
_chemical_formula_sum   'H384 O192'
_cell_volume   6169.05593291
_cell_formula_units_Z   192
loop_
 _symmetry_equiv_pos_site_id
 _symmetry_equiv_pos_as_xyz
  1  'x, y, z'
loop_
 _atom_type_symbol
 _atom_type_oxidation_number
  H+  1.0
  O2-  -2.0
loop_
 _atom_site_type_symbol
 _atom_site_label
 _atom_site_symmetry_multiplicity
 _atom_site_fract_x
 _atom_site_fract_y
 _atom_site_fract_z
 _atom_site_occupancy
  H+  H0  1  0.03196010  0.88888309  0.00417533  1
  H+  H1  1  0.64704705  0.43526637  0.31553192  1
  H+  H2  1  0.88384238  0.51877589  0.83355376  1
  H+  H3  1  0.35941734  0.72548396  0.47651682  1
  H+  H4  1  0.33169258  0.90474050  0.67225432  1
  H+  H5  1  0.13462079  0.01072608  0.16947983  1
  H+  H6  1  0.11136208  0.47931544  0.82279112  1
  H+  H7  1  0.97292875  0.60852531  0.34040454  1
  H+  H8  1  0.86063035  0.38224805  0.35029761  1
  H+  H9  1  1.08566214  0.44389302  0.43744389  1
  H+  H10  1  0.27142990  0.86186814  -0.00002273  1
  H+  H11  1  0.88727573  0.62240754  0.16237801  1
  H+  H12  1  0.62890998  0.98631502  0.33752269  1
  H+  H13  1  0.09850874  0.09460256  0.12409088  1
  H+  H14  1  0.74019674  0.10339551  0.84159057  1
  H+  H15  1  0.10299772  0.21435327  0.85342088  1
  H+  H16  1  0.39714249  0.54211673  0.65797839  1
  H+  H17  1  0.64188919  0.86498217  0.50532347  1
  H+  H18  1  0.54332538  0.88957194  0.64877341  1
  H+  H19  1  0.60041539  0.11203747  0.81781098  1
  H+  H20  1  0.13453322  0.12103455  0.49213752  1
  H+  H21  1  0.26812427  0.38635291  1.00050052  1
  H+  H22  1  0.10959238  -0.01948299  0.81721190  1
  H+  H23  1  0.21299458  0.84794958  0.16651480  1
  H+  H24  1  0.15885828  0.91985606  0.51358471  1
  H+  H25  1  0.50366463  0.40298101  0.17160372  1
  H+  H26  1  0.39524257  0.76691494  0.64657504  1
  H+  H27  1  0.02626057  0.42290294  0.31860097  1
  H+  H28  1  0.84609120  0.25722183  0.18130045  1
  H+  H29  1  0.63247367  0.29126642  0.17303469  1
  H+  H30  1  0.16698627  0.33207381  0.92226465  1
  H+  H31  1  0.39484761  0.62423173  0.49993167  1
  H+  H32  1  0.67291670  0.10149224  0.23470827  1
  H+  H33  1  0.61541437  0.15005693  0.44766348  1
  H+  H34  1  0.57868568  0.63332436  -0.03248132  1
  H+  H35  1  0.61764591  0.22542235  0.35095154  1
  H+  H36  1  0.88262579  0.52329014  0.16216430  1
  H+  H37  1  1.02494663  0.39006302  0.66856472  1
  H+  H38  1  0.86676321  0.89001563  0.48640523  1
  H+  H39  1  0.40967411  0.55986159  0.83410507  1
  H+  H40  1  0.74030339  0.12423144  0.32814889  1
  H+  H41  1  0.52313580  0.39205089  0.82480295  1
  H+  H42  1  0.10468671  0.86989449  0.16136724  1
  H+  H43  1  0.89277446  0.27847983  0.50339842  1
  H+  H44  1  0.36560032  0.07378141  0.98199364  1
  H+  H45  1  0.76672295  0.36389482  0.50137280  1
  H+  H46  1  0.17640846  0.01961692  1.00338357  1
  H+  H47  1  0.90937343  0.08143629  0.27083160  1
  H+  H48  1  0.62461821  0.35039343  -0.00574798  1
  H+  H49  1  0.23777135  0.39266418  0.18457341  1
  H+  H50  1  0.86477091  0.63412846  0.34484526  1
  H+  H51  1  0.10363669  0.62027791  0.17607561  1
  H+  H52  1  0.10091104  0.72450042  0.81422805  1
  H+  H53  1  0.63432741  0.90035094  0.66075519  1
  H+  H54  1  0.42826831  0.76965576  0.19618215  1
  H+  H55  1  0.13217787  0.59367982  0.99558558  1
  H+  H56  1  0.35395346  0.45520964  0.36673495  1
  H+  H57  1  0.61908002  1.00366236  0.15751436  1
  H+  H58  1  0.91659106  0.33246296  0.93366634  1
  H+  H59  1  0.38187228  0.26731869  0.18241678  1
  H+  H60  1  0.33846836  0.18504037  0.75787705  1
  H+  H61  1  0.61405557  0.63063585  0.13721286  1
  H+  H62  1  0.95857798  0.10743798  0.99382861  1
  H+  H63  1  0.60149826  0.98428610  0.80666317  1
  H+  H64  1  0.30647385  0.14351147  0.01890129  1
  H+  H65  1  0.17159206  0.09347252  0.54974630  1
  H+  H66  1  0.13405903  0.84682071  0.32109706  1
  H+  H67  1  0.83414280  0.17409896  0.10110721  1
  H+  H68  1  0.87965836  0.64592809  0.00513155  1
  H+  H69  1  0.76394427  0.63249701  0.49285023  1
  H+  H70  1  0.25610240  0.61642753  0.01081651  1
  H+  H71  1  0.13051785  0.23063197  0.19732223  1
  H+  H72  1  0.66261557  0.60295723  1.00047643  1
  H+  H73  1  0.53029983  0.88671497  0.00486343  1
  H+  H74  1  0.38629155  0.03113491  0.83008243  1
  H+  H75  1  0.87544070  0.60706893  0.50303690  1
  H+  H76  1  0.14394341  0.37835290  0.19038730  1
  H+  H77  1  0.64668793  0.78275970  0.65967855  1
  H+  H78  1  0.35984019  0.95170747  -0.00517506  1
  H+  H79  1  0.39378395  0.90983125  0.17535264  1
  H+  H80  1  0.11770726  0.23007902  0.33531991  1
  H+  H81  1  0.67083164  0.45750713  0.45803907  1
  H+  H82  1  0.27300153  0.63642895  0.48173186  1
  H+  H83  1  0.27002663  0.64266734  0.66706472  1
  H+  H84  1  0.84522536  0.17636038  0.40166988  1
  H+  H85  1  0.63617097  0.75912667  0.15776819  1
  H+  H86  1  0.38409230  0.27939751  0.83323228  1
  H+  H87  1  0.97961590  0.86650974  0.67267877  1
  H+  H88  1  0.33022453  0.67878006  0.72704957  1
  H+  H89  1  0.86384201  0.72723201  0.82670157  1
  H+  H90  1  0.62426654  0.74209257  0.33397709  1
  H+  H91  1  0.62763304  0.62040610  0.50496866  1
  H+  H92  1  0.35964750  0.45777983  0.15451952  1
  H+  H93  1  0.29356039  0.93520135  0.50876779  1
  H+  H94  1  0.14889380  1.11844945  0.63896822  1
  H+  H95  1  0.88976691  0.86044240  0.32703426  1
  H+  H96  1  1.01697647  0.13715956  0.48598563  1
  H+  H97  1  0.72885687  0.61251742  0.84497916  1
  H+  H98  1  0.48276380  0.38371499  0.65196115  1
  H+  H99  1  0.10632294  0.49781161  0.18021273  1
  H+  H100  1  0.11104902  0.71441958  0.16640300  1
  H+  H101  1  0.88570574  0.77412367  0.49322820  1
  H+  H102  1  0.89074052  0.37125537  0.65702748  1
  H+  H103  1  0.85461566  0.13703469  0.16318976  1
  H+  H104  1  0.36620031  0.12933667  0.17664271  1
  H+  H105  1  0.77720502  0.89173396  0.67246439  1
  H+  H106  1  0.39579081  0.62961234  0.66051382  1
  H+  H107  1  0.12040398  0.27835626  0.49442204  1
  H+  H108  1  0.86604719  0.13868616  0.82269975  1
  H+  H109  1  0.48948980  0.12648257  0.18754088  1
  H+  H110  1  0.11781838  0.37439433  -0.00709456  1
  H+  H111  1  0.39405575  1.01711080  0.34244362  1
  H+  H112  1  0.53925692  0.89827382  0.33683665  1
  H+  H113  1  0.22444696  0.11102428  0.82287547  1
  H+  H114  1  0.87287070  0.97927037  0.34038346  1
  H+  H115  1  0.50532849  0.14653276  0.66637397  1
  H+  H116  1  0.64586378  0.38448313  0.84383353  1
  H+  H117  1  0.88214865  0.61918712  0.65852494  1
  H+  H118  1  -0.02980108  0.59679882  -0.00950225  1
  H+  H119  1  0.83165646  0.91962564  0.73473757  1
  H+  H120  1  0.59687047  0.91677888  0.43227354  1
  H+  H121  1  0.29600493  0.81004348  0.69547575  1
  H+  H122  1  0.22222598  0.10154237  0.16975128  1
  H+  H123  1  0.71954790  0.38043113  0.17135813  1
  H+  H124  1  0.22995062  0.37415562  0.64642685  1
  H+  H125  1  0.41873388  0.86421830  0.64050792  1
  H+  H126  1  0.11222420  0.98800775  0.47847611  1
  H+  H127  1  0.89013169  1.03111836  0.17096513  1
  H+  H128  1  0.86406168  0.14119933  0.49515579  1
  H+  H129  1  0.84589924  0.38884575  0.15893227  1
  H+  H130  1  0.38881256  0.28730753  -0.00352431  1
  H+  H131  1  0.52745378  0.68873188  0.34720077  1
  H+  H132  1  0.66655738  0.08583619  0.93889866  1
  H+  H133  1  0.37514959  0.28261641  0.50062155  1
  H+  H134  1  0.37502316  0.35100889  0.33550283  1
  H+  H135  1  0.36284467  0.89092568  0.83507998  1
  H+  H136  1  0.01898904  0.53783689  0.05010129  1
  H+  H137  1  0.61512467  -0.02031719  1.00744726  1
  H+  H138  1  0.78951184  0.90108410  0.15528134  1
  H+  H139  1  0.11262375  0.64314302  0.49640642  1
  H+  H140  1  0.72928415  0.12999416  0.17334455  1
  H+  H141  1  0.38498147  0.78555322  0.83320910  1
  H+  H142  1  0.41054841  0.18755793  0.02643234  1
  H+  H143  1  0.13855656  0.37178592  0.33959113  1
  H+  H144  1  0.41825887  0.78055798  0.16506283  1
  H+  H145  1  0.36539502  0.14918036  0.81593482  1
  H+  H146  1  0.08614474  0.20587027  0.21058556  1
  H+  H147  1  0.22467512  0.10660348  0.32177083  1
  H+  H148  1  -0.02501020  0.86225269  0.48969577  1
  H+  H149  1  0.12175052  0.22818793  0.65488460  1
  H+  H150  1  0.59630698  0.13052200  0.00884464  1
  H+  H151  1  0.33387255  0.43975167  0.87871218  1
  H+  H152  1  0.62355464  0.54947998  0.32692418  1
  H+  H153  1  0.64010113  0.52433093  0.84619309  1
  H+  H154  1  -0.02946237  0.86418768  0.83499316  1
  H+  H155  1  0.05197799  0.14731074  0.11669658  1
  H+  H156  1  0.71228178  0.34703603  -0.00441360  1
  H+  H157  1  0.15099965  0.26895389  0.97858769  1
  H+  H158  1  0.14192809  0.51291121  0.98247582  1
  H+  H159  1  0.24160115  0.13014112  0.63931816  1
  H+  H160  1  0.87667553  0.77156113  0.66845788  1
  H+  H161  1  0.13560597  0.53775407  0.24389238  1
  H+  H162  1  0.37058861  0.25422222  0.66648775  1
  H+  H163  1  0.13577925  0.10405208  0.84428398  1
  H+  H164  1  0.54775025  0.69911309  0.83845800  1
  H+  H165  1  0.39045876  0.87032237  0.49772057  1
  H+  H166  1  0.85333798  0.13726164  1.00900843  1
  H+  H167  1  0.85377242  0.87999252  0.82819320  1
  H+  H168  1  0.64409168  0.77707360  0.50568969  1
  H+  H169  1  0.56001306  0.53476821  0.12175364  1
  H+  H170  1  0.63196584  0.77806361  0.98908298  1
  H+  H171  1  0.33494901  0.67298446  0.16856945  1
  H+  H172  1  0.27153541  0.64736376  0.82052510  1
  H+  H173  1  0.31756678  0.90900448  0.08627291  1
  H+  H174  1  0.37952038  0.26689141  0.32491481  1
  H+  H175  1  0.13730380  0.52466963  0.65811503  1
  H+  H176  1  0.66471238  0.91883937  0.18051684  1
  H+  H177  1  0.19013664  0.10899874  0.98132127  1
  H+  H178  1  0.53039864  0.65340895  0.68347663  1
  H+  H179  1  0.59416366  0.74703957  0.17302958  1
  H+  H180  1  0.99035447  0.36598190  0.19482807  1
  H+  H181  1  0.38355351  0.17298032  0.66904883  1
  H+  H182  1  0.87929900  0.86647354  0.66957801  1
  H+  H183  1  0.80716495  0.01270207  0.20249956  1
  H+  H184  1  0.52834361  0.88068960  0.48475331  1
  H+  H185  1  0.77068087  0.38280856  0.34853082  1
  H+  H186  1  0.52506860  0.38730741  0.99835603  1
  H+  H187  1  0.77076233  0.64182106  0.67352278  1
  H+  H188  1  0.49136497  0.93133733  0.17995446  1
  H+  H189  1  0.45753743  0.61188473  0.99069320  1
  H+  H190  1  0.58648616  0.93384459  0.10306075  1
  H+  H191  1  0.61644679  0.39857462  0.66918345  1
  H+  H192  1  0.26459364  0.37209139  0.36689450  1
  H+  H193  1  0.89672163  0.28201148  0.33687891  1
  H+  H194  1  0.11007943  0.87110650  0.01078976  1
  H+  H195  1  0.87099202  0.37466662  0.49758870  1
  H+  H196  1  0.88457623  0.35755594  0.84156742  1
  H+  H197  1  0.08717186  0.87211606  0.67243902  1
  H+  H198  1  0.11120663  0.70055970  0.34203055  1
  H+  H199  1  0.61748433  0.15720015  0.16173005  1
  H+  H200  1  0.38637597  0.58348282  0.17168184  1
  H+  H201  1  0.59398973  0.21727982  0.00512946  1
  H+  H202  1  0.86663545  0.88008398  0.15410306  1
  H+  H203  1  0.88248879  0.52396550  0.34186582  1
  H+  H204  1  0.13127490  0.61069779  0.65701055  1
  H+  H205  1  0.86086426  0.23013187  0.00791614  1
  H+  H206  1  0.43333417  0.02914153  0.20331069  1
  H+  H207  1  0.37674596  0.63992401  0.32856334  1
  H+  H208  1  0.88104086  0.52097410  0.50704360  1
  H+  H209  1  0.64532347  1.03442671  0.64294780  1
  H+  H210  1  1.03472485  0.14037326  0.65727577  1
  H+  H211  1  0.65763014  0.25430144  0.51361721  1
  H+  H212  1  -0.02646720  0.60560390  0.83083612  1
  H+  H213  1  0.89392402  0.86851671  -0.01036285  1
  H+  H214  1  0.11753968  0.13975615  0.33189479  1
  H+  H215  1  0.98197221  0.11705652  0.32374453  1
  H+  H216  1  0.46941554  0.57135856  0.32591153  1
  H+  H217  1  0.97632422  0.85679245  0.17399423  1
  H+  H218  1  0.22142071  0.84475810  0.32237930  1
  H+  H219  1  0.91635695  0.83434190  0.89665672  1
  H+  H220  1  0.85343017  0.46980029  -0.00046600  1
  H+  H221  1  0.88924085  0.11670200  0.65811850  1
  H+  H222  1  0.89091986  0.27291389  0.84066641  1
  H+  H223  1  0.89707372  0.78117738  0.99175939  1
  H+  H224  1  0.46487118  0.09773812  0.98929391  1
  H+  H225  1  0.46997330  0.87847179  0.82484421  1
  H+  H226  1  0.63112123  0.24185210  0.67458295  1
  H+  H227  1  0.62097574  0.46554474  1.00175895  1
  H+  H228  1  0.86714013  0.48835726  0.66829170  1
  H+  H229  1  0.66981404  0.34558732  0.90290206  1
  H+  H230  1  0.10510425  0.89044964  0.82416405  1
  H+  H231  1  0.63921134  0.62579670  0.66668546  1
  H+  H232  1  0.47309545  0.57916043  0.16196715  1
  H+  H233  1  0.13986019  0.36936137  0.65170130  1
  H+  H234  1  0.84532748  0.67168348  0.09702288  1
  H+  H235  1  0.13143899  0.36346017  0.83134735  1
  H+  H236  1  0.52565305  0.64701471  0.49158232  1
  H+  H237  1  0.64559536  0.12353812  0.65089407  1
  H+  H238  1  0.24132016  0.89475250  0.85377248  1
  H+  H239  1  0.87649397  0.72983450  0.15898289  1
  H+  H240  1  0.02236510  0.63967524  0.49541623  1
  H+  H241  1  0.19298126  0.84559563  0.66625802  1
  H+  H242  1  0.36533827  0.87443183  0.34237928  1
  H+  H243  1  0.74198892  0.87280250  0.32776789  1
  H+  H244  1  0.41577116  0.60747487  0.89487782  1
  H+  H245  1  0.43066169  0.60667721  0.56180309  1
  H+  H246  1  0.02276034  0.38949735  0.82597578  1
  H+  H247  1  0.37059699  0.40509257  0.66411935  1
  H+  H248  1  0.79005276  0.64040036  1.00547783  1
  H+  H249  1  0.41075704  0.06734509  0.67361359  1
  H+  H250  1  0.61645908  0.48776659  0.67176412  1
  H+  H251  1  0.36467987  0.65554712  0.82020065  1
  H+  H252  1  0.88299759  1.02524698  0.50206365  1
  H+  H253  1  0.83415804  0.17048827  0.76467578  1
  H+  H254  1  0.77636287  0.14332687  0.66709662  1
  H+  H255  1  0.87313337  0.01653940  0.99517291  1
  H+  H256  1  0.36215516  0.12986494  0.34513235  1
  H+  H257  1  0.64973158  0.12061220  0.33228453  1
  H+  H258  1  -0.02222497  0.36099791  -0.00835747  1
  H+  H259  1  0.71996062  0.70272935  0.21810911  1
  H+  H260  1  0.87535108  0.14592112  0.34231700  1
  H+  H261  1  0.12896699  0.74905830  -0.01284582  1
  H+  H262  1  0.86497002  0.23156472  0.67134254  1
  H+  H263  1  0.72025163  0.12077399  0.99957243  1
  H+  H264  1  0.37009291  0.51913063  0.99294195  1
  H+  H265  1  0.76212849  0.37810690  0.82872680  1
  H+  H266  1  0.76203354  0.87468690  0.82453750  1
  H+  H267  1  0.21922555  0.36080726  0.83112149  1
  H+  H268  1  0.87428504  0.01509746  0.83981355  1
  H+  H269  1  0.60015113  0.43185942  0.15753575  1
  H+  H270  1  0.74831322  0.64789962  0.17937307  1
  H+  H271  1  0.66851808  0.34085627  0.26610620  1
  H+  H272  1  1.02617385  0.87892016  0.33309671  1
  H+  H273  1  0.36546981  0.15712025  0.49531780  1
  H+  H274  1  0.31899728  0.97504627  0.13532633  1
  H+  H275  1  0.39706650  0.84745944  0.99044430  1
  H+  H276  1  0.35089760  0.61550306  0.01172650  1
  H+  H277  1  0.38583814  0.37349022  -0.01058323  1
  H+  H278  1  0.13448491  0.61809103  0.83238230  1
  H+  H279  1  0.09503570  0.14583158  -0.05255309  1
  H+  H280  1  0.73365320  0.37707495  0.65822739  1
  H+  H281  1  0.11503215  0.96757528  0.32949278  1
  H+  H282  1  0.63850435  0.86937733  0.99021000  1
  H+  H283  1  0.01169820  0.62937757  0.66645926  1
  H+  H284  1  0.24481223  0.58771220  0.17162014  1
  H+  H285  1  0.41115560  0.06296591  0.51595475  1
  H+  H286  1  0.13790853  0.53175091  0.50726186  1
  H+  H287  1  0.53351905  0.13414328  0.35635928  1
  H+  H288  1  0.88871023  0.02787731  0.65927512  1
  H+  H289  1  0.34973147  0.96286512  0.44858014  1
  H+  H290  1  0.67813741  0.83738396  0.59669161  1
  H+  H291  1  0.43434175  0.83668623  0.92889766  1
  H+  H292  1  0.06538333  0.90748608  0.73457009  1
  H+  H293  1  1.01462311  0.12515410  0.85640482  1
  H+  H294  1  0.43249254  0.12316297  0.57244023  1
  H+  H295  1  0.07596786  0.66529715  0.75483369  1
  H+  H296  1  -0.00155794  0.36685567  0.12524202  1
  H+  H297  1  0.83669215  0.42474329  0.72654348  1
  H+  H298  1  0.07998948  0.90415319  0.10158631  1
  H+  H299  1  0.61645984  0.52756645  0.51434698  1
  H+  H300  1  0.09665364  0.13784424  0.02327974  1
  H+  H301  1  0.09784769  0.71850753  0.66219124  1
  H+  H302  1  0.15695401  0.34007200  0.55216008  1
  H+  H303  1  0.42978287  0.08106862  0.28611443  1
  H+  H304  1  0.61931223  0.38510936  0.41080836  1
  H+  H305  1  0.34748103  0.16746374  0.11616131  1
  H+  H306  1  0.16158350  0.81676871  0.23081937  1
  H+  H307  1  0.89554025  0.07309240  0.89967158  1
  H+  H308  1  0.66262110  0.59637020  0.60391890  1
  H+  H309  1  0.67178697  0.57254410  0.26430302  1
  H+  H310  1  0.27147081  0.14813668  0.48617064  1
  H+  H311  1  0.34650462  0.67379984  0.38402499  1
  H+  H312  1  0.16453637  0.07919266  0.26200368  1
  H+  H313  1  0.31729281  0.90481390  0.77741005  1
  H+  H314  1  0.69891572  0.88702405  0.23799497  1
  H+  H315  1  0.67209918  0.33610884  0.60133234  1
  H+  H316  1  0.10557870  0.38986694  0.48955273  1
  H+  H317  1  0.77248030  0.88509871  -0.00078112  1
  H+  H318  1  0.86012081  0.38432356  0.00373964  1
  H+  H319  1  0.83001923  0.42154395  0.09373393  1
  H+  H320  1  0.66547271  0.10540812  0.55258032  1
  H+  H321  1  0.65037236  0.33987628  0.49695149  1
  H+  H322  1  0.09273337  0.91906926  0.42509633  1
  H+  H323  1  0.56832302  0.63098692  0.04146154  1
  H+  H324  1  0.88384030  0.76819229  0.32739164  1
  H+  H325  1  0.41902145  0.35512892  0.59331991  1
  H+  H326  1  0.30531841  0.86086075  0.39844825  1
  H+  H327  1  0.78900141  0.28219735  0.22060450  1
  H+  H328  1  0.34570074  0.36472291  0.15613620  1
  H+  H329  1  0.33298889  0.37609438  0.46280141  1
  H+  H330  1  0.58396409  0.42387939  0.76626351  1
  H+  H331  1  0.82186621  0.65666841  0.43207618  1
  H+  H332  1  0.52585890  0.13338457  0.81815533  1
  H+  H333  1  0.09983458  0.56211461  0.36190087  1
  H+  H334  1  0.40173264  0.33097639  0.23859252  1
  H+  H335  1  0.41926612  0.08993494  0.88716930  1
  H+  H336  1  0.77706600  0.88994981  0.49037138  1
  H+  H337  1  0.83362361  0.91249588  0.05874152  1
  H+  H338  1  0.78417487  0.32409888  0.78334392  1
  H+  H339  1  0.07596306  0.16624315  0.42564523  1
  H+  H340  1  0.15921032  0.85347228  0.60185954  1
  H+  H341  1  0.43178265  0.86695779  0.26966322  1
  H+  H342  1  0.16437966  0.82643881  0.93876483  1
  H+  H343  1  0.91321087  0.08433918  0.56208887  1
  H+  H344  1  0.16623393  0.58959782  0.89177651  1
  H+  H345  1  0.91646374  0.57931824  0.92846552  1
  H+  H346  1  0.41520184  0.33549523  0.89513080  1
  H+  H347  1  0.78020193  0.15336773  0.49011196  1
  H+  H348  1  0.58763296  0.67539455  0.43212637  1
  H+  H349  1  0.10280890  0.41213949  0.05338720  1
  H+  H350  1  0.86420295  0.63793449  0.82461597  1
  H+  H351  1  0.18313724  0.36295319  0.28142351  1
  H+  H352  1  -0.02027402  0.61346197  0.17051714  1
  H+  H353  1  0.57486440  0.17426897  0.10322992  1
  H+  H354  1  0.41189231  0.54935291  0.26835733  1
  H+  H355  1  0.77266421  0.62561097  0.33850505  1
  H+  H356  1  0.37063657  0.39726795  0.83597737  1
  H+  H357  1  0.65006452  0.81511026  0.89060380  1
  H+  H358  1  0.98101592  0.37378739  0.50136506  1
  H+  H359  1  0.69661439  0.01329046  0.87397024  1
  H+  H360  1  0.89656193  0.33032715  0.27715404  1
  H+  H361  1  0.17491095  0.59302957  0.56420959  1
  H+  H362  1  0.30508516  0.62573152  0.07933965  1
  H+  H363  1  0.32378039  0.41179092  0.06283734  1
  H+  H364  1  0.32896422  0.16592010  0.39800146  1
  H+  H365  1  0.07917774  0.65838273  0.40820509  1
  H+  H366  1  0.91451005  0.82622735  0.23308632  1
  H+  H367  1  0.59452315  0.69455917  0.74106425  1
  H+  H368  1  0.41953719  0.82583110  0.54694661  1
  H+  H369  1  0.90826888  0.58690355  0.59737902  1
  H+  H370  1  0.83968796  0.91865008  0.39916041  1
  H+  H371  1  0.91939777  0.33848625  0.59901055  1
  H+  H372  1  0.59905732  0.17315418  0.73095551  1
  H+  H373  1  0.08342915  0.41837310  0.72814266  1
  H+  H374  1  0.82807717  0.40292172  0.43624926  1
  H+  H375  1  0.20210858  0.94117890  0.89159820  1
  H+  H376  1  0.68389413  0.57882001  0.93352945  1
  H+  H377  1  0.83081436  0.66730691  0.73335352  1
  H+  H378  1  0.40586006  0.78590949  0.31683325  1
  H+  H379  1  0.21842221  0.98116656  0.56510212  1
  H+  H380  1  0.65306870  0.87522571  0.32714196  1
  H+  H381  1  0.57156811  0.93465914  0.74337009  1
  H+  H382  1  0.06950629  0.62726899  0.08122916  1
  H+  H383  1  0.33310463  0.42780553  0.72209487  1
  O2-  O384  1  0.06066986  0.10449441  0.09584789  1
  O2-  O385  1  0.07734541  0.16909227  0.47091232  1
  O2-  O386  1  0.07652934  0.15426955  0.86788056  1
  O2-  O387  1  0.03257338  0.38952700  0.16203869  1
  O2-  O388  1  0.07609939  0.42620804  0.48051516  1
  O2-  O389  1  0.08222012  0.41849351  0.80887647  1
  O2-  O390  1  0.07764058  0.65090858  0.15456018  1
  O2-  O391  1  0.08144256  0.67106473  0.47915345  1
  O2-  O392  1  0.07663790  0.66496214  0.80123964  1
  O2-  O393  1  0.07757531  0.90353754  0.14710172  1
  O2-  O394  1  0.08976199  0.92527163  0.46999014  1
  O2-  O395  1  0.07262229  0.91590386  0.80637584  1
  O2-  O396  1  0.33436445  0.15658437  0.16032828  1
  O2-  O397  1  0.33378240  0.18266191  0.47430785  1
  O2-  O398  1  0.33446302  0.17962818  0.80355529  1
  O2-  O399  1  0.32035577  0.39901609  0.13814674  1
  O2-  O400  1  0.32823143  0.35911456  0.50649377  1
  O2-  O401  1  0.34171666  0.43373481  0.83544184  1
  O2-  O402  1  0.30292628  0.61476964  0.15153579  1
  O2-  O403  1  0.33196297  0.66423497  0.46393148  1
  O2-  O404  1  0.33107524  0.68164957  0.80402132  1
  O2-  O405  1  0.30871979  0.91667482  0.13091914  1
  O2-  O406  1  0.34894883  0.94500400  0.49061555  1
  O2-  O407  1  0.32934421  0.92019997  0.82076048  1
  O2-  O408  1  0.58329872  0.18415332  0.14796571  1
  O2-  O409  1  0.61999783  0.15324960  0.49293403  1
  O2-  O410  1  0.58595722  0.15481569  0.80430971  1
  O2-  O411  1  0.56014268  0.45345498  0.15999950  1
  O2-  O412  1  0.62433545  0.39830552  0.45538035  1
  O2-  O413  1  0.58430929  0.42359320  0.81158216  1
  O2-  O414  1  0.56455066  0.59180987  0.11169219  1
  O2-  O415  1  0.58836642  0.67360122  0.47714156  1
  O2-  O416  1  0.60905157  0.72512211  0.82641339  1
  O2-  O417  1  0.58645935  0.94098485  0.14821032  1
  O2-  O418  1  0.59068211  0.90911494  0.47698370  1
  O2-  O419  1  0.55089298  0.94396285  0.78311728  1
  O2-  O420  1  0.83417439  0.17592922  0.14685558  1
  O2-  O421  1  0.84190530  0.17918320  0.47879709  1
  O2-  O422  1  0.83603625  0.17070507  0.81046942  1
  O2-  O423  1  0.83129940  0.42971177  0.13935715  1
  O2-  O424  1  0.83093991  0.40177543  0.48354921  1
  O2-  O425  1  0.81303196  0.38010748  0.80329095  1
  O2-  O426  1  0.84552806  0.66839606  0.14300213  1
  O2-  O427  1  0.82348752  0.65599676  0.47777624  1
  O2-  O428  1  0.83331276  0.66719736  0.81008062  1
  O2-  O429  1  0.84383572  0.91452020  0.13427971  1
  O2-  O430  1  0.83675208  0.92264499  0.47356784  1
  O2-  O431  1  0.82371441  0.91096242  0.81362495  1
  O2-  O432  1  0.15960081  0.07301131  0.17891665  1
  O2-  O433  1  0.16651446  0.09059550  0.50341659  1
  O2-  O434  1  0.16649318  0.07146621  0.83974019  1
  O2-  O435  1  0.19886296  0.40245598  0.21148501  1
  O2-  O436  1  0.14646480  0.33907540  0.50766722  1
  O2-  O437  1  0.15994605  0.33139068  0.84705328  1
  O2-  O438  1  0.14381543  0.55396691  0.20015652  1
  O2-  O439  1  0.17246796  0.59343726  0.51899395  1
  O2-  O440  1  0.16609664  0.58904845  0.84671118  1
  O2-  O441  1  0.15479842  0.81310583  0.18499933  1
  O2-  O442  1  0.20392671  0.92690647  0.54499519  1
  O2-  O443  1  0.18661023  0.88474990  0.87505155  1
  O2-  O444  1  0.43328222  0.08418648  0.20673385  1
  O2-  O445  1  0.42683689  0.12171887  0.52770648  1
  O2-  O446  1  0.41839478  0.09283233  0.84222974  1
  O2-  O447  1  0.40221413  0.32829297  0.19219946  1
  O2-  O448  1  0.40095526  0.34439998  0.51460096  1
  O2-  O449  1  0.41557519  0.33976061  0.84980598  1
  O2-  O450  1  0.41927113  0.55646215  0.18598757  1
  O2-  O451  1  0.43288714  0.60408918  0.51706963  1
  O2-  O452  1  0.42918327  0.61765925  0.85102492  1
  O2-  O453  1  0.44320399  0.93045714  0.20336458  1
  O2-  O454  1  0.41407051  0.83138536  0.50247155  1
  O2-  O455  1  0.41581243  0.84513013  0.84980609  1
  O2-  O456  1  0.66975024  0.10605506  0.18929109  1
  O2-  O457  1  0.67208337  0.11346849  0.50706771  1
  O2-  O458  1  0.68552592  0.05918275  0.86235067  1
  O2-  O459  1  0.66346600  0.34927544  0.19212239  1
  O2-  O460  1  0.68173840  0.31726291  0.52263715  1
  O2-  O461  1  0.68828815  0.37039447  0.86150673  1
  O2-  O462  1  0.69894819  0.64512077  0.20192336  1
  O2-  O463  1  0.65518103  0.58780330  0.52403989  1
  O2-  O464  1  0.67292436  0.58140007  0.86651092  1
  O2-  O465  1  0.71578852  0.91887914  0.19825305  1
  O2-  O466  1  0.67512542  0.83709160  0.52162286  1
  O2-  O467  1  0.64752209  0.81631861  0.84509233  1
  O2-  O468  1  0.86827247  0.06100612  0.19669913  1
  O2-  O469  1  0.91150989  0.08629999  0.51657183  1
  O2-  O470  1  0.90296646  0.07589851  0.85477252  1
  O2-  O471  1  0.84729174  0.30726892  0.20441091  1
  O2-  O472  1  0.91907199  0.34010833  0.51782951  1
  O2-  O473  1  0.91976522  0.33290318  0.85748148  1
  O2-  O474  1  0.91496773  0.58549920  0.17798297  1
  O2-  O475  1  0.90832991  0.58066391  0.52137894  1
  O2-  O476  1  0.91521663  0.57711338  0.84989616  1
  O2-  O477  1  0.91450695  0.82487618  0.18720308  1
  O2-  O478  1  0.91441190  0.83600641  0.50267619  1
  O2-  O479  1  0.91053872  0.83122231  0.85133219  1
  O2-  O480  1  0.16359826  0.07743084  0.30727077  1
  O2-  O481  1  0.18410182  0.09459376  0.62111733  1
  O2-  O482  1  0.22064321  0.07634976  0.98750128  1
  O2-  O483  1  0.16852650  0.34250486  0.32485363  1
  O2-  O484  1  0.16969465  0.34177435  0.63209891  1
  O2-  O485  1  0.16885079  0.33028426  0.96813957  1
  O2-  O486  1  0.11380711  0.51479881  0.36858067  1
  O2-  O487  1  0.16773762  0.58619600  0.64418151  1
  O2-  O488  1  0.16993636  0.57613280  0.97414911  1
  O2-  O489  1  0.16202146  0.81407904  0.30603311  1
  O2-  O490  1  0.13972348  0.82437976  0.64246441  1
  O2-  O491  1  0.16164397  0.81128844  0.98310171  1
  O2-  O492  1  0.42723142  0.07840894  0.33155171  1
  O2-  O493  1  0.44265652  0.12275193  0.65368937  1
  O2-  O494  1  0.40822173  0.05939455  0.96772645  1
  O2-  O495  1  0.40422205  0.32706998  0.31084848  1
  O2-  O496  1  0.42143258  0.35687272  0.63878053  1
  O2-  O497  1  0.41474749  0.34237828  0.97373568  1
  O2-  O498  1  0.41061329  0.55366302  0.31333297  1
  O2-  O499  1  0.43152626  0.60462174  0.64787359  1
  O2-  O500  1  0.39508200  0.58121739  0.97895610  1
  O2-  O501  1  0.43098786  0.84995588  0.31282264  1
  O2-  O502  1  0.43435524  0.82328483  0.62506737  1
  O2-  O503  1  0.43631881  0.82928381  0.97350131  1
  O2-  O504  1  0.68038730  0.09399707  0.31176106  1
  O2-  O505  1  0.67519265  0.09610313  0.63010943  1
  O2-  O506  1  0.66040584  0.08871920  0.98350320  1
  O2-  O507  1  0.67249011  0.33908209  0.31264304  1
  O2-  O508  1  0.67175997  0.34404531  0.64598724  1
  O2-  O509  1  0.65291188  0.31637792  0.97965503  1
  O2-  O510  1  0.66759749  0.54455963  0.30438548  1
  O2-  O511  1  0.66763907  0.59513755  0.64904353  1
  O2-  O512  1  0.69152423  0.57611276  0.98069455  1
  O2-  O513  1  0.68272922  0.84541473  0.30926984  1
  O2-  O514  1  0.67999770  0.84194120  0.64259271  1
  O2-  O515  1  0.66528029  0.83652604  0.97218288  1
  O2-  O516  1  0.91843848  0.08600275  0.31560470  1
  O2-  O517  1  0.91708928  0.08595195  0.64036931  1
  O2-  O518  1  0.89872292  0.07849935  0.98078805  1
  O2-  O519  1  0.91750873  0.34154148  0.31970937  1
  O2-  O520  1  0.91913946  0.33818425  0.64424068  1
  O2-  O521  1  0.91661211  0.33404318  0.97954356  1
  O2-  O522  1  0.91206691  0.58341420  0.32671987  1
  O2-  O523  1  0.91131837  0.58770430  0.64308758  1
  O2-  O524  1  0.91239581  0.57746035  0.97388302  1
  O2-  O525  1  0.91648274  0.82753201  0.31002220  1
  O2-  O526  1  0.90962203  0.83407862  0.65578335  1
  O2-  O527  1  0.92722057  0.84101255  0.97534311  1
  O2-  O528  1  0.12940229  0.16691714  -0.01457879  1
  O2-  O529  1  0.08505513  0.16806454  0.34634020  1
  O2-  O530  1  0.09616217  0.16756672  0.66792632  1
  O2-  O531  1  0.09157173  0.40925575  0.00980986  1
  O2-  O532  1  0.08895078  0.46421943  0.31218612  1
  O2-  O533  1  0.08583904  0.42162459  0.68295089  1
  O2-  O534  1  0.05476655  0.59857230  0.03983001  1
  O2-  O535  1  0.07722553  0.64467003  0.36275655  1
  O2-  O536  1  0.07325481  0.66038588  0.68097629  1
  O2-  O537  1  0.08977963  0.91077267  0.02335875  1
  O2-  O538  1  0.08789975  0.90741141  0.34523318  1
  O2-  O539  1  0.05750436  0.90222740  0.68882725  1
  O2-  O540  1  0.36088145  0.19205319  0.03855590  1
  O2-  O541  1  0.32708580  0.15730264  0.35275664  1
  O2-  O542  1  0.34395407  0.19373819  0.68154666  1
  O2-  O543  1  0.32770366  0.42124597  0.01723007  1
  O2-  O544  1  0.32402692  0.39613261  0.38275122  1
  O2-  O545  1  0.33781939  0.43423078  0.67806904  1
  O2-  O546  1  0.31309926  0.63840286  0.03367962  1
  O2-  O547  1  0.36178379  0.68368301  0.34001528  1
  O2-  O548  1  0.33110277  0.67911159  0.68144791  1
  O2-  O549  1  0.33151520  0.89460307  0.01522236  1
  O2-  O550  1  0.32494248  0.89329311  0.36055956  1
  O2-  O551  1  0.29186995  0.86190070  0.70091828  1
  O2-  O552  1  0.56110773  0.15663520  0.02181495  1
  O2-  O553  1  0.59595957  0.16689409  0.36703398  1
  O2-  O554  1  0.60086109  0.17930545  0.68515414  1
  O2-  O555  1  0.58299170  0.40543255  0.01470906  1
  O2-  O556  1  0.61953418  0.37589108  0.33288373  1
  O2-  O557  1  0.58412098  0.42625994  0.68477105  1
  O2-  O558  1  0.56337743  0.65727429  0.00193556  1
  O2-  O559  1  0.57925845  0.68419725  0.34986344  1
  O2-  O560  1  0.59201209  0.68330308  0.69690116  1
  O2-  O561  1  0.59030846  0.91997972  0.02302516  1
  O2-  O562  1  0.59997617  0.92520686  0.35097089  1
  O2-  O563  1  0.59911872  0.92884800  0.66820789  1
  O2-  O564  1  0.82747427  0.17099689  0.02547229  1
  O2-  O565  1  0.84674915  0.17879307  0.35604970  1
  O2-  O566  1  0.83410635  0.17142755  0.68701450  1
  O2-  O567  1  0.82762923  0.41213131  0.01912514  1
  O2-  O568  1  0.82812130  0.40887639  0.36864516  1
  O2-  O569  1  0.83891949  0.42636861  0.68152328  1
  O2-  O570  1  0.85032530  0.67622453  0.02164605  1
  O2-  O571  1  0.83028524  0.66349107  0.35578978  1
  O2-  O572  1  0.83213953  0.67075783  0.68765154  1
  O2-  O573  1  0.83363394  0.91663220  0.01304671  1
  O2-  O574  1  0.84234073  0.91774617  0.35314559  1
  O2-  O575  1  0.83739532  0.92185387  0.68949694  1
