# generated using pymatgen
data_H2O
_symmetry_space_group_name_H-M   'P 1'
_cell_length_a   17.97768015
_cell_length_b   17.98836979
_cell_length_c   21.99912079
_cell_angle_alpha   90.02308447
_cell_angle_beta   89.95909714
_cell_angle_gamma   119.94829307
_symmetry_Int_Tables_number   1
_chemical_formula_structural   H2O
_chemical_formula_sum   'H384 O192'
_cell_volume   6164.35082517
_cell_formula_units_Z   192
loop_
 _symmetry_equiv_pos_site_id
 _symmetry_equiv_pos_as_xyz
  1  'x, y, z'
loop_
 _atom_type_symbol
 _atom_type_oxidation_number
  H+  1.0
  O2-  -2.0
loop_
 _atom_site_type_symbol
 _atom_site_label
 _atom_site_symmetry_multiplicity
 _atom_site_fract_x
 _atom_site_fract_y
 _atom_site_fract_z
 _atom_site_occupancy
  H+  H0  1  0.61238003  0.51763501  0.33958773  1
  H+  H1  1  0.24252254  0.08625430  0.38384613  1
  H+  H2  1  0.91275847  0.37949450  -0.01939281  1
  H+  H3  1  0.34592154  0.01362269  0.37267619  1
  H+  H4  1  0.38602120  0.01913177  0.51079044  1
  H+  H5  1  0.68567108  0.83348592  0.93220191  1
  H+  H6  1  0.03100875  0.87956073  0.82992462  1
  H+  H7  1  0.46890303  0.09963020  0.14698001  1
  H+  H8  1  0.37634486  0.09743079  0.14827244  1
  H+  H9  1  0.39824055  0.76518174  0.49289071  1
  H+  H10  1  0.39200484  0.50219606  1.01081645  1
  H+  H11  1  0.55164112  0.91006795  0.83749491  1
  H+  H12  1  0.60360222  0.67761184  0.10237209  1
  H+  H13  1  0.59902555  0.40197403  0.34646919  1
  H+  H14  1  0.36522210  0.73143173  -0.00564922  1
  H+  H15  1  0.13707160  0.52702324  0.49834092  1
  H+  H16  1  0.13625526  0.85471371  0.32956489  1
  H+  H17  1  0.62945174  0.02936991  -0.00290420  1
  H+  H18  1  0.65195114  0.12899640  0.82267633  1
  H+  H19  1  0.61625140  0.22763138  0.81189233  1
  H+  H20  1  0.46630888  0.35750508  0.65659599  1
  H+  H21  1  0.17528055  0.37580657  0.00382245  1
  H+  H22  1  0.23389042  0.86483000  0.52405507  1
  H+  H23  1  0.61310784  -0.00873376  0.68575438  1
  H+  H24  1  0.38561809  0.28315181  0.49439510  1
  H+  H25  1  0.63429549  0.29535566  0.48616128  1
  H+  H26  1  0.38391084  0.60781926  0.66229084  1
  H+  H27  1  0.57379678  0.48574547  1.01048670  1
  H+  H28  1  0.60747040  0.12960254  0.16222954  1
  H+  H29  1  0.46337906  0.23862210  0.32593663  1
  H+  H30  1  0.25298800  0.97785418  0.63473792  1
  H+  H31  1  0.76717549  0.63228487  0.19772270  1
  H+  H32  1  0.26849530  0.12494610  0.81683567  1
  H+  H33  1  0.71965224  0.11178642  0.17352023  1
  H+  H34  1  0.12176409  0.63209196  0.81860297  1
  H+  H35  1  0.49914071  0.62431617  0.49723298  1
  H+  H36  1  0.06662370  0.15472148  0.88634189  1
  H+  H37  1  0.11129443  0.24457683  0.83212348  1
  H+  H38  1  0.35270207  0.47232886  0.34381055  1
  H+  H39  1  0.11070459  0.46689390  0.34750868  1
  H+  H40  1  0.64183555  0.78032957  0.17200997  1
  H+  H41  1  0.85607143  0.73414656  -0.02826517  1
  H+  H42  1  0.22300232  0.35555360  0.33018190  1
  H+  H43  1  0.36966255  0.34769335  0.83387239  1
  H+  H44  1  0.35382726  0.57740124  0.84945127  1
  H+  H45  1  -0.02595627  0.36302388  0.17310573  1
  H+  H46  1  0.11601333  0.39038124  0.16140281  1
  H+  H47  1  0.37876120  0.02993875  0.65849941  1
  H+  H48  1  0.56127721  0.65687109  0.43514369  1
  H+  H49  1  0.72162875  0.36466780  0.63248435  1
  H+  H50  1  0.72867194  0.37815331  0.32747436  1
  H+  H51  1  0.71558259  0.60944172  0.65776346  1
  H+  H52  1  0.35717080  0.62222256  0.33715554  1
  H+  H53  1  0.86268689  0.73239668  0.34445268  1
  H+  H54  1  0.36943063  0.09755269  0.49342026  1
  H+  H55  1  0.37675570  0.51579226  0.17945282  1
  H+  H56  1  0.37047191  0.98791272  0.16096142  1
  H+  H57  1  0.87353029  0.15559046  0.01481226  1
  H+  H58  1  0.87241784  0.52660043  0.32226877  1
  H+  H59  1  0.87973724  0.48487500  0.98646307  1
  H+  H60  1  0.37934247  0.88106647  0.50564398  1
  H+  H61  1  0.48946801  0.83994644  0.31362486  1
  H+  H62  1  0.62276964  0.28410032  0.99784293  1
  H+  H63  1  0.46208158  0.60330756  0.32834289  1
  H+  H64  1  0.13143271  0.34976057  0.32871356  1
  H+  H65  1  0.11172515  0.07485060  0.47510106  1
  H+  H66  1  0.11407729  0.50639523  0.65349679  1
  H+  H67  1  0.60278667  0.37647585  0.66593389  1
  H+  H68  1  0.22910506  0.37734158  0.51248550  1
  H+  H69  1  0.35476631  0.21727550  0.81772590  1
  H+  H70  1  1.02874806  0.64436565  0.15704414  1
  H+  H71  1  0.52263545  0.63604718  0.01222546  1
  H+  H72  1  0.84078669  0.15651442  0.54765680  1
  H+  H73  1  0.03004696  0.65073016  0.50594028  1
  H+  H74  1  0.15388644  0.58997607  0.39439916  1
  H+  H75  1  0.71972816  0.12134988  0.32473457  1
  H+  H76  1  0.09517721  0.71832192  0.32620570  1
  H+  H77  1  0.35974681  0.97257072  -0.00149589  1
  H+  H78  1  0.34562835  0.13347592  0.66611177  1
  H+  H79  1  0.78966170  0.16266446  0.01594176  1
  H+  H80  1  0.63486593  0.12644062  0.32684544  1
  H+  H81  1  0.70864960  0.86653535  0.33212979  1
  H+  H82  1  0.65348385  0.38235808  -0.01051475  1
  H+  H83  1  1.04585506  0.65941653  0.66543630  1
  H+  H84  1  0.36051215  0.90670136  0.56720829  1
  H+  H85  1  0.23837138  0.86239096  0.83844300  1
  H+  H86  1  0.38597624  0.28900939  0.35225404  1
  H+  H87  1  0.86286411  0.39797303  0.49521687  1
  H+  H88  1  0.34926399  0.38364604  0.67528126  1
  H+  H89  1  0.65954577  0.78675330  0.83160263  1
  H+  H90  1  0.09179915  0.67277424  0.06520043  1
  H+  H91  1  0.41830668  0.20218202  0.38997775  1
  H+  H92  1  0.67476345  0.85024388  0.56831384  1
  H+  H93  1  0.21549866  0.38482497  0.67172135  1
  H+  H94  1  0.29293216  0.90883699  0.68466524  1
  H+  H95  1  0.64895182  0.86976758  0.50286646  1
  H+  H96  1  0.36477408  0.71646317  0.67540999  1
  H+  H97  1  0.61221979  0.52387403  0.50098545  1
  H+  H98  1  0.84698668  0.96830049  0.33659226  1
  H+  H99  1  0.90314261  0.62516906  0.83319053  1
  H+  H100  1  0.02410042  0.38245731  0.82535783  1
  H+  H101  1  0.37291649  0.64426450  -0.00451271  1
  H+  H102  1  0.98423926  0.86311900  0.49829589  1
  H+  H103  1  0.12008230  0.89655579  0.17436637  1
  H+  H104  1  0.19096529  0.23972668  0.44450453  1
  H+  H105  1  0.35861373  0.38653246  0.34662875  1
  H+  H106  1  0.12221532  0.87402696  0.82701054  1
  H+  H107  1  0.61867458  -0.02927746  0.47558102  1
  H+  H108  1  0.59327993  0.72163752  0.34732183  1
  H+  H109  1  0.89570050  0.61821156  0.17310474  1
  H+  H110  1  0.86065822  0.88090945  0.48482861  1
  H+  H111  1  0.12209453  0.96439485  0.34972141  1
  H+  H112  1  0.36040890  0.63067446  0.49150663  1
  H+  H113  1  0.97027330  0.10584879  0.31858271  1
  H+  H114  1  0.72502013  0.36186688  0.84466194  1
  H+  H115  1  0.58959288  0.18887860  0.54463994  1
  H+  H116  1  0.34867461  0.42281916  0.10739145  1
  H+  H117  1  0.34399703  0.72988242  0.88873334  1
  H+  H118  1  0.74683498  0.34962482  0.13931877  1
  H+  H119  1  0.33997367  0.67095976  0.09202549  1
  H+  H120  1  0.85679911  0.13603464  0.16536944  1
  H+  H121  1  0.67367475  0.54843590  0.80581618  1
  H+  H122  1  0.12173605  0.64020003  1.00649138  1
  H+  H123  1  0.46638594  0.11562555  0.99042310  1
  H+  H124  1  0.14350171  0.01885130  0.83366843  1
  H+  H125  1  0.76981392  0.88062612  0.49383386  1
  H+  H126  1  0.09961046  0.86078629  0.01218334  1
  H+  H127  1  0.10486517  0.12960286  0.83146150  1
  H+  H128  1  0.19797995  0.22889263  0.47616667  1
  H+  H129  1  0.36295550  0.86078495  0.97581543  1
  H+  H130  1  0.53571729  0.87949455  0.47488407  1
  H+  H131  1  0.50847528  0.13516152  0.50440546  1
  H+  H132  1  0.85969786  0.10996259  0.83869757  1
  H+  H133  1  0.13597849  0.51977068  0.16596611  1
  H+  H134  1  0.20929687  0.34102886  0.82435480  1
  H+  H135  1  0.34148790  0.76605081  0.82631949  1
  H+  H136  1  0.47513166  0.61118545  0.65957883  1
  H+  H137  1  0.84564127  0.66574616  0.24259705  1
  H+  H138  1  0.53069786  0.13781304  0.80796995  1
  H+  H139  1  0.85897331  0.89145625  0.66604879  1
  H+  H140  1  0.18338380  0.10831205  0.34496477  1
  H+  H141  1  0.09113403  0.62826860  0.33190402  1
  H+  H142  1  0.27661557  0.63237483  0.66748206  1
  H+  H143  1  0.77157741  0.89165673  0.16195999  1
  H+  H144  1  0.33510258  0.88906932  0.38603090  1
  H+  H145  1  -0.00101764  0.08057380  0.44975300  1
  H+  H146  1  0.15026110  0.63454733  0.64693922  1
  H+  H147  1  0.32222077  0.44716593  0.83850494  1
  H+  H148  1  0.49206385  0.89063506  0.98659559  1
  H+  H149  1  0.37800996  0.60573700  0.17541625  1
  H+  H150  1  0.32774068  0.16790353  0.73526630  1
  H+  H151  1  0.37558358  0.51646221  0.51086591  1
  H+  H152  1  0.89715236  0.53202266  0.83994932  1
  H+  H153  1  0.86474230  0.23347607  0.33898080  1
  H+  H154  1  0.88070567  0.85653841  0.33080445  1
  H+  H155  1  0.32608437  0.41639316  0.43801239  1
  H+  H156  1  0.37895747  0.35185909  0.18181339  1
  H+  H157  1  0.88166403  0.02415526  0.17285029  1
  H+  H158  1  0.09427164  0.05725353  0.64842579  1
  H+  H159  1  0.87028030  0.64344100  0.48817703  1
  H+  H160  1  1.01795255  0.39175018  0.49846683  1
  H+  H161  1  0.23699944  0.62101487  0.99566254  1
  H+  H162  1  0.60511006  0.97437773  0.15446835  1
  H+  H163  1  0.64311848  0.29036639  0.33631209  1
  H+  H164  1  0.40743854  0.57752084  0.57071218  1
  H+  H165  1  0.97354163  0.36210966  0.32634887  1
  H+  H166  1  0.91465066  0.33520801  0.26612046  1
  H+  H167  1  0.32120333  0.40470744  0.01388308  1
  H+  H168  1  0.25382675  0.11773308  0.47978733  1
  H+  H169  1  0.60675859  0.88703609  0.15252776  1
  H+  H170  1  0.88207814  0.77459409  0.17370435  1
  H+  H171  1  0.82328075  0.40241286  0.02693320  1
  H+  H172  1  0.45859990  0.34565790  0.82868749  1
  H+  H173  1  0.86883728  0.39950788  0.65339735  1
  H+  H174  1  0.88508930  0.03293455  1.00072386  1
  H+  H175  1  0.86337348  0.64905338  0.97343570  1
  H+  H176  1  0.85708693  0.72792090  0.67052079  1
  H+  H177  1  0.75259533  0.63052486  0.83294270  1
  H+  H178  1  0.38599438  1.01661333  0.38582608  1
  H+  H179  1  0.76075969  0.13510353  0.50866678  1
  H+  H180  1  0.27464513  0.38333173  0.15945351  1
  H+  H181  1  0.99357900  0.86778001  0.66139454  1
  H+  H182  1  0.62861729  0.51851842  0.18506451  1
  H+  H183  1  0.43298518  0.82367462  0.55169745  1
  H+  H184  1  0.70734354  0.03942223  0.02992573  1
  H+  H185  1  0.87431536  0.73734202  0.48621358  1
  H+  H186  1  0.53518998  0.18304769  0.36543945  1
  H+  H187  1  0.45275063  0.68198880  0.80966837  1
  H+  H188  1  0.85700092  0.63597075  0.34152628  1
  H+  H189  1  0.36000029  0.23467261  0.66969345  1
  H+  H190  1  0.13470646  0.27700865  0.17245996  1
  H+  H191  1  0.59680553  0.62036069  0.49952903  1
  H+  H192  1  0.78218304  0.15506540  0.81038352  1
  H+  H193  1  0.87643060  0.00607230  0.48856388  1
  H+  H194  1  0.38642059  0.77323061  0.16348620  1
  H+  H195  1  0.62254626  0.10264189  0.50802767  1
  H+  H196  1  0.11155319  0.96700510  0.49234402  1
  H+  H197  1  0.88614802  1.02647241  0.64290496  1
  H+  H198  1  0.88370579  0.53006591  0.66619921  1
  H+  H199  1  0.90770286  0.88039319  0.83340377  1
  H+  H200  1  0.21464708  0.11901788  0.19546048  1
  H+  H201  1  0.56671173  0.42963837  0.42479163  1
  H+  H202  1  0.58581353  0.44398282  0.84215151  1
  H+  H203  1  0.39188416  0.10932417  0.82746755  1
  H+  H204  1  0.34602380  0.11782775  0.00689325  1
  H+  H205  1  0.88267030  0.74412037  0.82828508  1
  H+  H206  1  0.90271708  0.32924498  0.68872777  1
  H+  H207  1  0.47680024  0.86377409  0.16395161  1
  H+  H208  1  0.46016127  0.34655851  -0.01193082  1
  H+  H209  1  0.61029365  0.64013149  0.66436089  1
  H+  H210  1  0.90828366  0.28970676  0.99443825  1
  H+  H211  1  0.23578932  0.61987073  0.84875886  1
  H+  H212  1  0.13144085  0.07765465  0.54630512  1
  H+  H213  1  0.88621801  0.27290816  0.17727778  1
  H+  H214  1  0.14146005  0.77919953  0.52708617  1
  H+  H215  1  0.35615264  0.21391153  0.16637404  1
  H+  H216  1  0.27569081  0.63923570  0.14873860  1
  H+  H217  1  0.35644323  0.38622067  0.49778895  1
  H+  H218  1  0.87128162  0.22724857  0.64860381  1
  H+  H219  1  0.86651257  0.13598716  0.65028091  1
  H+  H220  1  0.60389773  0.40542235  0.48545475  1
  H+  H221  1  0.92953240  0.59531783  0.71946980  1
  H+  H222  1  0.85927091  0.88733359  0.15401192  1
  H+  H223  1  0.14179144  0.29055209  0.52155136  1
  H+  H224  1  -0.01201017  0.62705991  -0.00858064  1
  H+  H225  1  0.62843786  0.64799251  0.16403850  1
  H+  H226  1  0.12797676  1.03230770  0.19651462  1
  H+  H227  1  0.60849081  0.63237310  1.00064782  1
  H+  H228  1  0.62802555  0.51863117  0.65774506  1
  H+  H229  1  0.47055696  0.37294230  0.50503914  1
  H+  H230  1  0.35011326  0.83314328  0.33894504  1
  H+  H231  1  0.83751335  0.35806816  0.13787740  1
  H+  H232  1  0.65815998  0.87514744  0.83777060  1
  H+  H233  1  0.88550224  0.52905230  0.50528521  1
  H+  H234  1  0.65739695  0.32629871  0.89872525  1
  H+  H235  1  0.17038997  0.29002597  -0.01632683  1
  H+  H236  1  0.87866184  0.28223404  0.51593834  1
  H+  H237  1  0.10775131  0.39205861  0.49935664  1
  H+  H238  1  0.87120244  0.38981681  0.84516372  1
  H+  H239  1  0.62108990  0.35223379  0.17789688  1
  H+  H240  1  0.11640654  0.88032707  0.50029362  1
  H+  H241  1  0.10705579  0.14483647  0.17023833  1
  H+  H242  1  0.61788025  0.15681662  0.71344892  1
  H+  H243  1  0.86539654  0.39380345  0.33600801  1
  H+  H244  1  0.11679816  0.34975589  0.82114701  1
  H+  H245  1  0.36629454  0.71582440  0.33323371  1
  H+  H246  1  0.36875706  0.88613090  0.17824259  1
  H+  H247  1  1.02276379  0.14374244  0.97635855  1
  H+  H248  1  0.10845755  0.13670421  -0.02763379  1
  H+  H249  1  0.60064959  0.21618930  0.17025973  1
  H+  H250  1  0.11739187  0.64305943  0.15664890  1
  H+  H251  1  0.70456869  0.60883802  0.33863382  1
  H+  H252  1  0.72067455  0.61263920  0.97330445  1
  H+  H253  1  0.88284019  0.09838481  0.48431697  1
  H+  H254  1  0.63862058  0.64848500  0.81665127  1
  H+  H255  1  0.60874637  0.37129946  0.82783729  1
  H+  H256  1  0.10733889  0.13027033  0.27791845  1
  H+  H257  1  0.21598981  0.83440348  0.32930786  1
  H+  H258  1  0.64914273  0.77437805  0.99129718  1
  H+  H259  1  0.64846052  0.57584097  0.24565670  1
  H+  H260  1  0.46905972  0.69019800  0.84215996  1
  H+  H261  1  0.89341052  0.28050160  0.83612543  1
  H+  H262  1  0.85218334  0.63902406  0.67920763  1
  H+  H263  1  0.64309012  0.58250232  0.56294575  1
  H+  H264  1  0.26879743  0.88786360  1.00218403  1
  H+  H265  1  0.01963167  0.14569135  0.16573711  1
  H+  H266  1  0.13798990  0.76992695  0.99103296  1
  H+  H267  1  0.79021676  0.89164513  0.81858567  1
  H+  H268  1  0.39632726  0.85693307  0.90946192  1
  H+  H269  1  0.72238557  0.87234639  0.66290813  1
  H+  H270  1  0.17024194  0.33829584  0.23049150  1
  H+  H271  1  0.13143342  0.02180737  0.99164563  1
  H+  H272  1  0.03638731  0.63749728  0.81945368  1
  H+  H273  1  0.86764995  -0.01628010  0.82163368  1
  H+  H274  1  0.63314151  0.78451034  0.65909181  1
  H+  H275  1  0.61593412  0.90402728  0.68075315  1
  H+  H276  1  0.65997279  0.04590021  0.83326727  1
  H+  H277  1  0.13020768  0.48252529  0.01092179  1
  H+  H278  1  0.65622824  0.33006971  0.23773241  1
  H+  H279  1  0.40607538  0.32782770  0.59720508  1
  H+  H280  1  0.04514027  0.39237736  0.00462808  1
  H+  H281  1  0.51122906  0.38036523  0.17118302  1
  H+  H282  1  0.37566480  0.86007522  0.65816243  1
  H+  H283  1  0.83522267  0.17615464  0.10762075  1
  H+  H284  1  0.89104938  0.88045887  0.99209395  1
  H+  H285  1  0.59778502  0.63380374  0.34668573  1
  H+  H286  1  0.97292519  0.86629490  0.99374181  1
  H+  H287  1  0.27453810  0.88713973  0.18136243  1
  H+  H288  1  0.40646965  0.32224594  0.24245825  1
  H+  H289  1  0.17536268  0.59883215  0.58635740  1
  H+  H290  1  0.22382529  0.10596692  0.99337497  1
  H+  H291  1  0.33787795  0.66189400  0.42796956  1
  H+  H292  1  0.92233071  0.83549765  0.55566284  1
  H+  H293  1  0.07361772  0.40263673  0.40158710  1
  H+  H294  1  0.39784236  0.02412533  0.83300687  1
  H+  H295  1  0.92370317  0.57928965  0.22331112  1
  H+  H296  1  0.97991607  0.79102140  0.62225709  1
  H+  H297  1  0.31394587  0.77933482  0.61963246  1
  H+  H298  1  0.83674504  0.92540079  0.06824423  1
  H+  H299  1  0.96116865  0.61547542  0.31937806  1
  H+  H300  1  0.90476914  0.07986510  0.23367490  1
  H+  H301  1  0.60078297  0.18364048  0.41330322  1
  H+  H302  1  0.84344512  0.92824350  0.72738030  1
  H+  H303  1  0.41895608  0.08464381  0.92611878  1
  H+  H304  1  0.88601680  0.11447865  0.32982663  1
  H+  H305  1  0.64893734  0.07423947  0.56760751  1
  H+  H306  1  0.90763838  0.58806967  0.56454091  1
  H+  H307  1  0.91256748  0.34677001  0.57217080  1
  H+  H308  1  0.55290228  0.65337151  0.82296271  1
  H+  H309  1  0.32025615  0.40922922  0.77058899  1
  H+  H310  1  0.65129586  0.57369460  0.92297518  1
  H+  H311  1  0.65641704  0.83849923  0.23092504  1
  H+  H312  1  0.66029992  0.34357582  0.54835536  1
  H+  H313  1  0.16594163  0.83098862  0.23521959  1
  H+  H314  1  0.65815639  0.08278852  0.23184425  1
  H+  H315  1  0.83365240  0.17578163  0.39851040  1
  H+  H316  1  0.17363818  0.07634940  0.89349986  1
  H+  H317  1  0.14155795  0.77896568  0.17192885  1
  H+  H318  1  0.72335089  0.13368666  0.65947196  1
  H+  H319  1  0.58989263  0.67474846  0.72447432  1
  H+  H320  1  0.56584005  0.18063379  0.07722438  1
  H+  H321  1  0.11951445  0.21351992  0.31356774  1
  H+  H322  1  0.81667467  0.90724013  0.39486872  1
  H+  H323  1  0.44038320  0.09360387  0.27724980  1
  H+  H324  1  0.78744227  0.62831728  0.08141476  1
  H+  H325  1  0.15068805  0.77155211  0.83474458  1
  H+  H326  1  0.18701391  0.88550803  0.60614807  1
  H+  H327  1  0.36134975  0.47763186  0.67761601  1
  H+  H328  1  0.38457575  0.07607208  0.59287529  1
  H+  H329  1  0.83831022  0.67226976  0.41683011  1
  H+  H330  1  0.92917683  0.85197616  0.89751193  1
  H+  H331  1  0.23067455  0.61513303  0.49467689  1
  H+  H332  1  0.80198417  0.41069983  0.69885584  1
  H+  H333  1  0.56072487  0.42127590  0.10993985  1
  H+  H334  1  0.07992419  0.89779445  0.40233240  1
  H+  H335  1  0.02445409  0.82221369  0.05979490  1
  H+  H336  1  0.97050047  0.86286842  0.16651086  1
  H+  H337  1  0.57660379  0.40381856  0.72803616  1
  H+  H338  1  0.78105091  0.89254126  0.00661266  1
  H+  H339  1  0.22706518  0.61178589  0.34746831  1
  H+  H340  1  0.35275016  0.20803041  0.00446345  1
  H+  H341  1  0.11035853  0.41084426  0.66527121  1
  H+  H342  1  0.97121791  0.85748828  0.33496283  1
  H+  H343  1  0.60870955  0.88859428  0.38118428  1
  H+  H344  1  0.46124727  0.63007880  0.94387042  1
  H+  H345  1  0.09263006  0.93110017  0.11833980  1
  H+  H346  1  0.47990991  0.37695328  0.33974128  1
  H+  H347  1  0.08889119  0.41907792  0.10050959  1
  H+  H348  1  0.77571823  0.40179624  0.48684190  1
  H+  H349  1  0.10542977  0.68061483  0.72253605  1
  H+  H350  1  0.89276815  0.08424349  0.94022841  1
  H+  H351  1  0.35482321  0.54872892  0.91794245  1
  H+  H352  1  0.16390352  0.83073341  0.93194483  1
  H+  H353  1  0.13870089  0.92907095  0.67964060  1
  H+  H354  1  0.31801179  0.15699255  0.10616218  1
  H+  H355  1  0.16378157  0.35854260  0.60995172  1
  H+  H356  1  0.22962301  0.53703913  0.87188771  1
  H+  H357  1  0.05949715  0.10199087  0.39062268  1
  H+  H358  1  0.42426321  0.05174596  0.26074598  1
  H+  H359  1  0.79065821  0.02941127  0.87335439  1
  H+  H360  1  0.92955735  0.33411086  0.90023881  1
  H+  H361  1  0.17417194  0.58030960  0.93900977  1
  H+  H362  1  0.54761610  0.91050400  0.04728841  1
  H+  H363  1  0.11865032  0.46354435  0.82263334  1
  H+  H364  1  0.42604326  0.82068876  0.25719777  1
  H+  H365  1  0.64653216  0.26936114  0.64070355  1
  H+  H366  1  0.59927385  0.93161243  0.77333734  1
  H+  H367  1  0.40132556  0.57223129  0.26768961  1
  H+  H368  1  0.51326808  0.22160039  0.05265733  1
  H+  H369  1  1.01072171  0.41173378  0.65990990  1
  H+  H370  1  0.08960838  0.91315053  0.75389933  1
  H+  H371  1  0.93860692  0.60205367  0.92824885  1
  H+  H372  1  0.91202535  0.07492859  0.57855355  1
  H+  H373  1  0.47732851  0.44699550  0.03448468  1
  H+  H374  1  0.84642954  0.68645083  0.76736285  1
  H+  H375  1  0.84044595  0.42743102  0.39584487  1
  H+  H376  1  0.84766112  0.17917888  0.75367623  1
  H+  H377  1  0.40817299  0.30586979  0.92589364  1
  H+  H378  1  0.35529748  0.92674116  0.74048578  1
  H+  H379  1  0.79479416  0.59076649  0.08344027  1
  H+  H380  1  0.84467687  0.41485096  0.78529994  1
  H+  H381  1  1.03711075  0.09156739  0.61592181  1
  H+  H382  1  0.11819510  0.64961486  0.50200416  1
  H+  H383  1  0.17153689  0.58319257  0.22269168  1
  O2-  O384  1  0.08086395  0.17757218  0.15319931  1
  O2-  O385  1  0.04059603  0.06877297  0.42866484  1
  O2-  O386  1  0.06777536  0.15440576  0.84033348  1
  O2-  O387  1  0.08530700  0.42063360  0.14621918  1
  O2-  O388  1  0.07698838  0.41988720  0.48083604  1
  O2-  O389  1  0.08234270  0.40451912  0.80683561  1
  O2-  O390  1  0.09085649  0.67704008  0.14248082  1
  O2-  O391  1  0.09236471  0.68696835  0.49959378  1
  O2-  O392  1  0.09722997  0.66652657  0.80394135  1
  O2-  O393  1  0.09068228  0.92936752  0.16302296  1
  O2-  O394  1  0.08231607  0.90392368  0.48078342  1
  O2-  O395  1  0.09100007  0.90480060  0.81188730  1
  O2-  O396  1  0.32244165  0.15362263  0.15115009  1
  O2-  O397  1  0.30466035  0.12282334  0.45660228  1
  O2-  O398  1  0.32872348  0.15804373  0.79912241  1
  O2-  O399  1  0.33795952  0.41151845  0.15192542  1
  O2-  O400  1  0.32577506  0.41735438  0.48396933  1
  O2-  O401  1  0.31099080  0.39432366  0.81500410  1
  O2-  O402  1  0.33743896  0.67062527  0.13752104  1
  O2-  O403  1  0.33483457  0.66433252  0.47380749  1
  O2-  O404  1  0.32736333  0.71114610  0.84655688  1
  O2-  O405  1  0.33967507  0.92216006  0.18349322  1
  O2-  O406  1  0.35039861  0.91138056  0.52394066  1
  O2-  O407  1  0.34277250  0.91603343  0.81386775  1
  O2-  O408  1  0.57428040  0.15877875  0.14949384  1
  O2-  O409  1  0.57387268  0.16818683  0.50298023  1
  O2-  O410  1  0.59033091  0.17082897  0.79134070  1
  O2-  O411  1  0.57038253  0.41395511  0.15342710  1
  O2-  O412  1  0.56832820  0.43104562  0.47411844  1
  O2-  O413  1  0.57566154  0.40016243  0.81192706  1
  O2-  O414  1  0.60976367  0.68681427  0.14677159  1
  O2-  O415  1  0.56066815  0.65367077  0.48140648  1
  O2-  O416  1  0.60913075  0.68079104  0.80337324  1
  O2-  O417  1  0.57376447  0.91475904  0.13794313  1
  O2-  O418  1  0.59589383  0.91222467  0.45928647  1
  O2-  O419  1  0.60857276  0.93279736  0.81945978  1
  O2-  O420  1  0.82770065  0.16891972  0.15270981  1
  O2-  O421  1  0.82546419  0.16794219  0.50745256  1
  O2-  O422  1  0.84588651  0.18295138  0.79828552  1
  O2-  O423  1  0.79368020  0.35885434  0.11150208  1
  O2-  O424  1  0.83840992  0.43216866  0.47712837  1
  O2-  O425  1  0.84049711  0.42074692  0.82891063  1
  O2-  O426  1  0.83185110  0.66767234  0.20007136  1
  O2-  O427  1  0.84312831  0.67586589  0.47035612  1
  O2-  O428  1  0.85329676  0.68363507  0.81215092  1
  O2-  O429  1  0.83152887  0.92316188  0.14574765  1
  O2-  O430  1  0.82741091  0.90821836  0.47084200  1
  O2-  O431  1  0.85100272  0.92689659  0.80316187  1
  O2-  O432  1  0.15452746  0.09334575  0.20949629  1
  O2-  O433  1  0.15109858  0.06886017  0.50536871  1
  O2-  O434  1  0.17431201  0.07894066  0.84811164  1
  O2-  O435  1  0.16963528  0.33981637  0.18529975  1
  O2-  O436  1  0.16890292  0.35182562  0.53006830  1
  O2-  O437  1  0.14572212  0.31318958  0.83414484  1
  O2-  O438  1  0.16785415  0.58311958  0.17850797  1
  O2-  O439  1  0.16962824  0.58949310  0.50905203  1
  O2-  O440  1  0.19069080  0.56055067  0.86223991  1
  O2-  O441  1  0.17172075  0.83847915  0.18954561  1
  O2-  O442  1  0.17429122  0.84295328  0.53833657  1
  O2-  O443  1  0.17590652  0.83108951  0.85082959  1
  O2-  O444  1  0.40553598  0.06377354  0.13806966  1
  O2-  O445  1  0.40694992  0.08128829  0.51776155  1
  O2-  O446  1  0.42798662  0.08661658  0.84382780  1
  O2-  O447  1  0.40733048  0.31946645  0.19726065  1
  O2-  O448  1  0.41020381  0.33656225  0.52115980  1
  O2-  O449  1  0.39932197  0.31468641  0.84467887  1
  O2-  O450  1  0.40032138  0.57359962  0.19814937  1
  O2-  O451  1  0.40544758  0.57804142  0.52485139  1
  O2-  O452  1  0.32141406  0.52766121  0.87583885  1
  O2-  O453  1  0.41645032  0.83232684  0.18190277  1
  O2-  O454  1  0.43484672  0.82668385  0.50691205  1
  O2-  O455  1  0.39191851  0.88073250  0.83024158  1
  O2-  O456  1  0.65791269  0.07940159  0.18611895  1
  O2-  O457  1  0.65446151  0.07419059  0.52273527  1
  O2-  O458  1  0.69096059  0.10913986  0.83829598  1
  O2-  O459  1  0.64819705  0.31934588  0.19286953  1
  O2-  O460  1  0.66668496  0.35342460  0.50344872  1
  O2-  O461  1  0.66235542  0.32850133  0.85261351  1
  O2-  O462  1  0.66048456  0.57844503  0.20101168  1
  O2-  O463  1  0.63854803  0.58500566  0.51800498  1
  O2-  O464  1  0.68767058  0.59331154  0.83603162  1
  O2-  O465  1  0.66455010  0.84185439  0.18652614  1
  O2-  O466  1  0.68162805  0.84633907  0.52386692  1
  O2-  O467  1  0.69131806  0.84572560  0.84849959  1
  O2-  O468  1  0.90884617  0.08467932  0.18856586  1
  O2-  O469  1  0.91358948  0.06971748  0.49898355  1
  O2-  O470  1  0.85207834  0.06038443  0.86449052  1
  O2-  O471  1  0.91505085  0.33450210  0.19040363  1
  O2-  O472  1  0.91163604  0.34418071  0.52686079  1
  O2-  O473  1  0.92327312  0.33911733  0.85458610  1
  O2-  O474  1  0.93021401  0.58988458  0.17912491  1
  O2-  O475  1  0.91358766  0.59061789  0.52044988  1
  O2-  O476  1  0.93534427  0.59529162  0.84463140  1
  O2-  O477  1  0.90993194  0.83157640  0.15359622  1
  O2-  O478  1  0.92103890  0.83406940  0.51087733  1
  O2-  O479  1  0.93415229  0.84807684  0.85183629  1
  O2-  O480  1  0.20423531  0.06766108  0.34802448  1
  O2-  O481  1  0.10815623  0.01789364  0.70939968  1
  O2-  O482  1  0.16538538  0.07767639  0.97242068  1
  O2-  O483  1  0.16438656  0.32373082  0.31138556  1
  O2-  O484  1  0.15733259  0.36334994  0.65435828  1
  O2-  O485  1  0.21128324  0.35101182  0.99165800  1
  O2-  O486  1  0.16225527  0.58052982  0.35176721  1
  O2-  O487  1  0.17562133  0.59865338  0.63196827  1
  O2-  O488  1  0.17428478  0.58845874  0.98381027  1
  O2-  O489  1  0.16113921  0.82196507  0.30916607  1
  O2-  O490  1  0.20484924  0.91969034  0.64536704  1
  O2-  O491  1  0.16060660  0.83097332  0.97704314  1
  O2-  O492  1  0.45189653  0.19429052  0.35583908  1
  O2-  O493  1  0.36051049  0.06565742  0.63525666  1
  O2-  O494  1  0.40978731  0.07933810  0.97092973  1
  O2-  O495  1  0.41400237  0.33764295  0.32420471  1
  O2-  O496  1  0.40516827  0.32673054  0.64320653  1
  O2-  O497  1  0.41620486  0.29310681  0.96822384  1
  O2-  O498  1  0.40121749  0.57060909  0.31462081  1
  O2-  O499  1  0.41386692  0.57634960  0.64646095  1
  O2-  O500  1  0.41313107  0.59327267  0.97018985  1
  O2-  O501  1  0.42827483  0.81512610  0.30254947  1
  O2-  O502  1  0.37486358  0.81722555  0.62808856  1
  O2-  O503  1  0.38988334  0.83187886  0.95080169  1
  O2-  O504  1  0.66088030  0.09460563  0.30849677  1
  O2-  O505  1  0.65995986  0.10415741  0.65134667  1
  O2-  O506  1  0.68912235  0.07461164  1.00794543  1
  O2-  O507  1  0.66682421  0.34722855  0.31597763  1
  O2-  O508  1  0.65864315  0.32607655  0.62527317  1
  O2-  O509  1  0.65761023  0.33515159  0.97161009  1
  O2-  O510  1  0.64513118  0.58204157  0.32378918  1
  O2-  O511  1  0.65553934  0.57859557  0.64235465  1
  O2-  O512  1  0.65609487  0.57800332  0.96741367  1
  O2-  O513  1  0.64545442  0.83098663  0.31976294  1
  O2-  O514  1  0.66224687  0.84654051  0.64825972  1
  O2-  O515  1  0.68675241  0.83390169  0.97701903  1
  O2-  O516  1  0.90721910  0.07678216  0.31320163  1
  O2-  O517  1  0.91453041  0.08401010  0.62351442  1
  O2-  O518  1  0.91094656  0.09271948  0.98356579  1
  O2-  O519  1  0.91273419  0.33457235  0.31218718  1
  O2-  O520  1  0.92041399  0.36295885  0.65129719  1
  O2-  O521  1  0.94342718  0.34553813  0.97267805  1
  O2-  O522  1  0.89765851  0.58732304  0.30800064  1
  O2-  O523  1  0.91791745  0.59390247  0.67588568  1
  O2-  O524  1  0.92951605  0.59968797  0.97271975  1
  O2-  O525  1  0.90969494  0.82299410  0.32271025  1
  O2-  O526  1  0.94929831  0.82008273  0.63596844  1
  O2-  O527  1  0.91890222  0.85017927  0.97155576  1
  O2-  O528  1  0.08289444  0.17226286  -0.03944195  1
  O2-  O529  1  0.09072511  0.14928305  0.31514671  1
  O2-  O530  1  0.08758723  0.08515377  0.61012038  1
  O2-  O531  1  0.10285832  0.42167214  0.02467310  1
  O2-  O532  1  0.07759838  0.40414897  0.35629525  1
  O2-  O533  1  0.07813789  0.44543380  0.67060833  1
  O2-  O534  1  0.09176252  0.67207300  0.01951093  1
  O2-  O535  1  0.05725399  0.65682575  0.33780876  1
  O2-  O536  1  0.10629291  0.68578053  0.67755741  1
  O2-  O537  1  0.06037208  0.87474312  0.03687231  1
  O2-  O538  1  0.08070893  0.90175389  0.35700373  1
  O2-  O539  1  0.08719113  0.92754854  0.70349077  1
  O2-  O540  1  0.31775729  0.14910571  0.02376700  1
  O2-  O541  1  0.35651848  0.21415120  0.43821823  1
  O2-  O542  1  0.32736085  0.17301338  0.68671733  1
  O2-  O543  1  0.37852602  0.44693390  0.03103648  1
  O2-  O544  1  0.32401021  0.41279441  0.36179058  1
  O2-  O545  1  0.32558787  0.41759296  0.69391705  1
  O2-  O546  1  0.34065197  0.67416130  0.01318482  1
  O2-  O547  1  0.33208725  0.65840774  0.35321615  1
  O2-  O548  1  0.33405656  0.65539709  0.68649317  1
  O2-  O549  1  0.33003450  0.91233418  0.01334401  1
  O2-  O550  1  0.30469355  0.83649910  0.36282719  1
  O2-  O551  1  0.35396407  0.92951834  0.69424265  1
  O2-  O552  1  0.54851454  0.19790300  0.03831183  1
  O2-  O553  1  0.59376238  0.18833320  0.36971386  1
  O2-  O554  1  0.63380695  0.16712914  0.66921762  1
  O2-  O555  1  0.52722491  0.43692749  0.03301328  1
  O2-  O556  1  0.56549518  0.42840905  0.36044826  1
  O2-  O557  1  0.57477928  0.40745070  0.68314269  1
  O2-  O558  1  0.58492189  0.66595148  0.02081329  1
  O2-  O559  1  0.56409271  0.66154655  0.36222808  1
  O2-  O560  1  0.58289792  0.67311184  0.67959611  1
  O2-  O561  1  0.55047264  0.92442422  0.00387272  1
  O2-  O562  1  0.60522236  0.88263335  0.33586491  1
  O2-  O563  1  0.58907503  0.93317976  0.70262129  1
  O2-  O564  1  0.85045807  0.19280772  0.02982347  1
  O2-  O565  1  0.83604623  0.17236238  0.35438504  1
  O2-  O566  1  0.83652054  0.16843838  0.66377517  1
  O2-  O567  1  0.85315365  0.42159080  -0.01251203  1
  O2-  O568  1  0.83656471  0.42584563  0.35076241  1
  O2-  O569  1  0.82552174  0.42677493  0.65788717  1
  O2-  O570  1  0.82458533  0.67168425  -0.03630314  1
  O2-  O571  1  0.82970971  0.66898728  0.36071550  1
  O2-  O572  1  0.82113072  0.67059762  0.68917883  1
  O2-  O573  1  0.84172003  0.92894653  0.02269174  1
  O2-  O574  1  0.81251760  0.90700805  0.34928320  1
  O2-  O575  1  0.83388958  0.92460979  0.68191536  1
