# generated using pymatgen
data_H2O
_symmetry_space_group_name_H-M   'P 1'
_cell_length_a   17.99282954
_cell_length_b   17.98682636
_cell_length_c   21.99033954
_cell_angle_alpha   89.97874884
_cell_angle_beta   89.98048525
_cell_angle_gamma   120.02784686
_symmetry_Int_Tables_number   1
_chemical_formula_structural   H2O
_chemical_formula_sum   'H384 O192'
_cell_volume   6161.61461390
_cell_formula_units_Z   192
loop_
 _symmetry_equiv_pos_site_id
 _symmetry_equiv_pos_as_xyz
  1  'x, y, z'
loop_
 _atom_type_symbol
 _atom_type_oxidation_number
  H+  1.0
  O2-  -2.0
loop_
 _atom_site_type_symbol
 _atom_site_label
 _atom_site_symmetry_multiplicity
 _atom_site_fract_x
 _atom_site_fract_y
 _atom_site_fract_z
 _atom_site_occupancy
  H+  H0  1  0.46475290  0.59699620  0.65796061  1
  H+  H1  1  0.36949576  0.27716111  0.32799322  1
  H+  H2  1  0.59522330  0.71354640  0.66941030  1
  H+  H3  1  0.62517882  0.10277323  -0.00207435  1
  H+  H4  1  0.25619131  0.61253861  0.50766321  1
  H+  H5  1  0.02534207  0.64968830  0.02353795  1
  H+  H6  1  0.64083678  0.37420526  0.66360244  1
  H+  H7  1  0.46778468  0.35479156  0.43079302  1
  H+  H8  1  0.88017109  0.76774963  0.31840639  1
  H+  H9  1  0.12554080  0.59007739  0.50089545  1
  H+  H10  1  0.36279650  0.22204961  0.47307079  1
  H+  H11  1  0.08425777  0.21345557  0.68822876  1
  H+  H12  1  0.38851354  0.61177302  0.84860521  1
  H+  H13  1  0.85162725  0.86372015  0.66901103  1
  H+  H14  1  0.86635881  0.13423846  0.32555392  1
  H+  H15  1  0.63106975  0.38935250  0.00371516  1
  H+  H16  1  0.77743895  0.89423377  0.33209614  1
  H+  H17  1  0.08784276  0.91952805  0.78840471  1
  H+  H18  1  0.63867977  0.62749230  0.18145615  1
  H+  H19  1  0.72804364  0.36280738  0.51250213  1
  H+  H20  1  0.38435599  0.52329657  0.15052078  1
  H+  H21  1  0.63544709  0.77482137  0.83057195  1
  H+  H22  1  0.62550035  0.10391647  0.52192741  1
  H+  H23  1  0.89074148  0.27394447  0.18451882  1
  H+  H24  1  0.19994269  0.31374636  0.50334573  1
  H+  H25  1  0.36273058  0.38068651  0.68460859  1
  H+  H26  1  0.92581752  1.11482094  -0.05830444  1
  H+  H27  1  0.35787450  0.96301543  0.67535893  1
  H+  H28  1  0.09992874  0.47001301  0.03149731  1
  H+  H29  1  0.11696552  0.61916743  0.33475705  1
  H+  H30  1  0.36117627  0.98491028  0.00846781  1
  H+  H31  1  0.61345223  0.63750778  0.82337238  1
  H+  H32  1  0.78348384  0.40198261  0.82847110  1
  H+  H33  1  0.12981271  0.54902291  0.59363671  1
  H+  H34  1  0.38179352  0.79198868  0.99227609  1
  H+  H35  1  0.15006682  0.03430111  0.84828545  1
  H+  H36  1  0.16807297  0.14197980  0.99665208  1
  H+  H37  1  0.11576683  0.90047133  0.45415194  1
  H+  H38  1  0.64343251  0.12590563  0.33649073  1
  H+  H39  1  0.49285113  0.36222996  0.99252491  1
  H+  H40  1  0.88031635  0.60126987  0.85424474  1
  H+  H41  1  0.29967851  0.89296109  0.33141086  1
  H+  H42  1  0.97453002  0.08702563  1.02311479  1
  H+  H43  1  0.87642607  0.61171620  0.66151564  1
  H+  H44  1  0.27484781  0.60808080  0.15947282  1
  H+  H45  1  0.60850782  0.09503006  0.85038964  1
  H+  H46  1  0.22470019  0.34386262  0.67649184  1
  H+  H47  1  0.33937755  0.65784309  -0.02289240  1
  H+  H48  1  0.92489667  0.80033459  0.15119826  1
  H+  H49  1  0.74202227  0.35565041  0.99504523  1
  H+  H50  1  0.12844948  0.62981535  1.01322917  1
  H+  H51  1  0.37840426  0.14056561  0.82959031  1
  H+  H52  1  0.23830151  0.12314209  0.84313215  1
  H+  H53  1  0.48653275  0.61707119  0.35729170  1
  H+  H54  1  0.83799358  0.40179530  0.09112497  1
  H+  H55  1  0.73909291  0.62464154  0.32483186  1
  H+  H56  1  0.61117552  0.22524695  0.50665738  1
  H+  H57  1  0.23626040  0.88037137  0.45220427  1
  H+  H58  1  0.13608183  0.28331223  0.31474164  1
  H+  H59  1  -0.01643324  0.87533196  0.85747887  1
  H+  H60  1  0.11106273  0.74379906  1.01150698  1
  H+  H61  1  0.84724661  0.69185878  0.72454848  1
  H+  H62  1  0.86955639  0.89522007  0.84081377  1
  H+  H63  1  0.73890373  0.61408621  0.99037027  1
  H+  H64  1  0.61595510  -0.00762305  0.16705849  1
  H+  H65  1  0.62131739  0.85085861  0.66611234  1
  H+  H66  1  0.63941562  0.52555084  0.49409293  1
  H+  H67  1  0.13001088  0.76680865  0.84801882  1
  H+  H68  1  0.88734721  0.03049249  0.31931841  1
  H+  H69  1  0.14053932  0.88481026  0.18352936  1
  H+  H70  1  0.09305632  0.89809882  0.31008407  1
  H+  H71  1  0.12754607  0.17158997  0.49106781  1
  H+  H72  1  0.22695008  0.11714838  0.31243479  1
  H+  H73  1  0.39496438  0.86032567  0.32713991  1
  H+  H74  1  0.77667078  0.13762402  0.33527724  1
  H+  H75  1  0.76396903  0.14532321  0.83256222  1
  H+  H76  1  0.61207259  0.98114499  0.50662001  1
  H+  H77  1  0.36708443  0.36661041  0.00728136  1
  H+  H78  1  0.37921029  0.02861737  0.16370617  1
  H+  H79  1  0.17383669  0.83956789  0.35441246  1
  H+  H80  1  0.40580011  0.81789459  0.26712210  1
  H+  H81  1  0.87762924  0.12554749  0.47843289  1
  H+  H82  1  0.84734966  0.47446695  0.67643265  1
  H+  H83  1  0.61555712  0.48571836  0.82864848  1
  H+  H84  1  0.58056695  0.10417524  0.70209917  1
  H+  H85  1  0.26705924  0.40725967  0.15381679  1
  H+  H86  1  0.58704064  0.92641514  0.25879801  1
  H+  H87  1  0.72244057  0.61045660  0.17789236  1
  H+  H88  1  0.42236887  0.84342120  0.90423119  1
  H+  H89  1  0.88141935  0.03244688  0.84788520  1
  H+  H90  1  0.35285153  0.62463280  0.68650533  1
  H+  H91  1  0.86624536  0.63228238  1.01739607  1
  H+  H92  1  0.13815087  0.87817717  0.99414412  1
  H+  H93  1  0.70648931  0.84319367  0.66117779  1
  H+  H94  1  0.88179292  0.35798996  0.17474051  1
  H+  H95  1  0.36585162  0.14195639  0.32893063  1
  H+  H96  1  0.89430683  0.77378668  0.00206025  1
  H+  H97  1  0.87144403  0.13298498  0.17480585  1
  H+  H98  1  0.88136468  0.28047025  0.85516023  1
  H+  H99  1  0.63745243  0.80884276  0.56738871  1
  H+  H100  1  0.85485983  0.92852726  1.05775578  1
  H+  H101  1  0.93549799  0.59521828  0.51696707  1
  H+  H102  1  0.06141267  0.11745255  0.68979990  1
  H+  H103  1  0.52309909  0.14085543  0.00815803  1
  H+  H104  1  0.14341141  0.39559500  0.16991629  1
  H+  H105  1  0.22590670  0.87466605  -0.00544226  1
  H+  H106  1  0.04169599  0.93467786  0.15497847  1
  H+  H107  1  0.38915205  0.86141311  0.84229472  1
  H+  H108  1  0.39330866  0.85121724  0.66701651  1
  H+  H109  1  0.72376733  0.86319731  0.83974955  1
  H+  H110  1  0.78148865  0.80940990  0.71714368  1
  H+  H111  1  0.46232372  0.60280409  0.42378977  1
  H+  H112  1  0.87343651  0.74066408  0.66045128  1
  H+  H113  1  0.65029754  0.61477840  -0.00822164  1
  H+  H114  1  0.27769432  0.86780005  0.68363169  1
  H+  H115  1  0.34787134  0.36936530  0.48883572  1
  H+  H116  1  0.53940548  0.62908928  0.00468777  1
  H+  H117  1  0.22319435  0.37284834  0.32684565  1
  H+  H118  1  0.21385567  0.62456919  1.01227214  1
  H+  H119  1  0.60817537  -0.02440319  1.01759181  1
  H+  H120  1  0.86799666  0.63586070  0.33681051  1
  H+  H121  1  -0.02362418  0.86084949  0.49059931  1
  H+  H122  1  0.47912772  0.61386302  0.83939687  1
  H+  H123  1  0.88805885  0.34103903  0.47834009  1
  H+  H124  1  0.36404429  0.72011438  0.35573844  1
  H+  H125  1  0.88485622  0.98343847  0.48393460  1
  H+  H126  1  0.52078858  0.88551497  0.31190414  1
  H+  H127  1  0.14687125  0.28367024  0.85178509  1
  H+  H128  1  0.52729608  0.14844099  0.15915442  1
  H+  H129  1  0.97038983  0.04270670  0.20689556  1
  H+  H130  1  0.42215863  0.08487088  0.93520334  1
  H+  H131  1  0.64990530  0.63127629  0.32840967  1
  H+  H132  1  0.86623967  0.38872974  0.82586071  1
  H+  H133  1  0.61854867  0.23636824  0.16400053  1
  H+  H134  1  0.10243145  0.35671165  0.48972165  1
  H+  H135  1  0.37128914  0.63730670  0.37196416  1
  H+  H136  1  0.14100620  0.81722625  0.71513193  1
  H+  H137  1  0.91825561  0.56893555  1.07456257  1
  H+  H138  1  0.88821741  0.27816062  0.32832457  1
  H+  H139  1  0.96828289  0.12194391  0.85061501  1
  H+  H140  1  0.38086415  0.10112821  0.66150960  1
  H+  H141  1  0.62293153  0.48800860  0.67163330  1
  H+  H142  1  0.40054073  0.58416723  0.99839980  1
  H+  H143  1  0.37810665  0.23044531  0.83051804  1
  H+  H144  1  0.59741013  0.62892816  0.48618656  1
  H+  H145  1  0.61713203  0.84769957  0.50954791  1
  H+  H146  1  0.97739561  0.34222429  0.48806066  1
  H+  H147  1  0.72615413  0.86855956  0.16590380  1
  H+  H148  1  0.34962799  0.58463659  0.51600996  1
  H+  H149  1  0.38915776  0.78233083  0.50772918  1
  H+  H150  1  0.62698113  0.73769092  0.33523265  1
  H+  H151  1  0.89072682  0.86670479  0.49130088  1
  H+  H152  1  0.15284694  0.37424624  0.85870916  1
  H+  H153  1  0.67352428  0.83574325  0.25918924  1
  H+  H154  1  0.41865341  0.66423125  0.13071048  1
  H+  H155  1  0.11295430  0.38341835  0.33628332  1
  H+  H156  1  0.13098843  0.03679778  0.47662812  1
  H+  H157  1  0.64207194  0.86841978  0.31402423  1
  H+  H158  1  0.85846974  0.72480088  0.48703557  1
  H+  H159  1  0.49208538  0.10029759  0.69058772  1
  H+  H160  1  0.11403408  0.15291385  0.31603846  1
  H+  H161  1  0.47434672  0.11439685  0.51048334  1
  H+  H162  1  0.14360869  0.81693886  0.64434008  1
  H+  H163  1  0.94523526  0.10864153  0.66368169  1
  H+  H164  1  0.37727640  0.37899535  0.17728020  1
  H+  H165  1  0.05428230  0.65975697  0.47908761  1
  H+  H166  1  0.86463494  0.46716763  0.14890710  1
  H+  H167  1  0.27215114  0.63635754  0.84957491  1
  H+  H168  1  0.85237891  0.40152131  0.52579107  1
  H+  H169  1  0.61541737  0.88678628  0.82737298  1
  H+  H170  1  0.86278003  0.59585200  0.16748024  1
  H+  H171  1  1.02419603  0.14964596  0.31994742  1
  H+  H172  1  0.69458098  0.46890040  0.42641666  1
  H+  H173  1  0.36222457  0.72383668  0.84253149  1
  H+  H174  1  0.88508938  0.51687140  0.84349109  1
  H+  H175  1  0.59188272  0.71524939  0.49062555  1
  H+  H176  1  0.62769107  0.47716167  -0.00072800  1
  H+  H177  1  0.14073403  0.51442180  0.33198460  1
  H+  H178  1  0.87112670  0.26146312  0.64823096  1
  H+  H179  1  0.27884993  0.38651817  0.83441829  1
  H+  H180  1  0.13180316  0.03594496  0.30301029  1
  H+  H181  1  0.38646126  0.29646165  0.17636466  1
  H+  H182  1  0.60330776  0.62890214  0.66585477  1
  H+  H183  1  0.13219863  0.61444899  0.86148230  1
  H+  H184  1  0.89126205  0.75296955  0.82824579  1
  H+  H185  1  0.84029840  0.86828537  0.15377337  1
  H+  H186  1  0.47610103  0.86453339  0.48643908  1
  H+  H187  1  0.09346641  0.57021816  0.66123643  1
  H+  H188  1  0.97724371  0.60588589  0.32123361  1
  H+  H189  1  0.29977032  0.15940302  0.68192449  1
  H+  H190  1  0.52521240  0.88542631  0.83026175  1
  H+  H191  1  0.48383189  0.36686356  0.83854008  1
  H+  H192  1  0.09883145  0.47648544  0.65157249  1
  H+  H193  1  0.58026545  0.92682539  0.10996519  1
  H+  H194  1  0.11645283  0.48706821  0.86256333  1
  H+  H195  1  0.09249485  0.68161175  0.68427493  1
  H+  H196  1  0.85022781  0.49285830  0.50901540  1
  H+  H197  1  0.39958768  0.78795185  0.16224723  1
  H+  H198  1  -0.02811409  0.36646168  0.86312511  1
  H+  H199  1  0.39711545  1.01773663  0.83830209  1
  H+  H200  1  0.15654083  0.04635154  0.15781363  1
  H+  H201  1  0.26745843  0.89252729  0.16600756  1
  H+  H202  1  0.89173455  0.86415203  0.99848453  1
  H+  H203  1  0.91425499  0.34123876  0.27168135  1
  H+  H204  1  0.86272356  0.24566938  0.02763866  1
  H+  H205  1  0.40693881  0.02377703  0.31797577  1
  H+  H206  1  0.37403424  0.23064064  0.00197915  1
  H+  H207  1  0.70288606  0.10596159  0.67510021  1
  H+  H208  1  0.27451504  0.88377069  0.83213369  1
  H+  H209  1  0.36878454  0.89213325  0.47615332  1
  H+  H210  1  0.84129257  0.91839253  0.77865202  1
  H+  H211  1  0.75318252  0.55729701  0.12896077  1
  H+  H212  1  0.36831846  0.15103837  0.15173998  1
  H+  H213  1  0.86840081  0.21293975  0.47523482  1
  H+  H214  1  0.25700114  0.14084697  0.15733267  1
  H+  H215  1  0.51763629  0.87152062  0.67803995  1
  H+  H216  1  0.85809882  0.02292631  0.64961105  1
  H+  H217  1  0.12409178  0.22234766  0.03910549  1
  H+  H218  1  0.47390594  0.35712785  0.50036785  1
  H+  H219  1  0.64898465  0.78181547  0.00471705  1
  H+  H220  1  0.86271036  0.88991313  0.32698296  1
  H+  H221  1  0.61973581  0.47530078  0.15726852  1
  H+  H222  1  0.52005995  0.88878163  0.01958097  1
  H+  H223  1  0.33006207  0.65732641  0.74659559  1
  H+  H224  1  0.73036017  0.37106339  0.33669428  1
  H+  H225  1  0.36939626  0.47522829  0.83159012  1
  H+  H226  1  0.83555156  0.72174691  0.16350088  1
  H+  H227  1  0.15184733  0.78970871  0.45370321  1
  H+  H228  1  0.93592187  0.70922353  0.79439389  1
  H+  H229  1  0.65823418  0.39509464  0.84792625  1
  H+  H230  1  0.78426603  0.13685589  0.17290111  1
  H+  H231  1  0.00812718  0.39322160  0.02964366  1
  H+  H232  1  -0.02087461  0.89478991  0.63355195  1
  H+  H233  1  0.53496875  0.15290996  0.35213746  1
  H+  H234  1  1.02128571  0.39934484  0.17444962  1
  H+  H235  1  0.12905786  0.97266471  0.60894263  1
  H+  H236  1  0.19748570  0.17071357  0.71627992  1
  H+  H237  1  0.61772982  0.73493205  0.15778502  1
  H+  H238  1  0.74775207  0.37930068  0.67202385  1
  H+  H239  1  0.84254811  0.15422815  0.41003038  1
  H+  H240  1  0.38311554  0.11017387  0.50445766  1
  H+  H241  1  0.13823448  0.33357962  0.64806430  1
  H+  H242  1  0.34663869  0.48498284  0.51575651  1
  H+  H243  1  0.38806418  0.76106970  0.67194064  1
  H+  H244  1  0.86322706  0.96805270  0.16337118  1
  H+  H245  1  0.91329538  0.15756394  1.00162523  1
  H+  H246  1  0.73215166  0.62085333  0.83866931  1
  H+  H247  1  0.62371342  0.24127533  0.35038171  1
  H+  H248  1  0.37038834  0.98354410  0.48582432  1
  H+  H249  1  0.38879265  0.88312617  0.99592592  1
  H+  H250  1  0.64566609  0.27389984  0.99371903  1
  H+  H251  1  0.38897303  0.11768717  0.99187159  1
  H+  H252  1  1.01013272  0.62526244  0.84117018  1
  H+  H253  1  0.72094133  0.61712187  0.49860015  1
  H+  H254  1  0.64581836  0.86805062  0.01391147  1
  H+  H255  1  0.48062646  0.75245023  0.09667413  1
  H+  H256  1  -0.01262235  0.10408091  0.13397386  1
  H+  H257  1  0.11688279  0.63356029  0.18501382  1
  H+  H258  1  0.73590595  0.35711555  0.17531084  1
  H+  H259  1  0.40892696  0.58816621  0.20732019  1
  H+  H260  1  0.32785104  0.41568356  0.09468690  1
  H+  H261  1  0.06564832  0.64141623  0.78083461  1
  H+  H262  1  0.53159560  0.64123052  0.15473789  1
  H+  H263  1  -0.00373867  0.60318169  0.67543209  1
  H+  H264  1  0.64519850  0.12802682  0.17383504  1
  H+  H265  1  0.67726189  0.59224786  0.90000482  1
  H+  H266  1  -0.00607945  0.13605715  0.50647455  1
  H+  H267  1  0.83911402  0.13595434  0.67778497  1
  H+  H268  1  0.10228329  0.49534379  0.17323534  1
  H+  H269  1  0.62893589  0.01982608  0.84081536  1
  H+  H270  1  0.25864920  0.57459349  0.13512049  1
  H+  H271  1  0.11237804  0.14272980  0.83936781  1
  H+  H272  1  0.28053415  0.14219540  0.00405719  1
  H+  H273  1  0.84467850  0.62861981  0.49411834  1
  H+  H274  1  1.00064238  0.34995233  0.64568619  1
  H+  H275  1  0.12709722  0.79061543  0.18467293  1
  H+  H276  1  0.13245550  0.05284511  0.64084317  1
  H+  H277  1  0.40452071  0.27536318  0.67201228  1
  H+  H278  1  0.26964596  0.13765937  0.48316980  1
  H+  H279  1  0.35071114  0.44289247  0.99742131  1
  H+  H280  1  0.12009020  0.49655481  0.50471559  1
  H+  H281  1  0.35555912  0.89001926  0.16201053  1
  H+  H282  1  0.60446029  0.37731135  0.36666063  1
  H+  H283  1  1.02540297  0.89721609  1.01116020  1
  H+  H284  1  0.12003164  0.88692552  0.84378597  1
  H+  H285  1  0.02335399  0.38569068  0.34147758  1
  H+  H286  1  0.88645269  0.52169129  0.32874586  1
  H+  H287  1  0.36208320  0.47798599  0.36742401  1
  H+  H288  1  0.82333370  0.41095215  0.73682558  1
  H+  H289  1  0.14271396  0.06982640  0.54250239  1
  H+  H290  1  0.58492493  0.17318615  0.06646957  1
  H+  H291  1  0.38677722  0.55166228  0.57910620  1
  H+  H292  1  0.30750509  0.39891882  0.43828710  1
  H+  H293  1  0.66928163  0.34094528  0.60394866  1
  H+  H294  1  0.57989149  0.90670711  0.73755705  1
  H+  H295  1  0.63621932  1.03420853  0.32019612  1
  H+  H296  1  0.72900127  0.62325162  0.65152976  1
  H+  H297  1  0.84882355  0.92540071  0.42460138  1
  H+  H298  1  0.18559875  0.10583479  0.22062484  1
  H+  H299  1  0.62104590  0.43393229  0.09258039  1
  H+  H300  1  0.89822491  0.50740671  1.01881744  1
  H+  H301  1  0.47563425  0.87910584  0.17610794  1
  H+  H302  1  0.40696100  0.08951955  0.22121004  1
  H+  H303  1  0.12316582  0.71089521  0.33065689  1
  H+  H304  1  0.48722619  0.08545417  0.27781352  1
  H+  H305  1  0.66698695  0.58454713  0.59322302  1
  H+  H306  1  0.91336701  0.07906847  0.25470288  1
  H+  H307  1  0.78764771  0.88988919  0.00571470  1
  H+  H308  1  0.65917396  0.37380675  0.17418465  1
  H+  H309  1  0.11084235  0.85511392  0.58024835  1
  H+  H310  1  0.32648372  0.15402431  0.39059180  1
  H+  H311  1  0.06468102  0.89436206  0.70590059  1
  H+  H312  1  0.03902616  0.84689037  0.71348961  1
  H+  H313  1  0.82110819  0.17511103  0.73802950  1
  H+  H314  1  0.35740840  0.93332995  0.39129553  1
  H+  H315  1  0.43197393  0.33360777  0.93295946  1
  H+  H316  1  0.21714019  0.28792402  1.01413807  1
  H+  H317  1  0.11360871  0.99120761  0.00885253  1
  H+  H318  1  0.06876060  0.92914959  0.40831163  1
  H+  H319  1  0.09827507  0.65735174  0.41764246  1
  H+  H320  1  0.00259748  0.89153470  0.31249601  1
  H+  H321  1  0.36075821  0.68745271  0.04800020  1
  H+  H322  1  0.39208258  0.36193521  0.84167984  1
  H+  H323  1  0.17796232  0.09507720  0.93871955  1
  H+  H324  1  0.65035599  0.06786950  0.94000343  1
  H+  H325  1  0.67271641  0.10219897  0.23605866  1
  H+  H326  1  0.62201565  0.00971989  0.67363034  1
  H+  H327  1  0.64068406  0.36129116  0.50288023  1
  H+  H328  1  0.59970433  0.67883373  0.39687314  1
  H+  H329  1  0.85232890  0.14470247  0.83270245  1
  H+  H330  1  0.83571969  0.41959348  0.40970095  1
  H+  H331  1  0.05862597  0.36839825  0.70564287  1
  H+  H332  1  0.08391290  0.39882991  0.42997865  1
  H+  H333  1  0.90854667  0.57399348  0.22344967  1
  H+  H334  1  0.91651729  0.84093452  0.58005585  1
  H+  H335  1  0.92034121  0.09298470  0.55881514  1
  H+  H336  1  0.51941170  0.11618530  0.78626344  1
  H+  H337  1  0.15887276  0.59229326  0.92624866  1
  H+  H338  1  0.59714473  0.66482468  0.06477916  1
  H+  H339  1  0.32298332  0.65154172  0.45233736  1
  H+  H340  1  0.89430883  0.35811611  0.95575920  1
  H+  H341  1  0.00808626  0.65497796  0.16405155  1
  H+  H342  1  0.08026945  0.69498101  0.11175159  1
  H+  H343  1  0.32925151  0.51366758  0.26993241  1
  H+  H344  1  0.32817411  0.92395642  0.06802193  1
  H+  H345  1  0.60606671  0.93634114  0.44239813  1
  H+  H346  1  0.53468715  0.39826231  0.67683897  1
  H+  H347  1  0.37611730  0.50714286  0.66694747  1
  H+  H348  1  0.89060005  0.80944608  0.25260599  1
  H+  H349  1  0.59188052  0.42731918  0.76935411  1
  H+  H350  1  0.06806413  0.16668444  0.78564580  1
  H+  H351  1  0.16439594  0.83165335  0.90552942  1
  H+  H352  1  0.19763325  0.21079820  0.65368758  1
  H+  H353  1  0.40477761  0.06884852  0.60017889  1
  H+  H354  1  0.88849133  0.56765824  0.60193095  1
  H+  H355  1  0.90408041  0.30267048  0.58113233  1
  H+  H356  1  0.33280296  0.41082800  0.74422704  1
  H+  H357  1  0.17725662  0.36017393  0.22303251  1
  H+  H358  1  0.23047413  0.60441383  0.33665073  1
  H+  H359  1  0.33469022  0.91163075  0.77220174  1
  H+  H360  1  0.40059355  0.34506176  0.27444399  1
  H+  H361  1  0.15063086  0.59815047  0.23957633  1
  H+  H362  1  0.30219962  0.53472289  0.26779281  1
  H+  H363  1  0.86352190  0.38846996  0.34921216  1
  H+  H364  1  0.09329535  0.93913241  0.09428467  1
  H+  H365  1  0.35098912  0.38536722  0.34944054  1
  H+  H366  1  0.15803568  0.88970089  0.58017116  1
  H+  H367  1  0.69197154  0.36534968  0.90639892  1
  H+  H368  1  0.63721073  0.87122312  0.17129643  1
  H+  H369  1  0.83612973  0.66657178  0.39598223  1
  H+  H370  1  0.35660136  0.17304458  0.74094462  1
  H+  H371  1  0.91847735  0.83350057  0.91300417  1
  H+  H372  1  0.64525023  0.06909755  0.58258798  1
  H+  H373  1  0.09420541  0.43771172  0.80113266  1
  H+  H374  1  0.58664478  0.17024695  0.44627323  1
  H+  H375  1  0.42172724  0.33212532  0.61278951  1
  H+  H376  1  0.57610543  0.65695954  0.76262414  1
  H+  H377  1  0.85245578  0.18212927  0.08063001  1
  H+  H378  1  0.34060574  0.18184667  0.09094847  1
  H+  H379  1  0.82087246  0.65228735  0.07059114  1
  H+  H380  1  0.67281041  0.59912177  0.25713467  1
  H+  H381  1  0.67195129  0.34157118  0.27690784  1
  H+  H382  1  0.42851911  0.57226624  0.93149480  1
  H+  H383  1  0.17547666  0.83835471  0.27822278  1
  O2-  O384  1  0.03337838  0.12893790  0.10035286  1
  O2-  O385  1  0.09629265  0.20329273  0.48190747  1
  O2-  O386  1  0.07946432  0.17221660  0.82976594  1
  O2-  O387  1  0.08157518  0.43483056  0.16119907  1
  O2-  O388  1  0.07876038  0.39361534  0.47629761  1
  O2-  O389  1  0.08794687  0.42693169  0.84467383  1
  O2-  O390  1  0.07101667  0.69528123  0.15669271  1
  O2-  O391  1  0.10815080  0.66696631  0.46363822  1
  O2-  O392  1  0.07119196  0.65786175  0.82402020  1
  O2-  O393  1  0.09831653  0.94712408  0.14124905  1
  O2-  O394  1  0.07995999  0.92860713  0.45243698  1
  O2-  O395  1  0.09287178  0.92298768  0.83272125  1
  O2-  O396  1  0.33917269  0.18315304  0.13746891  1
  O2-  O397  1  0.32929371  0.15864991  0.46795660  1
  O2-  O398  1  0.34707774  0.16958028  0.81447860  1
  O2-  O399  1  0.33063394  0.43260434  0.13822099  1
  O2-  O400  1  0.30680212  0.39038420  0.48484725  1
  O2-  O401  1  0.33999568  0.41449406  0.81711064  1
  O2-  O402  1  0.42103248  0.71553678  0.10905396  1
  O2-  O403  1  0.31826118  0.64000885  0.49732923  1
  O2-  O404  1  0.33091256  0.66119117  0.83201631  1
  O2-  O405  1  0.32620460  0.92153875  0.14769914  1
  O2-  O406  1  0.34276711  0.92815434  0.46258577  1
  O2-  O407  1  0.33511146  0.91466853  0.81792615  1
  O2-  O408  1  0.58855813  0.17591749  0.14743986  1
  O2-  O409  1  0.57872545  0.16499290  0.49115603  1
  O2-  O410  1  0.51770594  0.11639308  0.83396810  1
  O2-  O411  1  0.64564592  0.44698152  0.13480499  1
  O2-  O412  1  0.63760510  0.43709542  0.44564421  1
  O2-  O413  1  0.58607618  0.42492704  0.81451220  1
  O2-  O414  1  0.59396940  0.67380511  0.14400752  1
  O2-  O415  1  0.56894909  0.65842752  0.46778250  1
  O2-  O416  1  0.57890228  0.66271106  0.80787222  1
  O2-  O417  1  0.58149047  0.92960752  0.15672813  1
  O2-  O418  1  0.58616177  0.92281442  0.48419139  1
  O2-  O419  1  0.58439510  0.91809244  0.81329110  1
  O2-  O420  1  0.84662734  0.16858240  0.16315344  1
  O2-  O421  1  0.84332478  0.15170900  0.45932037  1
  O2-  O422  1  0.82432464  0.17728754  0.81738341  1
  O2-  O423  1  0.83372110  0.40562064  0.13732167  1
  O2-  O424  1  0.82765414  0.41833803  0.49272729  1
  O2-  O425  1  0.84021556  0.42045038  0.80580387  1
  O2-  O426  1  0.79464903  0.61674900  0.14170541  1
  O2-  O427  1  0.82323466  0.66392350  0.47266366  1
  O2-  O428  1  0.87890256  0.70105990  0.80217531  1
  O2-  O429  1  0.82120427  0.90913158  0.14315213  1
  O2-  O430  1  0.85441133  0.92357487  0.46950455  1
  O2-  O431  1  0.84002985  0.92464210  0.82302020  1
  O2-  O432  1  0.19051038  0.10765050  0.17385510  1
  O2-  O433  1  0.15974311  0.09155314  0.50048910  1
  O2-  O434  1  0.17806149  0.09650300  0.85806265  1
  O2-  O435  1  0.17967877  0.36789902  0.17843123  1
  O2-  O436  1  0.13913196  0.28276405  0.51856732  1
  O2-  O437  1  0.18643536  0.34466965  0.86204817  1
  O2-  O438  1  0.14634369  0.60133844  0.19511336  1
  O2-  O439  1  0.14490926  0.55486761  0.52404274  1
  O2-  O440  1  0.16479338  0.58921740  0.88024758  1
  O2-  O441  1  0.16524993  0.85113260  0.20074099  1
  O2-  O442  1  0.17431762  0.84900995  0.43897473  1
  O2-  O443  1  0.16378376  0.82880300  0.85953512  1
  O2-  O444  1  0.40977293  0.09077799  0.17632282  1
  O2-  O445  1  0.41186480  0.08006535  0.52207942  1
  O2-  O446  1  0.42725559  0.07998479  0.85193601  1
  O2-  O447  1  0.40700166  0.35147417  0.19737282  1
  O2-  O448  1  0.43145589  0.33625291  0.46786744  1
  O2-  O449  1  0.42366167  0.33175909  0.85469956  1
  O2-  O450  1  0.42328500  0.58844477  0.16452464  1
  O2-  O451  1  0.37618368  0.54648490  0.53189756  1
  O2-  O452  1  0.42095386  0.58143292  0.85905338  1
  O2-  O453  1  0.41320721  0.83982757  0.18609345  1
  O2-  O454  1  0.41234290  0.83298630  0.48165336  1
  O2-  O455  1  0.41907354  0.83211496  0.85939418  1
  O2-  O456  1  0.67308530  0.09632144  0.19100701  1
  O2-  O457  1  0.65111462  0.07004520  0.53740390  1
  O2-  O458  1  0.65313743  0.07947001  0.85766465  1
  O2-  O459  1  0.67770492  0.33536180  0.19388979  1
  O2-  O460  1  0.66552257  0.33240123  0.52660359  1
  O2-  O461  1  0.70683623  0.39087010  0.86493025  1
  O2-  O462  1  0.66458276  0.59464927  0.20066106  1
  O2-  O463  1  0.66063194  0.58147025  0.51449351  1
  O2-  O464  1  0.67328888  0.59276740  0.85379735  1
  O2-  O465  1  0.66483204  0.83729025  0.18310885  1
  O2-  O466  1  0.63473330  0.80602058  0.52241661  1
  O2-  O467  1  0.66116751  0.83411827  0.84623435  1
  O2-  O468  1  0.92690091  0.05465380  0.19066259  1
  O2-  O469  1  0.93115994  0.09526421  0.51432599  1
  O2-  O470  1  0.90589147  0.09365967  0.85967310  1
  O2-  O471  1  0.91263288  0.33417387  0.19850971  1
  O2-  O472  1  0.91300855  0.30914070  0.49731785  1
  O2-  O473  1  0.90944675  0.34056072  0.87089395  1
  O2-  O474  1  0.90722694  0.57730342  0.17843980  1
  O2-  O475  1  0.87541768  0.56443180  0.52883621  1
  O2-  O476  1  0.91376352  0.57389403  0.86467589  1
  O2-  O477  1  0.87246404  0.78392155  0.17401011  1
  O2-  O478  1  0.91733972  0.83144368  0.50779728  1
  O2-  O479  1  0.92127103  0.84014147  0.86671131  1
  O2-  O480  1  0.17145506  0.09623173  0.29006010  1
  O2-  O481  1  0.19760991  0.16082164  0.67252094  1
  O2-  O482  1  0.17898059  0.09388546  0.98396967  1
  O2-  O483  1  0.16679037  0.34729692  0.30581652  1
  O2-  O484  1  0.16719289  0.30116268  0.65906097  1
  O2-  O485  1  0.16695638  0.23020081  1.00860241  1
  O2-  O486  1  0.17165121  0.57625679  0.31911989  1
  O2-  O487  1  0.12372650  0.54077435  0.64026152  1
  O2-  O488  1  0.15364630  0.59447262  0.99843953  1
  O2-  O489  1  0.19174554  0.82160082  0.31718901  1
  O2-  O490  1  0.15751339  0.79430151  0.68063559  1
  O2-  O491  1  0.16497485  0.84432770  0.97948191  1
  O2-  O492  1  0.44023704  0.08476574  0.30057414  1
  O2-  O493  1  0.39934276  0.06135541  0.64535958  1
  O2-  O494  1  0.41779372  0.08416603  0.98019442  1
  O2-  O495  1  0.39660215  0.33918298  0.31995145  1
  O2-  O496  1  0.42629388  0.33631982  0.65693882  1
  O2-  O497  1  0.43164148  0.33092993  0.97845402  1
  O2-  O498  1  0.43412257  0.59001100  0.38336264  1
  O2-  O499  1  0.40236224  0.56419478  0.64578401  1
  O2-  O500  1  0.43292199  0.56252999  0.97672059  1
  O2-  O501  1  0.41595533  0.82150169  0.31187620  1
  O2-  O502  1  0.42208895  0.81960575  0.65359428  1
  O2-  O503  1  0.42003298  0.85326244  0.98135511  1
  O2-  O504  1  0.67246276  0.09774529  0.31576902  1
  O2-  O505  1  0.64202746  0.07096448  0.66201349  1
  O2-  O506  1  0.64586220  0.06352981  0.98489688  1
  O2-  O507  1  0.66927037  0.34128317  0.32228553  1
  O2-  O508  1  0.67146892  0.34336990  0.64948802  1
  O2-  O509  1  0.68106560  0.33577804  0.98194029  1
  O2-  O510  1  0.67784229  0.59868810  0.30998566  1
  O2-  O511  1  0.66820443  0.58747901  0.63876810  1
  O2-  O512  1  0.67903342  0.58440111  0.97328632  1
  O2-  O513  1  0.67418972  0.83804136  0.30504852  1
  O2-  O514  1  0.64594318  0.81524128  0.64835251  1
  O2-  O515  1  0.68227172  0.84468756  1.00034612  1
  O2-  O516  1  0.91224130  0.08919197  0.30129359  1
  O2-  O517  1  0.89174925  0.08346274  0.63839846  1
  O2-  O518  1  0.95125098  0.13837524  0.98174806  1
  O2-  O519  1  0.91614215  0.34007621  0.31795130  1
  O2-  O520  1  0.91189847  0.31451305  0.62517715  1
  O2-  O521  1  0.89228850  0.35763924  1.00092657  1
  O2-  O522  1  0.91575503  0.57968592  0.30929288  1
  O2-  O523  1  0.89778802  0.57272685  0.64799554  1
  O2-  O524  1  0.92036136  0.57029100  1.03018363  1
  O2-  O525  1  0.90243247  0.82396582  0.29653475  1
  O2-  O526  1  0.92059561  0.84728201  0.62633241  1
  O2-  O527  1  0.92528153  0.83332582  0.98547779  1
  O2-  O528  1  -0.00288371  0.06014882  0.05561509  1
  O2-  O529  1  0.08532098  0.18288495  0.33261921  1
  O2-  O530  1  0.03960769  0.15475313  0.70331825  1
  O2-  O531  1  0.06784274  0.40847767  0.02270444  1
  O2-  O532  1  0.08306557  0.41197260  0.35788423  1
  O2-  O533  1  0.06461193  0.38100239  0.66218179  1
  O2-  O534  1  0.08658040  0.68901934  0.03512553  1
  O2-  O535  1  0.08590834  0.65157065  0.34646068  1
  O2-  O536  1  0.05455074  0.61931160  0.69257539  1
  O2-  O537  1  0.08725009  0.93082232  0.02492320  1
  O2-  O538  1  0.06490724  0.92874357  0.32513931  1
  O2-  O539  1  0.09844568  1.00466295  0.61273194  1
  O2-  O540  1  0.34185401  0.17081057  0.01952748  1
  O2-  O541  1  0.32599452  0.15911137  0.34509061  1
  O2-  O542  1  0.35869922  0.17666057  0.69465482  1
  O2-  O543  1  0.32715889  0.38777283  0.01914791  1
  O2-  O544  1  0.32085856  0.41522980  0.36895186  1
  O2-  O545  1  0.32780728  0.40639910  0.69794230  1
  O2-  O546  1  0.32615882  0.68415801  0.01092808  1
  O2-  O547  1  0.33261217  0.66223352  0.37473299  1
  O2-  O548  1  0.32747486  0.65849474  0.70167076  1
  O2-  O549  1  0.32784084  0.92347958  0.02263969  1
  O2-  O550  1  0.36042772  0.92980306  0.34501553  1
  O2-  O551  1  0.33724812  0.90641240  0.69647229  1
  O2-  O552  1  0.58428763  0.17137921  0.02127112  1
  O2-  O553  1  0.59482041  0.18062378  0.36678098  1
  O2-  O554  1  0.54084722  0.12247526  0.71943139  1
  O2-  O555  1  0.59811824  0.41822086  0.01728549  1
  O2-  O556  1  0.57865955  0.40410007  0.39305780  1
  O2-  O557  1  0.59571344  0.42909675  0.69009124  1
  O2-  O558  1  0.59938825  0.66416236  0.01946778  1
  O2-  O559  1  0.60121186  0.67735377  0.35067071  1
  O2-  O560  1  0.56732567  0.65158455  0.68307301  1
  O2-  O561  1  0.57810046  0.91619720  0.03840629  1
  O2-  O562  1  0.58434718  0.92457536  0.30332776  1
  O2-  O563  1  0.58034722  0.90496289  0.69181768  1
  O2-  O564  1  0.85084280  0.18706672  0.03605708  1
  O2-  O565  1  0.83847350  0.16502801  0.34787248  1
  O2-  O566  1  0.81461236  0.17111251  0.69251992  1
  O2-  O567  1  0.84475056  0.40268139  0.01671262  1
  O2-  O568  1  0.83368829  0.41945813  0.36452856  1
  O2-  O569  1  0.81670753  0.41253354  0.69008792  1
  O2-  O570  1  0.83580458  0.66446371  0.02567488  1
  O2-  O571  1  0.83829514  0.66779947  0.35024090  1
  O2-  O572  1  0.83944394  0.68318515  0.67974287  1
  O2-  O573  1  0.85097784  0.91711463  0.01369658  1
  O2-  O574  1  0.83898752  0.92424898  0.34508699  1
  O2-  O575  1  0.80975106  0.86610736  0.69817379  1
