# generated using pymatgen
data_H2O
_symmetry_space_group_name_H-M   'P 1'
_cell_length_a   17.98863311
_cell_length_b   17.99394081
_cell_length_c   21.99073468
_cell_angle_alpha   90.00292283
_cell_angle_beta   90.01665833
_cell_angle_gamma   120.02093452
_symmetry_Int_Tables_number   1
_chemical_formula_structural   H2O
_chemical_formula_sum   'H384 O192'
_cell_volume   6163.15570172
_cell_formula_units_Z   192
loop_
 _symmetry_equiv_pos_site_id
 _symmetry_equiv_pos_as_xyz
  1  'x, y, z'
loop_
 _atom_type_symbol
 _atom_type_oxidation_number
  H+  1.0
  O2-  -2.0
loop_
 _atom_site_type_symbol
 _atom_site_label
 _atom_site_symmetry_multiplicity
 _atom_site_fract_x
 _atom_site_fract_y
 _atom_site_fract_z
 _atom_site_occupancy
  H+  H0  1  0.17398281  0.84542871  0.89906173  1
  H+  H1  1  0.63213893  0.35356142  0.50534086  1
  H+  H2  1  0.38858877  0.77141287  0.99502431  1
  H+  H3  1  0.39258595  0.36636041  0.66337912  1
  H+  H4  1  0.36762401  0.88758408  0.01238150  1
  H+  H5  1  0.77187631  0.36792741  0.51068895  1
  H+  H6  1  -0.02797588  0.34999833  0.51779769  1
  H+  H7  1  0.27708526  0.90029053  0.33873693  1
  H+  H8  1  -0.01696779  0.61710380  0.85184319  1
  H+  H9  1  0.38497805  0.11864115  0.32488271  1
  H+  H10  1  0.62135469  0.32691232  0.33625167  1
  H+  H11  1  0.86981336  0.93895398  0.67029573  1
  H+  H12  1  0.17490936  0.56256804  0.31266820  1
  H+  H13  1  0.39113655  0.27585225  0.66108047  1
  H+  H14  1  0.92543009  0.82995015  0.57497013  1
  H+  H15  1  0.64516824  0.79641864  0.31364991  1
  H+  H16  1  0.57147850  0.61614486  0.79538569  1
  H+  H17  1  0.22059768  0.35713107  0.50850268  1
  H+  H18  1  0.67291690  0.62291136  0.84762243  1
  H+  H19  1  0.73861263  0.65090433  0.32622476  1
  H+  H20  1  0.62672952  0.26166759  0.50316706  1
  H+  H21  1  0.60684198  0.75346782  0.65910036  1
  H+  H22  1  0.36095836  -0.03047494  0.66984483  1
  H+  H23  1  0.73288404  0.61270089  0.17006835  1
  H+  H24  1  1.02898344  0.14455664  0.67096633  1
  H+  H25  1  0.97469014  0.36793554  0.31452121  1
  H+  H26  1  0.87646636  0.72520698  0.82507823  1
  H+  H27  1  0.11662019  0.89172981  0.01075035  1
  H+  H28  1  0.50904014  0.12273941  0.34220203  1
  H+  H29  1  0.26905736  0.37752855  0.33929036  1
  H+  H30  1  0.36683417  0.88674806  0.16783557  1
  H+  H31  1  0.28092464  0.21444888  0.78590355  1
  H+  H32  1  0.14800587  0.62469642  0.16242442  1
  H+  H33  1  0.87571518  0.22839278  0.00221008  1
  H+  H34  1  0.52505262  0.39026193  0.67845412  1
  H+  H35  1  0.24252714  0.37340186  0.16858997  1
  H+  H36  1  0.89360739  1.03026614  0.51056394  1
  H+  H37  1  0.48072753  0.86539026  0.66580221  1
  H+  H38  1  0.58804078  0.85762558  0.50147214  1
  H+  H39  1  0.12186215  0.20995545  0.82821669  1
  H+  H40  1  0.47855253  0.10685362  0.99729864  1
  H+  H41  1  0.37685506  0.64220237  0.15975223  1
  H+  H42  1  0.12273571  0.48294300  0.15371642  1
  H+  H43  1  0.37450564  0.61286497  0.65771056  1
  H+  H44  1  0.88792335  0.37740590  0.16547978  1
  H+  H45  1  0.28166463  0.64283679  1.00708079  1
  H+  H46  1  0.72437122  0.83633322  0.22566850  1
  H+  H47  1  0.14426455  0.87732294  0.83697284  1
  H+  H48  1  0.25114820  0.13059033  0.82414475  1
  H+  H49  1  0.38031794  0.35460426  0.32850896  1
  H+  H50  1  0.89748300  0.28745984  0.81403459  1
  H+  H51  1  0.87390811  0.73658072  0.00716459  1
  H+  H52  1  0.86809632  0.70906804  0.68001816  1
  H+  H53  1  0.27251811  0.60498598  0.47392210  1
  H+  H54  1  0.88365690  0.52246822  0.33273554  1
  H+  H55  1  0.60441383  0.63978563  0.50391445  1
  H+  H56  1  0.87064381  0.48068255  0.83677190  1
  H+  H57  1  0.75527196  0.89441095  0.82128132  1
  H+  H58  1  1.02248752  0.89566787  0.34081384  1
  H+  H59  1  0.93490642  0.09237539  0.94768045  1
  H+  H60  1  0.56067480  0.15701274  0.72970690  1
  H+  H61  1  0.77973022  0.39127347  0.83184545  1
  H+  H62  1  0.64199705  0.49124971  0.82278135  1
  H+  H63  1  0.36622530  0.22205862  0.16158514  1
  H+  H64  1  0.46688767  0.34928845  0.33129656  1
  H+  H65  1  0.63289394  0.27502380  0.83939382  1
  H+  H66  1  0.82246867  0.16485577  0.05761958  1
  H+  H67  1  0.63670280  0.30220724  -0.00245427  1
  H+  H68  1  0.38429122  0.28075345  0.84317370  1
  H+  H69  1  0.84808917  0.47941805  0.32223073  1
  H+  H70  1  0.13254144  0.11172098  0.32319447  1
  H+  H71  1  0.72870299  0.38675590  0.99663159  1
  H+  H72  1  0.12575612  0.39816889  0.67221838  1
  H+  H73  1  0.86713446  0.90654343  0.35145868  1
  H+  H74  1  0.89012776  0.16586171  0.67809112  1
  H+  H75  1  0.92996901  0.48746249  0.53473063  1
  H+  H76  1  0.27374452  0.65322845  0.82914682  1
  H+  H77  1  0.13946457  0.00184758  0.83838581  1
  H+  H78  1  0.90109000  0.13288854  0.00623466  1
  H+  H79  1  0.13186177  0.35256552  0.32360545  1
  H+  H80  1  0.22229987  0.86085640  0.65644317  1
  H+  H81  1  0.37399399  0.61471516  0.84081584  1
  H+  H82  1  0.86642531  0.61348283  0.67666437  1
  H+  H83  1  0.61209588  0.48908975  1.01485771  1
  H+  H84  1  0.63529866  0.35810385  0.18212831  1
  H+  H85  1  0.61984224  0.85887346  0.83433377  1
  H+  H86  1  0.12513276  0.23117579  0.00452370  1
  H+  H87  1  0.00084952  0.68110697  0.32773746  1
  H+  H88  1  0.49942166  0.62668597  0.50416952  1
  H+  H89  1  0.32737788  0.16246313  0.72306074  1
  H+  H90  1  0.69446254  0.77882005  0.16572828  1
  H+  H91  1  0.22138987  0.10899984  0.50486257  1
  H+  H92  1  0.23216976  0.36639488  0.66200713  1
  H+  H93  1  0.59358043  0.11010729  0.34300063  1
  H+  H94  1  0.11297476  0.74117006  0.83643316  1
  H+  H95  1  0.11186535  0.13468247  0.48727926  1
  H+  H96  1  0.13533542  0.02871522  0.16944703  1
  H+  H97  1  0.89947095  0.96537534  0.12576568  1
  H+  H98  1  0.34441524  0.67269970  0.06597995  1
  H+  H99  1  0.38967212  0.86312282  0.66721460  1
  H+  H100  1  0.13976336  0.64070850  0.84454968  1
  H+  H101  1  0.95292594  0.86516181  0.17559184  1
  H+  H102  1  0.91735361  0.34260204  0.25373612  1
  H+  H103  1  0.24483330  0.35680840  0.83459697  1
  H+  H104  1  0.27039240  0.88793869  0.82863311  1
  H+  H105  1  0.61060931  -0.03795629  0.99810737  1
  H+  H106  1  0.38681112  0.60877699  0.49978409  1
  H+  H107  1  0.64680101  0.31329500  0.59934141  1
  H+  H108  1  0.36753031  0.13335680  0.16105221  1
  H+  H109  1  0.13978869  0.14889490  0.15859937  1
  H+  H110  1  0.63510159  0.98986636  0.15204604  1
  H+  H111  1  1.04309327  0.39355371  0.99714084  1
  H+  H112  1  0.02611688  0.40447446  0.82296520  1
  H+  H113  1  0.14432961  0.35954698  0.98736890  1
  H+  H114  1  0.27718177  0.88787752  0.16663666  1
  H+  H115  1  0.11854673  0.23037656  0.67751320  1
  H+  H116  1  0.10635425  0.22013566  0.33024922  1
  H+  H117  1  0.03436889  0.59459257  0.35892300  1
  H+  H118  1  0.87593341  0.68206186  0.33943583  1
  H+  H119  1  0.98256681  0.86781620  0.99248093  1
  H+  H120  1  0.51265702  0.86671217  0.00046343  1
  H+  H121  1  1.01713885  0.13212579  0.32767609  1
  H+  H122  1  0.83248881  0.14880726  0.15058223  1
  H+  H123  1  0.14184332  0.53662267  0.66508205  1
  H+  H124  1  0.21482453  0.86203777  0.50278921  1
  H+  H125  1  0.87200768  0.89804638  0.51178741  1
  H+  H126  1  0.60721409  0.86283160  -0.00388497  1
  H+  H127  1  0.13994757  0.55259202  0.83735818  1
  H+  H128  1  0.98984600  0.10733187  0.85258627  1
  H+  H129  1  0.36376978  0.22467908  0.49581887  1
  H+  H130  1  0.98565767  0.85300722  0.67068871  1
  H+  H131  1  0.37715973  0.10607296  0.65054169  1
  H+  H132  1  0.04474943  0.88962875  0.82662331  1
  H+  H133  1  0.41694768  0.33775108  0.90292850  1
  H+  H134  1  0.12426628  0.13866931  1.00686540  1
  H+  H135  1  0.84812664  0.65504320  0.49105672  1
  H+  H136  1  0.58133744  0.68815133  0.40002054  1
  H+  H137  1  0.84218982  0.67260241  0.10178129  1
  H+  H138  1  0.49127552  0.87607395  0.17718784  1
  H+  H139  1  0.61689864  0.22570150  0.16215259  1
  H+  H140  1  0.85740362  0.74663440  0.49981041  1
  H+  H141  1  0.40560187  0.78391491  0.17770464  1
  H+  H142  1  0.47869420  0.60747372  0.33084151  1
  H+  H143  1  0.13512139  0.26543725  0.50708792  1
  H+  H144  1  0.91992530  0.58799848  0.94013664  1
  H+  H145  1  0.38388074  0.35996209  0.50915592  1
  H+  H146  1  0.89039892  0.86365424  0.98489659  1
  H+  H147  1  0.89862516  0.62532114  0.17466666  1
  H+  H148  1  0.23065225  0.11383467  0.99313885  1
  H+  H149  1  0.14978506  0.53426466  0.98973332  1
  H+  H150  1  0.36686484  0.13692479  0.00799812  1
  H+  H151  1  0.88175943  0.24688828  0.69304616  1
  H+  H152  1  0.98778858  0.37813606  0.66558144  1
  H+  H153  1  0.62010934  0.47710517  0.67469533  1
  H+  H154  1  0.84084571  0.34384065  0.35276828  1
  H+  H155  1  0.10456304  0.44910997  0.48463497  1
  H+  H156  1  0.83598886  0.93202875  0.03697671  1
  H+  H157  1  0.51533611  0.89305335  0.82968603  1
  H+  H158  1  0.09432187  0.63605451  0.69259592  1
  H+  H159  1  0.61021348  0.98683482  0.67108001  1
  H+  H160  1  0.12934031  0.02205045  0.50343541  1
  H+  H161  1  1.00220805  0.62855775  0.68714886  1
  H+  H162  1  0.94376222  0.63963711  0.50926342  1
  H+  H163  1  0.39563562  0.61991370  0.99324599  1
  H+  H164  1  0.14149816  0.78285292  0.33534666  1
  H+  H165  1  0.05890262  0.37655771  0.40525743  1
  H+  H166  1  0.14250660  0.78165392  0.99611379  1
  H+  H167  1  0.13823727  0.11496594  0.65803615  1
  H+  H168  1  0.89532592  0.62671716  0.99866833  1
  H+  H169  1  0.37435077  0.11430347  0.84959904  1
  H+  H170  1  0.38143217  1.02770301  0.32420998  1
  H+  H171  1  0.88112811  0.05424110  0.64501330  1
  H+  H172  1  0.11214200  -0.02486785  0.67836567  1
  H+  H173  1  0.87553769  0.34811783  0.52054411  1
  H+  H174  1  0.37105773  0.39382426  1.01147601  1
  H+  H175  1  0.59630011  0.11632979  0.49414329  1
  H+  H176  1  0.59154872  0.21528064  0.66922075  1
  H+  H177  1  0.20946223  0.74040043  0.48771065  1
  H+  H178  1  0.54090634  0.64871357  0.15672036  1
  H+  H179  1  0.54648704  0.94308638  0.33690778  1
  H+  H180  1  0.63350685  0.87867665  0.66516951  1
  H+  H181  1  0.37019101  0.90970719  0.33911681  1
  H+  H182  1  0.28890722  0.64548475  0.15735180  1
  H+  H183  1  0.47875546  0.35915036  0.17583495  1
  H+  H184  1  0.86275737  0.03260719  0.28262141  1
  H+  H185  1  0.86488907  0.47871300  0.67407797  1
  H+  H186  1  0.59282614  0.91688891  0.10290497  1
  H+  H187  1  0.03072459  0.64321467  0.00722579  1
  H+  H188  1  0.88775814  0.12538512  0.31140272  1
  H+  H189  1  0.73627574  0.09177745  0.84015772  1
  H+  H190  1  0.52831437  0.63612493  0.00271935  1
  H+  H191  1  0.14106657  0.59717728  0.48227402  1
  H+  H192  1  0.03352241  0.39445660  0.15073873  1
  H+  H193  1  0.89618884  0.37810506  0.66866023  1
  H+  H194  1  0.60613655  0.98005818  0.83052516  1
  H+  H195  1  0.83877073  0.10385560  0.47808082  1
  H+  H196  1  0.74706276  0.32896021  0.36096974  1
  H+  H197  1  0.78410287  0.64695001  1.01019099  1
  H+  H198  1  0.48361029  0.11463075  0.50111605  1
  H+  H199  1  0.38192215  0.74779188  0.51961178  1
  H+  H200  1  0.17706972  0.60034449  0.93360607  1
  H+  H201  1  0.50510107  0.86533411  0.50783118  1
  H+  H202  1  -0.00012657  0.13113082  0.00815128  1
  H+  H203  1  0.37039104  0.38889658  0.16201597  1
  H+  H204  1  0.61193818  0.00090511  0.51130344  1
  H+  H205  1  0.71763231  0.62853704  0.50972633  1
  H+  H206  1  0.03397059  0.64595755  0.16113786  1
  H+  H207  1  0.82282670  0.44159397  0.11821247  1
  H+  H208  1  0.13893988  0.78270806  0.17383318  1
  H+  H209  1  0.13291138  0.86650899  0.33105379  1
  H+  H210  1  0.86287222  0.50170421  0.01475456  1
  H+  H211  1  0.86305931  0.10701674  0.83027732  1
  H+  H212  1  0.62058767  0.23897315  0.33037889  1
  H+  H213  1  0.77098009  0.39393364  0.17745821  1
  H+  H214  1  0.67491339  0.13793133  0.15827238  1
  H+  H215  1  0.10022406  0.89164401  0.16464609  1
  H+  H216  1  0.90032865  0.86206983  0.83824172  1
  H+  H217  1  0.30387868  0.66900018  0.32384090  1
  H+  H218  1  0.60950644  0.47777835  0.49762557  1
  H+  H219  1  0.39376564  1.02459920  0.17481529  1
  H+  H220  1  0.37038198  0.73231258  0.67944061  1
  H+  H221  1  0.46681307  0.62303261  0.65181037  1
  H+  H222  1  0.41864678  0.81720538  0.33692339  1
  H+  H223  1  0.38839675  0.02031459  0.99898609  1
  H+  H224  1  0.46160166  0.61678565  0.83124341  1
  H+  H225  1  0.36582269  0.48043240  0.67203767  1
  H+  H226  1  0.46576561  0.10540751  0.65454305  1
  H+  H227  1  0.59378030  0.66318371  0.63471323  1
  H+  H228  1  0.26784030  0.13330474  0.34307915  1
  H+  H229  1  0.38798583  0.11926859  0.50242605  1
  H+  H230  1  -0.12407350  0.06519586  0.14909484  1
  H+  H231  1  0.97942506  0.86624396  0.51204151  1
  H+  H232  1  0.84505146  0.42383191  0.73523524  1
  H+  H233  1  0.11591017  -0.01988888  1.00892628  1
  H+  H234  1  0.85533275  0.41305371  0.03661845  1
  H+  H235  1  0.65679321  0.61162783  0.67548258  1
  H+  H236  1  0.47686837  0.36703299  -0.00166676  1
  H+  H237  1  0.38994502  0.27560571  -0.00321439  1
  H+  H238  1  0.64630641  0.62059679  0.99348564  1
  H+  H239  1  0.50895464  0.14121685  0.83125871  1
  H+  H240  1  0.86698964  0.99287555  0.36519987  1
  H+  H241  1  0.64008511  0.19274758  0.01576284  1
  H+  H242  1  0.61690750  0.47549347  0.16742697  1
  H+  H243  1  0.89236412  0.61124833  0.84577354  1
  H+  H244  1  0.63125273  0.76270695  -0.01343615  1
  H+  H245  1  0.77024300  0.87617819  0.98614295  1
  H+  H246  1  0.63060336  0.39212189  0.82267017  1
  H+  H247  1  0.11892169  0.42753739  0.84440713  1
  H+  H248  1  0.38698923  0.59671690  0.32782496  1
  H+  H249  1  0.71723891  0.86555839  0.66399715  1
  H+  H250  1  0.39936406  0.70693794  0.30008381  1
  H+  H251  1  0.09423084  0.92095982  0.74155299  1
  H+  H252  1  0.27656880  0.64864081  0.67949160  1
  H+  H253  1  0.11060213  0.18129036  0.09326063  1
  H+  H254  1  0.11952715  0.90393531  0.49655928  1
  H+  H255  1  0.86325719  0.72457237  0.16496352  1
  H+  H256  1  0.23209964  0.11229165  0.17002910  1
  H+  H257  1  0.40572638  0.81017867  0.57850415  1
  H+  H258  1  0.27204726  0.13697368  0.66270295  1
  H+  H259  1  0.12082761  0.64431774  0.00608688  1
  H+  H260  1  0.23113252  0.86983298  -0.00119398  1
  H+  H261  1  0.36027167  0.46994291  0.49443757  1
  H+  H262  1  0.38641603  0.78092913  0.84213593  1
  H+  H263  1  0.35575132  0.22282937  0.34187211  1
  H+  H264  1  0.15030637  0.33706193  0.82096847  1
  H+  H265  1  0.90335283  0.59701180  0.50308509  1
  H+  H266  1  0.73522677  0.87855053  0.32354295  1
  H+  H267  1  0.61197195  0.43694455  0.34488255  1
  H+  H268  1  0.37703928  0.48519658  0.01175822  1
  H+  H269  1  0.15991856  0.63939517  0.32781395  1
  H+  H270  1  0.62249972  0.07596468  1.00036927  1
  H+  H271  1  1.06284643  0.60737273  0.50676997  1
  H+  H272  1  0.88933577  0.83602133  0.67139887  1
  H+  H273  1  0.80137791  0.91525632  0.14227865  1
  H+  H274  1  0.90630517  0.36352914  0.97110614  1
  H+  H275  1  0.66569170  0.33952144  0.89719624  1
  H+  H276  1  0.14992885  0.36940248  0.16498970  1
  H+  H277  1  0.35905032  0.97718722  0.82817544  1
  H+  H278  1  0.61858456  0.66709639  0.34090660  1
  H+  H279  1  0.62183744  0.77113278  0.82608592  1
  H+  H280  1  0.64640512  0.56843428  0.32851202  1
  H+  H281  1  0.14296366  0.24832756  0.15670602  1
  H+  H282  1  0.11379349  0.45581650  0.36693673  1
  H+  H283  1  0.87269374  0.23717676  0.32925686  1
  H+  H284  1  0.89923769  0.02162308  0.86083553  1
  H+  H285  1  0.61717211  0.10539589  0.65716549  1
  H+  H286  1  0.36338723  0.47792074  0.82866301  1
  H+  H287  1  0.39959731  0.52733190  0.17061532  1
  H+  H288  1  0.66620997  0.59068059  0.57151802  1
  H+  H289  1  0.42029151  0.58825019  0.93264950  1
  H+  H290  1  0.83228850  0.16558744  0.38357145  1
  H+  H291  1  0.58697475  0.15114716  0.07603286  1
  H+  H292  1  0.75758054  0.61684757  0.83961706  1
  H+  H293  1  0.16240790  0.08192619  0.59751871  1
  H+  H294  1  0.61386650  0.40346223  0.00892561  1
  H+  H295  1  0.90732308  0.12012848  0.20988747  1
  H+  H296  1  0.82977157  0.69101229  0.40162098  1
  H+  H297  1  0.66268747  0.06016813  0.93887751  1
  H+  H298  1  0.84318679  0.65945469  0.76597827  1
  H+  H299  1  0.33310850  0.16542773  0.43553335  1
  H+  H300  1  0.56847374  0.14740093  0.43262860  1
  H+  H301  1  0.16867520  0.08540149  0.26579788  1
  H+  H302  1  0.82288981  0.37501707  0.45016312  1
  H+  H303  1  0.17924585  0.87375974  0.56608832  1
  H+  H304  1  0.08215186  0.16517043  0.42741806  1
  H+  H305  1  0.41750656  0.33368991  0.56875943  1
  H+  H306  1  0.16846275  0.33296646  0.26219961  1
  H+  H307  1  0.41704618  0.83444891  0.93571961  1
  H+  H308  1  0.16875889  0.32158119  0.92938028  1
  H+  H309  1  0.41232441  0.58355108  0.56602398  1
  H+  H310  1  0.70665896  0.15437338  0.86506346  1
  H+  H311  1  0.09079551  0.67615406  0.09970782  1
  H+  H312  1  0.41015230  0.08567073  0.90613682  1
  H+  H313  1  0.33541126  0.67545812  0.77057274  1
  H+  H314  1  0.36072832  0.46434708  0.34098084  1
  H+  H315  1  0.92878969  0.10927215  0.58730176  1
  H+  H316  1  0.93143232  0.32517517  0.91758650  1
  H+  H317  1  0.59122736  0.66943751  0.06175504  1
  H+  H318  1  0.16878980  0.33209734  0.60418296  1
  H+  H319  1  0.65925455  0.31819171  0.24013841  1
  H+  H320  1  0.97827260  0.12256324  0.49804333  1
  H+  H321  1  0.91245879  0.85085615  0.27458580  1
  H+  H322  1  0.64806185  0.07510724  0.59891757  1
  H+  H323  1  0.13072886  0.09004476  0.84335937  1
  H+  H324  1  0.62399513  0.34743774  0.65944296  1
  H+  H325  1  0.41521921  0.32687181  0.23297544  1
  H+  H326  1  0.37477432  0.39299486  0.83051409  1
  H+  H327  1  0.33606906  0.16531257  0.06702356  1
  H+  H328  1  0.07379354  0.91945063  0.10360872  1
  H+  H329  1  0.62283000  0.63759009  0.15335532  1
  H+  H330  1  0.18933437  0.54174487  0.53343100  1
  H+  H331  1  0.89755794  0.53870162  0.18891188  1
  H+  H332  1  0.92006106  0.33359779  0.58633434  1
  H+  H333  1  0.88769123  0.36884180  0.83249991  1
  H+  H334  1  0.34650456  0.42451340  0.10149971  1
  H+  H335  1  0.33428242  0.91605842  0.73241239  1
  H+  H336  1  0.58194807  0.92901951  0.73331790  1
  H+  H337  1  0.11448194  0.97974224  0.33959498  1
  H+  H338  1  0.33838416  0.91649231  0.07263147  1
  H+  H339  1  0.13769936  0.86668331  0.66069028  1
  H+  H340  1  0.83324605  0.92131661  0.45507006  1
  H+  H341  1  0.69969990  0.08747334  0.50223853  1
  H+  H342  1  0.59015366  0.12982463  0.82546566  1
  H+  H343  1  0.57429704  0.39947389  0.41007806  1
  H+  H344  1  0.74476763  0.60990333  0.66939371  1
  H+  H345  1  0.30667539  0.80766222  0.50359078  1
  H+  H346  1  0.94786573  0.64931473  0.26597653  1
  H+  H347  1  0.82596613  0.90709744  0.73481773  1
  H+  H348  1  0.18274273  0.60358073  0.22164467  1
  H+  H349  1  0.15843382  0.60882763  0.61626958  1
  H+  H350  1  0.34185573  0.42283104  0.73287035  1
  H+  H351  1  0.07087789  0.67122342  0.78084868  1
  H+  H352  1  0.59851994  0.42608030  0.75755275  1
  H+  H353  1  0.43772345  0.85991280  0.27091724  1
  H+  H354  1  0.80393314  0.98913572  0.79616168  1
  H+  H355  1  0.89339012  0.58884963  0.60773584  1
  H+  H356  1  0.07996595  0.15371289  0.76884730  1
  H+  H357  1  0.83341202  0.13150050  0.76705192  1
  H+  H358  1  0.35465237  0.66749543  0.42928462  1
  H+  H359  1  0.65133539  0.81980762  0.92450299  1
  H+  H360  1  0.41525416  0.08335946  0.56513705  1
  H+  H361  1  0.53091162  0.13364923  0.16404824  1
  H+  H362  1  0.52059209  0.38818448  0.50017103  1
  H+  H363  1  0.87386283  0.28381852  0.15952921  1
  H+  H364  1  0.07568971  0.91922633  0.43617450  1
  H+  H365  1  0.09199975  0.35700891  0.49823236  1
  H+  H366  1  0.85040393  0.83409744  0.18658125  1
  H+  H367  1  0.58563617  0.41794846  0.10802756  1
  H+  H368  1  0.16440473  0.83914228  0.23434827  1
  H+  H369  1  0.09879039  0.42428437  0.05818226  1
  H+  H370  1  0.92557844  0.83165847  0.89884104  1
  H+  H371  1  0.96444365  0.54293864  0.59378443  1
  H+  H372  1  0.56627040  0.67160035  0.74251111  1
  H+  H373  1  0.88394475  0.79843760  0.33576143  1
  H+  H374  1  0.38376970  0.86905473  0.84329698  1
  H+  H375  1  0.68223785  0.58562643  0.93989044  1
  H+  H376  1  0.42164165  0.08730308  0.23263710  1
  H+  H377  1  0.09948258  0.43187519  0.73139178  1
  H+  H378  1  0.75858248  0.04668212  0.43696367  1
  H+  H379  1  0.67535297  0.59783056  0.22898327  1
  H+  H380  1  0.16949916  0.07840515  0.93387967  1
  H+  H381  1  0.42894518  0.58341765  0.23054959  1
  H+  H382  1  0.09612149  0.64692993  0.41407892  1
  H+  H383  1  0.32801353  0.40854215  0.43606017  1
  O2-  O384  1  0.11500269  0.18550171  0.14055656  1
  O2-  O385  1  0.08327685  0.16728783  0.47270461  1
  O2-  O386  1  0.08177723  0.15028865  0.81429444  1
  O2-  O387  1  0.09475834  0.42268573  0.13822464  1
  O2-  O388  1  0.05924668  0.38417468  0.48174240  1
  O2-  O389  1  0.08889900  0.44044975  0.81293985  1
  O2-  O390  1  0.09421213  0.67640547  0.14524937  1
  O2-  O391  1  0.11288134  0.63604405  0.47890252  1
  O2-  O392  1  0.08024898  0.67743800  0.82689738  1
  O2-  O393  1  0.07014411  0.92168914  0.14909464  1
  O2-  O394  1  0.07489021  0.92118880  0.48135280  1
  O2-  O395  1  0.10456047  0.92250176  0.81267414  1
  O2-  O396  1  0.33467835  0.16150633  0.14613284  1
  O2-  O397  1  0.33548160  0.16393418  0.48138757  1
  O2-  O398  1  0.30368922  0.17862886  0.80074062  1
  O2-  O399  1  0.34270057  0.42223251  0.14829153  1
  O2-  O400  1  0.32813493  0.40888633  0.48164600  1
  O2-  O401  1  0.34028609  0.41865769  0.81199953  1
  O2-  O402  1  0.35045022  0.67626613  0.14465058  1
  O2-  O403  1  0.33906412  0.64846865  0.47139026  1
  O2-  O404  1  0.33527112  0.67761704  0.81629120  1
  O2-  O405  1  0.33719404  0.91642389  0.15054613  1
  O2-  O406  1  0.25617946  0.79955604  0.48019347  1
  O2-  O407  1  0.33250467  0.91743693  0.81335869  1
  O2-  O408  1  0.59053800  0.16544021  0.14645681  1
  O2-  O409  1  0.56859802  0.15036530  0.47908562  1
  O2-  O410  1  0.56950297  0.16921694  0.81504611  1
  O2-  O411  1  0.58639789  0.41444497  0.15334444  1
  O2-  O412  1  0.58103770  0.41719178  0.48389345  1
  O2-  O413  1  0.60816089  0.43048693  0.80591536  1
  O2-  O414  1  0.59931690  0.67432760  0.13852781  1
  O2-  O415  1  0.56830116  0.66395387  0.48599949  1
  O2-  O416  1  0.56326328  0.66493732  0.78809737  1
  O2-  O417  1  0.59321445  0.92826665  0.14645201  1
  O2-  O418  1  0.56646900  0.89734551  0.49467223  1
  O2-  O419  1  0.57650685  0.92134477  0.81440801  1
  O2-  O420  1  0.79347299  0.17186393  0.13278046  1
  O2-  O421  1  0.78990233  0.10330976  0.45583411  1
  O2-  O422  1  0.81244972  0.09181691  0.80403820  1
  O2-  O423  1  0.83093223  0.43193107  0.16133861  1
  O2-  O424  1  0.83153547  0.38940801  0.49557277  1
  O2-  O425  1  0.84118506  0.42026904  0.82008292  1
  O2-  O426  1  0.83774167  0.66570162  0.14717948  1
  O2-  O427  1  0.81925873  0.68718574  0.48028288  1
  O2-  O428  1  0.84568479  0.66315412  0.81299061  1
  O2-  O429  1  0.84610622  0.96516730  0.11762325  1
  O2-  O430  1  0.84359389  0.93088589  0.49925784  1
  O2-  O431  1  0.81198415  0.93899501  0.80438498  1
  O2-  O432  1  0.17086047  0.08994508  0.18362326  1
  O2-  O433  1  0.16094141  0.08368843  0.51858440  1
  O2-  O434  1  0.16824841  0.06799340  0.85780416  1
  O2-  O435  1  0.17943753  0.33895247  0.18128575  1
  O2-  O436  1  0.16127977  0.32433795  0.52544329  1
  O2-  O437  1  0.18183670  0.31870685  0.84708815  1
  O2-  O438  1  0.17878342  0.59410570  0.17722544  1
  O2-  O439  1  0.18100459  0.54269791  0.48969272  1
  O2-  O440  1  0.17298575  0.61001026  0.85611560  1
  O2-  O441  1  0.16641890  0.84303810  0.18903306  1
  O2-  O442  1  0.19033219  0.89512331  0.52272480  1
  O2-  O443  1  0.17410449  0.84236240  0.85402965  1
  O2-  O444  1  0.42524598  0.08646327  0.18673306  1
  O2-  O445  1  0.41921020  0.08838796  0.51817745  1
  O2-  O446  1  0.40933631  0.08869292  0.86034967  1
  O2-  O447  1  0.41667520  0.32749239  0.18753461  1
  O2-  O448  1  0.41692029  0.33190378  0.52330008  1
  O2-  O449  1  0.41719195  0.34056524  0.85747206  1
  O2-  O450  1  0.42996132  0.58841116  0.18560692  1
  O2-  O451  1  0.41955037  0.58128939  0.52028522  1
  O2-  O452  1  0.40612815  0.58431143  0.85268864  1
  O2-  O453  1  0.43136327  0.84331504  0.19408772  1
  O2-  O454  1  0.40194860  0.80719616  0.53302803  1
  O2-  O455  1  0.41641282  0.84088299  0.85912158  1
  O2-  O456  1  0.71057996  0.10978452  0.16109424  1
  O2-  O457  1  0.64180757  0.06454217  0.52044341  1
  O2-  O458  1  0.68639332  0.09307542  0.86178038  1
  O2-  O459  1  0.66601773  0.32717847  0.19479546  1
  O2-  O460  1  0.65895855  0.32061492  0.52058883  1
  O2-  O461  1  0.66698221  0.33687297  0.85189914  1
  O2-  O462  1  0.67191401  0.58464091  0.18489573  1
  O2-  O463  1  0.65822507  0.59262941  0.52683786  1
  O2-  O464  1  0.69439541  0.58386696  0.85618476  1
  O2-  O465  1  0.74519816  0.82798856  0.18474596  1
  O2-  O466  1  0.60746506  0.75205938  0.51020491  1
  O2-  O467  1  0.65077171  0.82763850  0.84663972  1
  O2-  O468  1  0.89754881  0.12380761  0.16592204  1
  O2-  O469  1  0.91952684  0.09521834  0.51640032  1
  O2-  O470  1  0.93301323  0.08175403  0.87478203  1
  O2-  O471  1  0.91659306  0.34271100  0.17251648  1
  O2-  O472  1  0.91328639  0.32304138  0.53912607  1
  O2-  O473  1  0.92183716  0.33776607  0.84057585  1
  O2-  O474  1  0.93299555  0.60198249  0.19447579  1
  O2-  O475  1  0.98330717  0.52614347  0.55670894  1
  O2-  O476  1  0.92054687  0.58095672  0.86477937  1
  O2-  O477  1  0.89900565  0.82484690  0.19711551  1
  O2-  O478  1  0.91945550  0.83553136  0.53016775  1
  O2-  O479  1  0.92494979  0.82795056  0.85291862  1
  O2-  O480  1  0.16639677  0.08371636  0.31095509  1
  O2-  O481  1  0.16803163  0.08458254  0.64293305  1
  O2-  O482  1  0.16931775  0.08463240  0.97962749  1
  O2-  O483  1  0.16543344  0.32655626  0.30735441  1
  O2-  O484  1  0.17037228  0.33656703  0.64969150  1
  O2-  O485  1  0.15869103  0.31576076  0.97362814  1
  O2-  O486  1  0.19829277  0.62334936  0.30411074  1
  O2-  O487  1  0.16854472  0.60011980  0.65851468  1
  O2-  O488  1  0.17828415  0.59650829  0.97911730  1
  O2-  O489  1  0.16507851  0.83824316  0.31475608  1
  O2-  O490  1  0.16627999  0.84124340  0.63684366  1
  O2-  O491  1  0.17140282  0.84285879  0.98274843  1
  O2-  O492  1  0.41525671  0.08968096  0.30790042  1
  O2-  O493  1  0.40655647  0.07515139  0.63486627  1
  O2-  O494  1  0.41876175  0.08069286  0.98238118  1
  O2-  O495  1  0.40924108  0.32348938  0.31206584  1
  O2-  O496  1  0.42498596  0.33783852  0.64886846  1
  O2-  O497  1  0.41790422  0.33550001  0.98085613  1
  O2-  O498  1  0.41926759  0.56872163  0.31430185  1
  O2-  O499  1  0.40540013  0.58395879  0.63998549  1
  O2-  O500  1  0.42697629  0.59097895  0.97773725  1
  O2-  O501  1  0.44218341  0.87246697  0.31577956  1
  O2-  O502  1  0.41833112  0.82962577  0.65441035  1
  O2-  O503  1  0.42182005  0.83360038  0.98140253  1
  O2-  O504  1  0.63144205  0.05775563  0.31634128  1
  O2-  O505  1  0.65026715  0.07753921  0.64421800  1
  O2-  O506  1  0.65106247  0.04555055  0.98275642  1
  O2-  O507  1  0.65285647  0.30159100  0.31664669  1
  O2-  O508  1  0.64248418  0.30784894  0.64437657  1
  O2-  O509  1  0.67075657  0.35633536  0.97599018  1
  O2-  O510  1  0.67799023  0.62403781  0.30864515  1
  O2-  O511  1  0.68093045  0.58187552  0.65299325  1
  O2-  O512  1  0.67871090  0.58948851  0.98456729  1
  O2-  O513  1  0.68986854  0.84774032  0.29279673  1
  O2-  O514  1  0.65829494  0.84301994  0.64898852  1
  O2-  O515  1  0.65556815  0.82313055  0.96993804  1
  O2-  O516  1  0.91143151  0.08993816  0.28953241  1
  O2-  O517  1  0.92962213  0.10982353  0.63408915  1
  O2-  O518  1  0.93734238  0.10248914  0.99343806  1
  O2-  O519  1  0.91545219  0.34176008  0.29904843  1
  O2-  O520  1  0.92625330  0.34479302  0.65349203  1
  O2-  O521  1  0.93434303  0.33018540  0.96296969  1
  O2-  O522  1  0.95668594  0.68390019  0.30355264  1
  O2-  O523  1  0.90328028  0.57760696  0.64941087  1
  O2-  O524  1  0.92135133  0.59070866  0.98605170  1
  O2-  O525  1  0.91664617  0.85863889  0.31961033  1
  O2-  O526  1  0.92576528  0.81517120  0.65333941  1
  O2-  O527  1  0.92364412  0.83353933  0.97451614  1
  O2-  O528  1  0.09732050  0.17125826  0.02557192  1
  O2-  O529  1  0.07521706  0.15994368  0.34612259  1
  O2-  O530  1  0.08645272  0.16879680  0.69046436  1
  O2-  O531  1  0.10252207  0.42644898  0.01273764  1
  O2-  O532  1  0.07419237  0.39469047  0.36132468  1
  O2-  O533  1  0.09773923  0.43137009  0.68640023  1
  O2-  O534  1  0.09125988  0.67497371  0.02190479  1
  O2-  O535  1  0.08592221  0.64967108  0.36697334  1
  O2-  O536  1  0.05591691  0.65328735  0.71160969  1
  O2-  O537  1  0.08388204  0.92013512  0.02510205  1
  O2-  O538  1  0.08289619  0.91955918  0.35524206  1
  O2-  O539  1  0.08387371  0.91626499  0.69519873  1
  O2-  O540  1  0.33616202  0.16726527  0.02149110  1
  O2-  O541  1  0.32779413  0.16351497  0.35941684  1
  O2-  O542  1  0.33325043  0.16617306  0.67806608  1
  O2-  O543  1  0.34787748  0.42777438  0.03099285  1
  O2-  O544  1  0.32798935  0.40449280  0.35722413  1
  O2-  O545  1  0.33969243  0.42020986  0.68737011  1
  O2-  O546  1  0.34330311  0.67278568  0.02034539  1
  O2-  O547  1  0.36435845  0.68894828  0.33697709  1
  O2-  O548  1  0.33672302  0.67009268  0.69328286  1
  O2-  O549  1  0.33868509  0.91898451  0.02693207  1
  O2-  O550  1  0.33724537  0.93754171  0.35182343  1
  O2-  O551  1  0.33576131  0.91098763  0.68735514  1
  O2-  O552  1  0.58695540  0.14321312  0.02954221  1
  O2-  O553  1  0.56821107  0.14640371  0.36018499  1
  O2-  O554  1  0.55887034  0.15324222  0.68498861  1
  O2-  O555  1  0.58133922  0.42781778  0.02871163  1
  O2-  O556  1  0.56844365  0.38534093  0.36509577  1
  O2-  O557  1  0.58629994  0.41860946  0.69368457  1
  O2-  O558  1  0.59034267  0.66737593  0.01593069  1
  O2-  O559  1  0.57702493  0.68452616  0.35524797  1
  O2-  O560  1  0.57281197  0.68515550  0.66695669  1
  O2-  O561  1  0.57700711  0.89491396  0.01398161  1
  O2-  O562  1  0.60682676  0.98553242  0.35012711  1
  O2-  O563  1  0.58231778  0.92513997  0.68840216  1
  O2-  O564  1  0.84795969  0.16829875  0.01659215  1
  O2-  O565  1  0.86393166  0.18163102  0.34478285  1
  O2-  O566  1  0.86867358  0.19002387  0.70936048  1
  O2-  O567  1  0.82217439  0.44222801  0.03381291  1
  O2-  O568  1  0.79833246  0.33730300  0.38376423  1
  O2-  O569  1  0.84682568  0.41987809  0.69069050  1
  O2-  O570  1  0.84498973  0.67663237  0.02459475  1
  O2-  O571  1  0.83119772  0.69493050  0.35626990  1
  O2-  O572  1  0.83287810  0.64944775  0.69610853  1
  O2-  O573  1  0.83226426  0.90945753  -0.00453462  1
  O2-  O574  1  0.83299789  0.93078221  0.37095105  1
  O2-  O575  1  0.82628523  0.88843900  0.69167560  1
