# generated using pymatgen
data_H2O
_symmetry_space_group_name_H-M   'P 1'
_cell_length_a   17.99194597
_cell_length_b   17.99185462
_cell_length_c   22.01040220
_cell_angle_alpha   90.00897178
_cell_angle_beta   90.00110015
_cell_angle_gamma   119.98444140
_symmetry_Int_Tables_number   1
_chemical_formula_structural   H2O
_chemical_formula_sum   'H384 O192'
_cell_volume   6171.35799724
_cell_formula_units_Z   192
loop_
 _symmetry_equiv_pos_site_id
 _symmetry_equiv_pos_as_xyz
  1  'x, y, z'
loop_
 _atom_type_symbol
 _atom_type_oxidation_number
  H+  1.0
  O2-  -2.0
loop_
 _atom_site_type_symbol
 _atom_site_label
 _atom_site_symmetry_multiplicity
 _atom_site_fract_x
 _atom_site_fract_y
 _atom_site_fract_z
 _atom_site_occupancy
  H+  H0  1  0.88717308  0.31903800  0.57666328  1
  H+  H1  1  0.27204354  0.62267603  0.31745317  1
  H+  H2  1  0.90005015  0.28079447  0.33178970  1
  H+  H3  1  0.76849926  0.63963011  0.82977762  1
  H+  H4  1  0.22429002  0.21806244  0.16620684  1
  H+  H5  1  0.28137952  0.13442924  0.82281098  1
  H+  H6  1  0.13170000  0.07635500  0.84483150  1
  H+  H7  1  0.22145321  0.30343426  0.62108001  1
  H+  H8  1  0.87390642  0.74050341  0.68801998  1
  H+  H9  1  0.34651310  0.16803277  0.41215246  1
  H+  H10  1  0.17658134  0.04838535  0.89640304  1
  H+  H11  1  0.83967812  0.70243523  0.43857754  1
  H+  H12  1  0.05262914  0.42008280  0.48222494  1
  H+  H13  1  0.38042853  0.62764016  0.15712017  1
  H+  H14  1  0.66959842  0.06369619  0.33424003  1
  H+  H15  1  0.89904817  0.78806370  0.17972016  1
  H+  H16  1  0.38817402  0.01159707  0.32542697  1
  H+  H17  1  0.47821054  0.11400169  -0.00439239  1
  H+  H18  1  0.03022057  0.12037310  0.35392259  1
  H+  H19  1  0.11200643  0.94814567  0.82528929  1
  H+  H20  1  0.61839943  0.64603584  0.68102217  1
  H+  H21  1  0.86141907  0.97897889  0.67799582  1
  H+  H22  1  0.65233770  0.49217803  0.35266813  1
  H+  H23  1  0.83780476  0.91564435  0.07063977  1
  H+  H24  1  0.72585479  0.35975692  0.33493949  1
  H+  H25  1  0.87859463  0.49563857  0.49338884  1
  H+  H26  1  0.64238203  0.11543388  0.65976483  1
  H+  H27  1  0.59591645  0.83231220  0.32178099  1
  H+  H28  1  0.53648843  0.63253829  0.34364216  1
  H+  H29  1  1.09000607  0.64353061  0.68009624  1
  H+  H30  1  0.00312864  0.08973638  0.82679845  1
  H+  H31  1  0.86048041  0.12161569  0.00104090  1
  H+  H32  1  0.35144306  0.71491162  0.00136173  1
  H+  H33  1  0.12665183  0.39627331  0.48725574  1
  H+  H34  1  0.35358807  0.13572245  0.50951219  1
  H+  H35  1  0.86043989  0.73230658  0.82891521  1
  H+  H36  1  0.32405209  0.90666813  0.76909549  1
  H+  H37  1  0.35919591  0.47840669  0.49790043  1
  H+  H38  1  0.11769787  0.74227528  0.00283097  1
  H+  H39  1  0.25404620  0.88229735  0.51268571  1
  H+  H40  1  0.23651390  0.14053925  0.01719782  1
  H+  H41  1  0.33523527  0.67196016  0.77781361  1
  H+  H42  1  0.05497372  0.81931237  0.43890393  1
  H+  H43  1  0.85077247  0.24084472  0.15729291  1
  H+  H44  1  0.50086492  0.41115867  0.18235792  1
  H+  H45  1  0.11392335  0.64013616  0.00622519  1
  H+  H46  1  0.51999256  0.64012548  0.49584937  1
  H+  H47  1  0.35920595  0.22680474  0.50312092  1
  H+  H48  1  0.85203955  0.96081595  0.34387004  1
  H+  H49  1  0.10547382  0.48988697  0.82393639  1
  H+  H50  1  0.45327939  0.25338937  0.14243213  1
  H+  H51  1  0.57898351  0.15759433  0.73471378  1
  H+  H52  1  0.40898574  0.57954495  1.04563657  1
  H+  H53  1  0.65672525  0.62171020  0.18314029  1
  H+  H54  1  0.90527096  0.88019403  0.99376878  1
  H+  H55  1  0.66142438  0.73100051  0.32500113  1
  H+  H56  1  0.77531980  0.13364320  0.82547395  1
  H+  H57  1  0.13918815  0.86721709  0.98692744  1
  H+  H58  1  0.87732744  0.60612860  0.84555497  1
  H+  H59  1  0.40706340  0.82043552  1.06447753  1
  H+  H60  1  0.37601595  0.39260461  0.83042172  1
  H+  H61  1  0.22299041  0.84505200  0.83868758  1
  H+  H62  1  0.75325916  0.61501899  1.02037939  1
  H+  H63  1  0.39455944  1.01196648  0.83982701  1
  H+  H64  1  0.98553551  0.63373950  0.51144624  1
  H+  H65  1  0.67287988  0.83651088  0.60607763  1
  H+  H66  1  0.37234024  0.36188612  -0.00567797  1
  H+  H67  1  0.11900583  0.64925981  0.50184630  1
  H+  H68  1  0.14302600  0.61876847  0.33141720  1
  H+  H69  1  0.24923927  0.39412481  0.83473248  1
  H+  H70  1  0.46195676  0.11061560  0.52259881  1
  H+  H71  1  0.89232261  0.11248210  0.66059692  1
  H+  H72  1  0.83022525  0.42019739  0.77001014  1
  H+  H73  1  0.89181141  0.86554879  0.67633709  1
  H+  H74  1  0.96875972  0.62260995  0.99758592  1
  H+  H75  1  0.83375185  0.19696594  0.49853779  1
  H+  H76  1  0.38129595  0.76874207  0.84241386  1
  H+  H77  1  0.78126562  0.88949432  0.00965665  1
  H+  H78  1  0.72599802  0.36436113  0.83766860  1
  H+  H79  1  0.35951188  0.88518404  0.67851533  1
  H+  H80  1  0.63316572  0.27295501  0.33885313  1
  H+  H81  1  0.83343622  0.67249626  0.75371099  1
  H+  H82  1  0.89408331  0.36750211  0.33011186  1
  H+  H83  1  0.10943948  0.55634811  0.17962095  1
  H+  H84  1  0.03158655  0.63242089  0.34603310  1
  H+  H85  1  0.85934407  0.39767766  0.49829443  1
  H+  H86  1  0.83549503  -0.03695865  0.16813097  1
  H+  H87  1  0.72893409  0.62156606  0.66716255  1
  H+  H88  1  0.47909749  0.02401406  0.46925547  1
  H+  H89  1  0.58520275  0.97733077  0.40038265  1
  H+  H90  1  0.36210804  0.22915094  0.81852202  1
  H+  H91  1  0.52992221  0.88504907  0.01536895  1
  H+  H92  1  0.17590604  0.13278510  0.96332915  1
  H+  H93  1  0.97885647  0.62175258  0.17032555  1
  H+  H94  1  0.97526385  0.11271713  0.99035039  1
  H+  H95  1  0.62903779  0.64843193  0.83133045  1
  H+  H96  1  0.23403481  0.63122862  0.52318688  1
  H+  H97  1  0.48379590  0.36492192  0.83992512  1
  H+  H98  1  0.36787745  0.72858242  0.68627903  1
  H+  H99  1  0.63794993  1.02594667  0.84040085  1
  H+  H100  1  0.88272263  0.60292042  0.32383457  1
  H+  H101  1  0.65534363  0.35899828  0.99666944  1
  H+  H102  1  0.53069959  0.64204861  0.00311927  1
  H+  H103  1  0.63686678  0.85173600  0.18258650  1
  H+  H104  1  0.88421732  0.36136070  0.83337833  1
  H+  H105  1  0.60685471  0.13044938  0.16464077  1
  H+  H106  1  0.47028502  0.86343492  0.66921822  1
  H+  H107  1  0.28487800  0.86014589  0.36605142  1
  H+  H108  1  0.23726380  0.37431793  0.33300824  1
  H+  H109  1  0.46598801  0.84911895  0.36431097  1
  H+  H110  1  0.60045597  0.43145620  0.41652847  1
  H+  H111  1  0.09451725  0.73391003  0.67749717  1
  H+  H112  1  0.62931097  0.38952255  0.35272338  1
  H+  H113  1  0.88857063  0.86475186  0.83383821  1
  H+  H114  1  0.97183362  0.62722730  0.66973639  1
  H+  H115  1  0.75377595  0.87874136  0.82977331  1
  H+  H116  1  0.32193036  0.40978030  0.40864777  1
  H+  H117  1  0.97935221  0.10786332  0.65932527  1
  H+  H118  1  0.63695975  0.77481328  0.51531388  1
  H+  H119  1  0.12982146  1.03093603  0.50987170  1
  H+  H120  1  0.11569869  0.75599375  0.15244105  1
  H+  H121  1  0.43696920  0.64749832  0.21629645  1
  H+  H122  1  0.37038620  0.74439121  0.51516856  1
  H+  H123  1  0.66144881  0.24114006  0.50719079  1
  H+  H124  1  0.35615649  0.87605623  0.82699593  1
  H+  H125  1  0.12237629  0.67099097  0.15885037  1
  H+  H126  1  0.16223253  0.87871672  0.50806276  1
  H+  H127  1  0.02458353  0.39481679  0.82417206  1
  H+  H128  1  0.63252741  0.25514876  0.49278084  1
  H+  H129  1  0.61499746  0.22590402  0.82679901  1
  H+  H130  1  0.85871871  0.48523101  0.67462100  1
  H+  H131  1  0.76910067  0.88843712  0.67690228  1
  H+  H132  1  0.60747638  0.49046926  0.67666911  1
  H+  H133  1  0.07193612  0.21098076  0.06056602  1
  H+  H134  1  0.03652355  0.90794371  0.00578766  1
  H+  H135  1  0.12766471  0.69481277  0.84056139  1
  H+  H136  1  0.36732990  0.50064719  0.16914780  1
  H+  H137  1  0.14217397  0.37767616  0.32363110  1
  H+  H138  1  0.11894443  0.45499205  0.15047169  1
  H+  H139  1  0.81863663  0.90151098  0.40507153  1
  H+  H140  1  0.64635075  0.78145914  -0.01017560  1
  H+  H141  1  0.10627288  0.36398962  0.15719654  1
  H+  H142  1  0.63051013  0.86056091  0.52230201  1
  H+  H143  1  0.19335145  0.04228382  0.15900764  1
  H+  H144  1  0.61413891  0.13192556  0.00618309  1
  H+  H145  1  0.39836413  0.12360751  0.17621952  1
  H+  H146  1  0.93216640  0.32124815  0.51540178  1
  H+  H147  1  0.26566567  0.65421769  0.82923673  1
  H+  H148  1  0.21935462  0.11656031  0.51254102  1
  H+  H149  1  0.75652847  0.83288990  0.32420195  1
  H+  H150  1  0.86470917  0.47355375  0.33640223  1
  H+  H151  1  0.84731806  0.62925473  0.01613861  1
  H+  H152  1  0.61963552  0.39241441  0.82904526  1
  H+  H153  1  0.17368578  0.84233352  0.60488644  1
  H+  H154  1  0.72600544  0.85294735  0.17339215  1
  H+  H155  1  0.11117934  0.14192316  0.50049694  1
  H+  H156  1  0.36082200  0.10533749  0.67059341  1
  H+  H157  1  0.52331618  0.13306619  0.33712395  1
  H+  H158  1  -0.02528713  0.85702723  0.83068496  1
  H+  H159  1  0.37693438  0.02039500  0.52127915  1
  H+  H160  1  0.26987993  0.38786990  0.49790983  1
  H+  H161  1  0.11634877  0.53347489  0.66677414  1
  H+  H162  1  1.02408305  0.39113323  0.99401148  1
  H+  H163  1  0.64354357  0.52741169  0.83904465  1
  H+  H164  1  0.37742643  0.64551267  0.68471455  1
  H+  H165  1  0.38089710  0.88872316  0.37650243  1
  H+  H166  1  0.98348274  0.87087081  0.67418788  1
  H+  H167  1  0.97003320  0.36567596  0.66216950  1
  H+  H168  1  0.33749864  0.62008255  0.98882415  1
  H+  H169  1  0.64517275  0.26652115  -0.00522806  1
  H+  H170  1  0.64563477  0.77486811  0.84186327  1
  H+  H171  1  0.39697710  0.53323187  0.66300790  1
  H+  H172  1  0.38770157  0.61734687  0.51462502  1
  H+  H173  1  0.76535333  0.87427019  0.49958864  1
  H+  H174  1  0.03027861  0.04056236  0.78154735  1
  H+  H175  1  0.79184480  0.39330096  0.01076449  1
  H+  H176  1  0.97558848  0.35659778  0.17446599  1
  H+  H177  1  0.61974125  0.98767186  0.51692576  1
  H+  H178  1  0.61079459  0.29364215  0.65088199  1
  H+  H179  1  0.39050529  0.36903716  0.50778427  1
  H+  H180  1  0.77405701  0.21051880  0.11220253  1
  H+  H181  1  0.34181226  0.82364749  0.28151518  1
  H+  H182  1  0.54030220  0.64535220  0.84071030  1
  H+  H183  1  0.03005648  0.39154819  0.33464459  1
  H+  H184  1  0.37663648  0.13565840  0.35351312  1
  H+  H185  1  0.61107714  0.40603484  0.67499485  1
  H+  H186  1  0.61031907  0.96971681  0.16580077  1
  H+  H187  1  0.64246233  0.78003916  0.66731077  1
  H+  H188  1  0.12858806  0.74204195  0.49866232  1
  H+  H189  1  0.52825121  0.40049031  0.49484531  1
  H+  H190  1  0.89829361  0.26309874  -0.01882814  1
  H+  H191  1  0.15221855  0.54169298  0.50923568  1
  H+  H192  1  0.88508096  0.52982302  0.00282252  1
  H+  H193  1  0.51107308  0.12498800  0.68047711  1
  H+  H194  1  0.36420618  0.39449850  0.67730609  1
  H+  H195  1  0.48124715  0.86196048  0.52225098  1
  H+  H196  1  0.15884109  0.27569375  0.17709785  1
  H+  H197  1  0.91390796  0.07307317  0.56334978  1
  H+  H198  1  0.87440017  0.65165301  0.16491448  1
  H+  H199  1  0.62794521  0.42000069  0.50302813  1
  H+  H200  1  0.89132608  0.52985131  0.17374381  1
  H+  H201  1  -0.02781917  0.10580994  0.50420695  1
  H+  H202  1  0.88094531  0.10709445  0.83744058  1
  H+  H203  1  0.59512374  0.50621349  0.98342703  1
  H+  H204  1  0.11150741  0.39948302  0.67445468  1
  H+  H205  1  0.15971338  0.86687291  0.32007639  1
  H+  H206  1  0.47917536  0.11126616  0.17537523  1
  H+  H207  1  0.61155205  0.22228547  0.16428764  1
  H+  H208  1  0.35481065  -0.02653138  0.68123485  1
  H+  H209  1  0.95460483  0.84294004  0.27311473  1
  H+  H210  1  0.15777452  0.82410089  0.92718029  1
  H+  H211  1  0.48058489  0.87135605  0.33387627  1
  H+  H212  1  0.64626978  0.87026192  0.99220859  1
  H+  H213  1  0.01273233  0.08863804  0.20915322  1
  H+  H214  1  0.37271186  0.89754450  0.14545877  1
  H+  H215  1  0.14074550  0.52891224  0.31933441  1
  H+  H216  1  0.98259675  0.88082496  0.17693220  1
  H+  H217  1  0.11840547  0.12777121  0.34012983  1
  H+  H218  1  0.11273608  0.52586393  -0.00362647  1
  H+  H219  1  0.39169818  0.59307019  0.31151817  1
  H+  H220  1  0.47608708  0.87917490  0.15226395  1
  H+  H221  1  0.93573331  0.85377278  0.93331969  1
  H+  H222  1  0.79286235  0.15621280  0.33650513  1
  H+  H223  1  0.77332817  0.39229225  0.67205729  1
  H+  H224  1  0.28091646  0.88209120  -0.01916950  1
  H+  H225  1  0.15662259  0.39445437  0.83495651  1
  H+  H226  1  0.36656105  0.27116741  0.66029279  1
  H+  H227  1  0.85189598  0.97696209  0.82676442  1
  H+  H228  1  0.12853246  0.27175231  0.50180362  1
  H+  H229  1  0.71028642  0.59361389  0.27660758  1
  H+  H230  1  0.86654862  0.64230728  0.68360896  1
  H+  H231  1  0.12777372  0.83034715  0.83316101  1
  H+  H232  1  0.36024210  0.33833501  0.33065686  1
  H+  H233  1  0.28045821  0.40132660  0.68347509  1
  H+  H234  1  0.38947392  0.11417082  -0.00591904  1
  H+  H235  1  0.62629974  0.60525303  -0.01042459  1
  H+  H236  1  0.82051966  0.69514903  0.32310289  1
  H+  H237  1  0.12625843  0.90323836  0.67197378  1
  H+  H238  1  0.23007433  0.37451048  0.17734812  1
  H+  H239  1  0.63759861  0.87016687  0.31097017  1
  H+  H240  1  0.09616577  0.00220264  0.31224362  1
  H+  H241  1  0.48642302  0.62146564  0.66245781  1
  H+  H242  1  0.22521252  0.86502691  0.66717629  1
  H+  H243  1  0.14168935  0.26399234  0.66228962  1
  H+  H244  1  0.60497704  0.88564070  0.67514541  1
  H+  H245  1  0.13754143  0.14667787  0.68136536  1
  H+  H246  1  0.88841589  0.27386162  0.82959733  1
  H+  H247  1  0.75292629  0.63778297  0.18169734  1
  H+  H248  1  1.00648709  0.12459728  0.19739482  1
  H+  H249  1  0.36157702  0.46512536  0.34702710  1
  H+  H250  1  0.65560227  0.36897836  0.17572449  1
  H+  H251  1  0.72949518  0.63533689  0.51258657  1
  H+  H252  1  0.61642793  0.97641772  0.00595084  1
  H+  H253  1  0.74799508  0.41883652  0.51265268  1
  H+  H254  1  0.67207419  0.59655539  0.60637711  1
  H+  H255  1  0.89177221  0.01744261  0.99559123  1
  H+  H256  1  0.83360224  0.09161158  0.18093626  1
  H+  H257  1  0.06517217  0.82538767  0.29706722  1
  H+  H258  1  0.26101723  0.63283601  0.14733637  1
  H+  H259  1  0.52141139  0.88650526  0.83146135  1
  H+  H260  1  0.64337105  0.11771541  0.83921258  1
  H+  H261  1  0.36407969  0.23662881  0.16825627  1
  H+  H262  1  0.46067420  0.35585871  0.66622028  1
  H+  H263  1  0.66447463  0.08096397  0.93215342  1
  H+  H264  1  0.86871436  0.39246882  0.16832684  1
  H+  H265  1  -0.00516560  0.84069820  0.47650426  1
  H+  H266  1  0.27379083  0.89921306  0.15667935  1
  H+  H267  1  0.88186043  0.36676573  0.66609914  1
  H+  H268  1  0.37142480  0.49432614  0.00779974  1
  H+  H269  1  0.33957703  0.33839919  0.18529659  1
  H+  H270  1  0.43350913  0.55027401  0.27058136  1
  H+  H271  1  0.02091112  0.89875594  0.38608259  1
  H+  H272  1  0.70450909  0.08091062  0.50295399  1
  H+  H273  1  0.13972664  0.99838925  0.68316000  1
  H+  H274  1  0.41527740  0.52771075  0.85412303  1
  H+  H275  1  0.49161711  0.39349398  0.15057577  1
  H+  H276  1  0.89421762  0.11670716  0.32941442  1
  H+  H277  1  0.85562824  0.47302257  0.83294174  1
  H+  H278  1  0.86849898  0.22434438  0.67591007  1
  H+  H279  1  0.65386022  0.14069914  0.32339160  1
  H+  H280  1  0.12586481  0.99677915  0.01390609  1
  H+  H281  1  0.71280968  0.10803029  0.17289065  1
  H+  H282  1  0.61131495  0.88861524  0.83035156  1
  H+  H283  1  0.86507332  0.89088421  0.17005146  1
  H+  H284  1  0.34602042  0.73870729  0.27205479  1
  H+  H285  1  0.24206415  0.36152145  0.97874077  1
  H+  H286  1  0.72522440  0.10739918  -0.00956109  1
  H+  H287  1  0.66833842  0.50709869  0.16493145  1
  H+  H288  1  0.66436866  0.25245071  0.64268478  1
  H+  H289  1  0.30732512  0.64381190  0.08249534  1
  H+  H290  1  0.35425469  0.43374407  0.77309647  1
  H+  H291  1  0.53273753  0.63876579  0.15143758  1
  H+  H292  1  0.07902051  0.41959012  0.05511343  1
  H+  H293  1  0.67969995  0.84121700  0.90069197  1
  H+  H294  1  0.07990083  0.42380020  0.73498853  1
  H+  H295  1  0.34661278  0.44150258  0.11155144  1
  H+  H296  1  0.09833747  0.42770602  0.39044162  1
  H+  H297  1  0.59270190  0.67136036  0.06065460  1
  H+  H298  1  0.53088329  0.13079914  0.82834919  1
  H+  H299  1  0.13523658  0.13526425  0.15263700  1
  H+  H300  1  0.77804939  0.38779243  0.17059502  1
  H+  H301  1  0.62127818  0.72447817  0.15604971  1
  H+  H302  1  0.83555337  0.67496385  0.10672409  1
  H+  H303  1  0.13937010  0.28529463  0.97405397  1
  H+  H304  1  0.11456943  0.16505586  0.02580254  1
  H+  H305  1  0.08569958  0.16055956  0.73390780  1
  H+  H306  1  0.84130532  0.16713315  0.39947076  1
  H+  H307  1  0.34175622  0.28820514  0.24656416  1
  H+  H308  1  0.15565958  0.33163946  0.56108917  1
  H+  H309  1  0.20526898  0.61512488  0.98924687  1
  H+  H310  1  0.56805413  0.88239952  0.46205966  1
  H+  H311  1  0.29499640  0.35148499  0.05125902  1
  H+  H312  1  0.58790416  0.67511634  0.74042036  1
  H+  H313  1  0.83899014  0.42874832  0.07417865  1
  H+  H314  1  0.89774750  0.63508396  0.50859591  1
  H+  H315  1  0.64378229  0.54320548  0.50986819  1
  H+  H316  1  0.34214647  0.94379864  0.44996001  1
  H+  H317  1  0.44036462  0.57775786  0.91707858  1
  H+  H318  1  0.39352729  0.87255566  0.51508451  1
  H+  H319  1  0.90151780  0.57634930  0.90643987  1
  H+  H320  1  0.66425673  0.08517482  0.23589432  1
  H+  H321  1  0.13397386  0.04791914  0.25057814  1
  H+  H322  1  0.08792525  0.16784414  0.43728949  1
  H+  H323  1  0.18416030  0.35149895  0.90545513  1
  H+  H324  1  0.61113526  0.64443308  0.49914358  1
  H+  H325  1  0.59019411  0.67118506  0.40547558  1
  H+  H326  1  0.69142654  0.79469227  0.26142615  1
  H+  H327  1  0.42600462  0.07430560  0.89713585  1
  H+  H328  1  0.14146793  0.59503027  0.90152446  1
  H+  H329  1  0.66846998  0.33288267  0.89736889  1
  H+  H330  1  0.90972176  0.59675915  0.60967007  1
  H+  H331  1  0.17711717  0.34153184  0.26493988  1
  H+  H332  1  0.37110236  0.23666455  0.00809181  1
  H+  H333  1  0.35589896  0.18601305  0.07052898  1
  H+  H334  1  0.40897187  0.83350392  0.61094227  1
  H+  H335  1  0.09026114  0.68749784  0.07050962  1
  H+  H336  1  0.95313275  0.09977920  0.28192968  1
  H+  H337  1  0.41238597  0.83637886  0.89843149  1
  H+  H338  1  0.92314002  0.58375241  0.26668351  1
  H+  H339  1  0.67145220  0.08679129  0.59947934  1
  H+  H340  1  0.63464105  0.93658882  0.36906437  1
  H+  H341  1  0.33275394  0.68144593  0.45804071  1
  H+  H342  1  0.42012111  0.34084713  0.56709759  1
  H+  H343  1  0.58702440  0.42499253  0.77163947  1
  H+  H344  1  0.38574538  0.81750924  0.18810885  1
  H+  H345  1  0.35849267  0.67923854  0.35481937  1
  H+  H346  1  0.42147144  0.58459122  0.56906660  1
  H+  H347  1  0.57838804  0.07139136  0.48844974  1
  H+  H348  1  0.64839062  0.46107271  0.10084619  1
  H+  H349  1  0.82236070  0.91842393  0.76031581  1
  H+  H350  1  0.08888552  0.93913580  0.09437809  1
  H+  H351  1  0.57606731  0.91367658  0.73471213  1
  H+  H352  1  0.30071812  0.16293031  0.73011774  1
  H+  H353  1  0.14329787  0.88669400  0.16130898  1
  H+  H354  1  0.58529690  0.16277221  0.06628430  1
  H+  H355  1  0.78002933  0.13833423  0.66990400  1
  H+  H356  1  0.09049539  0.66502533  0.40545366  1
  H+  H357  1  0.15782639  0.84743385  0.22175422  1
  H+  H358  1  0.85296677  0.11929611  0.49263653  1
  H+  H359  1  0.83883139  0.42161505  0.39867641  1
  H+  H360  1  0.59164797  0.91623245  0.10416104  1
  H+  H361  1  0.85779332  0.81924361  0.49460002  1
  H+  H362  1  0.08250216  0.90485830  0.76109166  1
  H+  H363  1  0.90692926  0.07208850  0.89797607  1
  H+  H364  1  0.56990651  0.14079881  0.39861579  1
  H+  H365  1  0.83436376  0.15926119  0.76512225  1
  H+  H366  1  0.66826683  0.58200866  0.90032968  1
  H+  H367  1  0.14833167  0.59435711  0.60984449  1
  H+  H368  1  0.83433848  0.16110825  0.05737564  1
  H+  H369  1  0.68599183  0.37018618  0.56826461  1
  H+  H370  1  0.85984730  0.95520037  0.49549158  1
  H+  H371  1  0.38730073  0.85664392  1.00485453  1
  H+  H372  1  0.51580896  0.36204692  0.02726216  1
  H+  H373  1  0.36923394  0.97067136  -0.01683689  1
  H+  H374  1  0.42356991  0.33461111  0.89839690  1
  H+  H375  1  0.36647449  0.99185530  0.15951642  1
  H+  H376  1  0.66356109  0.32838777  0.23853523  1
  H+  H377  1  0.16816311  0.60745601  0.23461604  1
  H+  H378  1  0.83444255  0.04996656  0.24353365  1
  H+  H379  1  0.92535803  0.32498116  0.92315863  1
  H+  H380  1  0.92066943  0.33311938  0.23666686  1
  H+  H381  1  0.41370489  0.07482592  0.26866758  1
  H+  H382  1  0.39921299  0.08226677  0.61373437  1
  H+  H383  1  0.37279491  0.25584063  0.33011649  1
  O2-  O384  1  0.16828398  0.19720424  0.14474924  1
  O2-  O385  1  0.08120761  0.17194332  0.48235244  1
  O2-  O386  1  0.05450922  0.09108438  0.80777802  1
  O2-  O387  1  0.07738579  0.39541870  0.14111771  1
  O2-  O388  1  0.11012076  0.43740482  0.46770043  1
  O2-  O389  1  0.08597991  0.43035751  0.81021703  1
  O2-  O390  1  0.08800895  0.69390295  0.13906523  1
  O2-  O391  1  0.09111375  0.68122488  0.48518271  1
  O2-  O392  1  0.09418658  0.63125122  0.83497419  1
  O2-  O393  1  0.08665349  0.93662942  0.14221391  1
  O2-  O394  1  0.05119639  0.86806060  0.45450223  1
  O2-  O395  1  0.07389391  0.89153238  0.80624594  1
  O2-  O396  1  0.39317826  0.20828873  0.14477916  1
  O2-  O397  1  0.32503688  0.16579569  0.49069189  1
  O2-  O398  1  0.33122592  0.17281983  0.79774796  1
  O2-  O399  1  0.33648667  0.43965173  0.15541216  1
  O2-  O400  1  0.33015764  0.41753162  0.48257382  1
  O2-  O401  1  0.35201673  0.43036454  0.81837097  1
  O2-  O402  1  0.31557715  0.64680052  0.12733743  1
  O2-  O403  1  0.33816632  0.67945207  0.50185218  1
  O2-  O404  1  0.32730472  0.67659745  0.82303891  1
  O2-  O405  1  0.33508341  0.93147342  0.14083249  1
  O2-  O406  1  0.35168857  0.93530489  0.49218824  1
  O2-  O407  1  0.32194406  0.90352845  0.81491177  1
  O2-  O408  1  0.57881525  0.16231754  0.14783051  1
  O2-  O409  1  0.53384209  0.07802113  0.46431470  1
  O2-  O410  1  0.59170983  0.16603720  0.81206885  1
  O2-  O411  1  0.65722914  0.45348214  0.14336134  1
  O2-  O412  1  0.58884764  0.43654171  0.47959350  1
  O2-  O413  1  0.59014442  0.42541876  0.81669379  1
  O2-  O414  1  0.59318603  0.66481502  0.13846088  1
  O2-  O415  1  0.58075560  0.67275003  0.48104107  1
  O2-  O416  1  0.59847281  0.67999169  0.81974786  1
  O2-  O417  1  0.58053224  0.91005789  0.14896881  1
  O2-  O418  1  0.57165940  0.89324179  0.50548947  1
  O2-  O419  1  0.58238207  0.91996782  0.81690036  1
  O2-  O420  1  0.80716302  0.18905077  0.13350941  1
  O2-  O421  1  0.81929861  0.14481017  0.47493929  1
  O2-  O422  1  0.83624043  0.16094707  0.81081169  1
  O2-  O423  1  0.83785223  0.42265838  0.15502628  1
  O2-  O424  1  0.84273327  0.43596514  0.47731678  1
  O2-  O425  1  0.82744395  0.41295343  0.81485202  1
  O2-  O426  1  0.84733767  0.68588768  0.15213598  1
  O2-  O427  1  0.83864734  0.69907243  0.48344657  1
  O2-  O428  1  0.82937841  0.67154769  0.81217120  1
  O2-  O429  1  0.82693041  0.90884070  0.14936312  1
  O2-  O430  1  0.82429415  0.89489055  0.48129054  1
  O2-  O431  1  0.82101065  0.91536526  0.80941023  1
  O2-  O432  1  0.13283990  0.02675206  0.16336941  1
  O2-  O433  1  0.15747362  0.08993006  0.52423149  1
  O2-  O434  1  0.17323548  0.05588981  0.85292228  1
  O2-  O435  1  0.17107583  0.33368697  0.19268085  1
  O2-  O436  1  0.15896370  0.33435545  0.51605990  1
  O2-  O437  1  0.18749888  0.36430880  0.84902714  1
  O2-  O438  1  0.16237771  0.60934870  0.18883181  1
  O2-  O439  1  0.17020018  0.59751699  0.52864968  1
  O2-  O440  1  0.15107590  0.60016635  0.85659506  1
  O2-  O441  1  0.17225587  0.85503507  0.17668060  1
  O2-  O442  1  0.18956752  0.84757637  0.52426085  1
  O2-  O443  1  0.16187940  0.80881964  0.85447216  1
  O2-  O444  1  0.41750228  0.08264869  0.18970568  1
  O2-  O445  1  0.40285073  0.08343987  0.53794308  1
  O2-  O446  1  0.43518324  0.07143559  0.85325899  1
  O2-  O447  1  0.32023869  0.28013761  0.20046518  1
  O2-  O448  1  0.42471132  0.34261170  0.52195716  1
  O2-  O449  1  0.42239096  0.33432296  0.85307558  1
  O2-  O450  1  0.42197768  0.61265747  0.17950391  1
  O2-  O451  1  0.41563705  0.58261541  0.52329444  1
  O2-  O452  1  0.45317130  0.58430969  0.87373577  1
  O2-  O453  1  0.41140009  0.85137841  0.14916837  1
  O2-  O454  1  0.41566904  0.83582492  0.53274901  1
  O2-  O455  1  0.41727571  0.83351113  0.85454791  1
  O2-  O456  1  0.65463194  0.07484717  0.19077563  1
  O2-  O457  1  0.64806306  0.05400150  0.52323115  1
  O2-  O458  1  0.67257664  0.08630312  0.85557470  1
  O2-  O459  1  0.66875129  0.32556405  0.19380975  1
  O2-  O460  1  0.70017799  0.41534107  0.53756346  1
  O2-  O461  1  0.66456988  0.33536032  0.85245405  1
  O2-  O462  1  0.69384958  0.60101089  0.20051321  1
  O2-  O463  1  0.67039148  0.60112643  0.52895797  1
  O2-  O464  1  0.67449676  0.58822592  0.85494592  1
  O2-  O465  1  0.66678024  0.81921059  0.19181466  1
  O2-  O466  1  0.66999760  0.83430188  0.53161258  1
  O2-  O467  1  0.67832646  0.83867409  0.85455865  1
  O2-  O468  1  0.81160545  0.03674627  0.20178469  1
  O2-  O469  1  0.91122124  0.07092564  0.51815064  1
  O2-  O470  1  0.90475499  0.06950456  0.85236805  1
  O2-  O471  1  0.91654905  0.33228471  0.19117635  1
  O2-  O472  1  0.87749354  0.31161013  0.53098724  1
  O2-  O473  1  0.91971568  0.33445505  0.84392832  1
  O2-  O474  1  0.92104796  0.59056531  0.18894467  1
  O2-  O475  1  0.92362729  0.60157909  0.52386215  1
  O2-  O476  1  0.89738090  0.56839394  0.86154331  1
  O2-  O477  1  0.92644983  0.84730867  0.19788613  1
  O2-  O478  1  0.89140563  0.78916480  0.50394367  1
  O2-  O479  1  0.91553647  0.83250740  0.84940141  1
  O2-  O480  1  0.14122335  0.05688517  0.29465015  1
  O2-  O481  1  0.20046108  0.10880064  0.67253331  1
  O2-  O482  1  0.17367085  0.11528550  1.00552417  1
  O2-  O483  1  0.17660436  0.34831402  0.31110891  1
  O2-  O484  1  0.18170061  0.31905862  0.63954680  1
  O2-  O485  1  0.18291147  0.34209757  0.95765391  1
  O2-  O486  1  0.17295440  0.59098877  0.30819168  1
  O2-  O487  1  0.13829198  0.59324009  0.65393641  1
  O2-  O488  1  0.14213909  0.59075878  0.98195154  1
  O2-  O489  1  0.12078658  0.82673477  0.28999712  1
  O2-  O490  1  0.16587606  0.84144335  0.64962773  1
  O2-  O491  1  0.16088089  0.82893102  0.97344479  1
  O2-  O492  1  0.41785620  0.07250303  0.31372531  1
  O2-  O493  1  0.39743461  0.08080650  0.65932560  1
  O2-  O494  1  0.41819140  0.08270330  0.98010861  1
  O2-  O495  1  0.38123760  0.30743832  0.30550745  1
  O2-  O496  1  0.40313560  0.33229337  0.64755147  1
  O2-  O497  1  0.41735644  0.33797138  0.97726170  1
  O2-  O498  1  0.42616926  0.56322483  0.31249908  1
  O2-  O499  1  0.42765613  0.59129747  0.64427288  1
  O2-  O500  1  0.40256777  0.55899719  1.00385935  1
  O2-  O501  1  0.33581283  0.78112378  0.25087341  1
  O2-  O502  1  0.40780464  0.83358943  0.65626814  1
  O2-  O503  1  0.41430267  0.82165023  1.01998427  1
  O2-  O504  1  0.68958412  0.11601003  0.30804007  1
  O2-  O505  1  0.69153440  0.11556164  0.63951809  1
  O2-  O506  1  0.66342840  0.07874393  0.97801278  1
  O2-  O507  1  0.66369766  0.33363936  0.32352368  1
  O2-  O508  1  0.66802527  0.30866462  0.63647500  1
  O2-  O509  1  0.67923003  0.32653579  0.97794410  1
  O2-  O510  1  0.71110339  0.58779318  0.32235241  1
  O2-  O511  1  0.66919001  0.59222613  0.65192563  1
  O2-  O512  1  0.64452144  0.56394800  0.97558985  1
  O2-  O513  1  0.71327604  0.77753261  0.29783675  1
  O2-  O514  1  0.67514125  0.84032595  0.65205311  1
  O2-  O515  1  0.67828659  0.84216516  0.97550347  1
  O2-  O516  1  0.90929707  0.07333222  0.31351511  1
  O2-  O517  1  0.91853961  0.07752288  0.64604908  1
  O2-  O518  1  0.91603541  0.07517426  0.97509763  1
  O2-  O519  1  0.92786971  0.34058823  0.31464380  1
  O2-  O520  1  0.90839796  0.33359400  0.64961933  1
  O2-  O521  1  0.93357189  0.32302276  0.96761633  1
  O2-  O522  1  0.91910545  0.57854105  0.31206695  1
  O2-  O523  1  0.90665338  0.59368172  0.65467925  1
  O2-  O524  1  0.90858910  0.58962603  0.98479557  1
  O2-  O525  1  0.97328373  0.83044284  0.31324839  1
  O2-  O526  1  0.92068191  0.83182983  0.66902257  1
  O2-  O527  1  0.94666060  0.86406038  0.97727102  1
  O2-  O528  1  0.07888209  0.19285382  0.02015528  1
  O2-  O529  1  0.09165466  0.15733153  0.36153587  1
  O2-  O530  1  0.09362555  0.16655238  0.68954136  1
  O2-  O531  1  0.08159441  0.43526266  0.01219871  1
  O2-  O532  1  0.09355038  0.42316177  0.34502878  1
  O2-  O533  1  0.07396556  0.42006785  0.68921167  1
  O2-  O534  1  0.08835474  0.68171341  0.02342999  1
  O2-  O535  1  0.09124005  0.65701019  0.36073313  1
  O2-  O536  1  0.05872069  0.67445586  0.69282928  1
  O2-  O537  1  0.09683876  0.93532079  0.02519401  1
  O2-  O538  1  0.00392853  0.91266555  0.34611706  1
  O2-  O539  1  0.09883083  0.93530193  0.68989588  1
  O2-  O540  1  0.33934587  0.17778328  0.02668100  1
  O2-  O541  1  0.36071401  0.17738649  0.36824067  1
  O2-  O542  1  0.29373001  0.15945750  0.68365450  1
  O2-  O543  1  0.32070839  0.38723274  0.01545015  1
  O2-  O544  1  0.31913493  0.40700308  0.36250949  1
  O2-  O545  1  0.34171727  0.43070502  0.69508836  1
  O2-  O546  1  0.30933311  0.65159568  0.00353316  1
  O2-  O547  1  0.33738184  0.64835643  0.31657971  1
  O2-  O548  1  0.34744498  0.67153754  0.70538943  1
  O2-  O549  1  0.34375656  0.90740344  -0.01994659  1
  O2-  O550  1  0.34177763  0.89344183  0.34795723  1
  O2-  O551  1  0.32544492  0.91218345  0.69428838  1
  O2-  O552  1  0.58638854  0.16516791  0.02107153  1
  O2-  O553  1  0.58144120  0.16475371  0.35638168  1
  O2-  O554  1  0.57321193  0.15188525  0.68947420  1
  O2-  O555  1  0.50014985  0.40025705  0.00630005  1
  O2-  O556  1  0.61081053  0.43227560  0.36822052  1
  O2-  O557  1  0.57618490  0.42898091  0.69101704  1
  O2-  O558  1  0.59159098  0.67369426  0.01491955  1
  O2-  O559  1  0.59494842  0.66547154  0.36034939  1
  O2-  O560  1  0.58736108  0.67575910  0.69502792  1
  O2-  O561  1  0.59279924  0.91730410  0.02378638  1
  O2-  O562  1  0.64190670  0.98966896  0.38683013  1
  O2-  O563  1  0.56965197  0.90968918  0.68999719  1
  O2-  O564  1  0.83082014  0.15411293  0.01289996  1
  O2-  O565  1  0.85114710  0.17669907  0.35437718  1
  O2-  O566  1  0.84038136  0.16280613  0.68762510  1
  O2-  O567  1  0.84648267  0.43546966  0.02955869  1
  O2-  O568  1  0.83495528  0.41373796  0.35353142  1
  O2-  O569  1  0.83202046  0.42414375  0.68870916  1
  O2-  O570  1  0.81169487  0.65039954  0.03631070  1
  O2-  O571  1  0.80241842  0.63861774  0.34123630  1
  O2-  O572  1  0.83799616  0.67586263  0.70176285  1
  O2-  O573  1  0.84129288  0.91941860  0.02530682  1
  O2-  O574  1  0.81251437  0.90311319  0.35975287  1
  O2-  O575  1  0.82933264  0.91964791  0.69632446  1
