# generated using pymatgen
data_H2O
_symmetry_space_group_name_H-M   'P 1'
_cell_length_a   17.97857566
_cell_length_b   17.97787782
_cell_length_c   21.99130556
_cell_angle_alpha   89.99124299
_cell_angle_beta   89.99798793
_cell_angle_gamma   119.99529924
_symmetry_Int_Tables_number   1
_chemical_formula_structural   H2O
_chemical_formula_sum   'H384 O192'
_cell_volume   6155.96174743
_cell_formula_units_Z   192
loop_
 _symmetry_equiv_pos_site_id
 _symmetry_equiv_pos_as_xyz
  1  'x, y, z'
loop_
 _atom_type_symbol
 _atom_type_oxidation_number
  H+  1.0
  O2-  -2.0
loop_
 _atom_site_type_symbol
 _atom_site_label
 _atom_site_symmetry_multiplicity
 _atom_site_fract_x
 _atom_site_fract_y
 _atom_site_fract_z
 _atom_site_occupancy
  H+  H0  1  0.11155016  -0.03972559  0.33425010  1
  H+  H1  1  0.47205548  0.11611099  -0.00700030  1
  H+  H2  1  0.62658496  0.51320555  0.65495770  1
  H+  H3  1  0.10452104  0.48669795  0.33476771  1
  H+  H4  1  0.52361469  0.62904663  0.48297031  1
  H+  H5  1  0.34693203  0.21287777  0.67651665  1
  H+  H6  1  0.88923448  0.01691475  1.00550300  1
  H+  H7  1  0.10057793  0.11761283  0.83863057  1
  H+  H8  1  0.64850538  0.53692712  0.83163357  1
  H+  H9  1  0.36403335  0.52286619  0.15595224  1
  H+  H10  1  0.39097635  0.78583027  0.49751536  1
  H+  H11  1  0.82472555  0.50142826  0.85546736  1
  H+  H12  1  -0.02999658  0.34262238  0.17218766  1
  H+  H13  1  0.34407815  0.62714527  0.32486555  1
  H+  H14  1  0.15623523  0.69208444  -0.02931847  1
  H+  H15  1  0.08485282  0.30711771  0.54300684  1
  H+  H16  1  0.46769415  0.35248452  0.67432376  1
  H+  H17  1  0.33099013  0.18814781  0.82228826  1
  H+  H18  1  0.82501408  0.65017216  0.43527940  1
  H+  H19  1  0.87830853  0.91981921  0.79753137  1
  H+  H20  1  0.08947755  0.16908284  0.06838610  1
  H+  H21  1  0.11089613  0.99512699  0.01052877  1
  H+  H22  1  0.84892346  0.72526300  0.34729712  1
  H+  H23  1  0.84092472  0.34898021  0.15023417  1
  H+  H24  1  0.88865890  0.74303314  0.00899283  1
  H+  H25  1  0.63178651  0.60822440  0.50231990  1
  H+  H26  1  0.86792664  0.14302274  0.02600586  1
  H+  H27  1  0.07825620  0.66582236  0.10528436  1
  H+  H28  1  -0.02654227  0.37552502  0.32358014  1
  H+  H29  1  0.20353595  0.07808974  0.83408002  1
  H+  H30  1  0.85548048  0.61406904  0.18016785  1
  H+  H31  1  0.01589774  0.62534207  0.49444090  1
  H+  H32  1  0.61917673  0.11372224  0.99251674  1
  H+  H33  1  0.38313886  0.41326739  0.83357386  1
  H+  H34  1  0.62972817  0.98301389  0.66279697  1
  H+  H35  1  0.37753124  0.09478668  0.83461050  1
  H+  H36  1  0.60912836  0.64157225  0.82335492  1
  H+  H37  1  0.11863831  0.00654393  0.65984381  1
  H+  H38  1  0.13504695  0.80330756  0.97735137  1
  H+  H39  1  0.59222477  0.46724627  0.16014656  1
  H+  H40  1  0.11423980  0.99232053  0.84125591  1
  H+  H41  1  0.50956888  0.86422743  0.33476369  1
  H+  H42  1  0.39195252  0.37040991  1.00493160  1
  H+  H43  1  0.86590956  0.75958868  0.65395627  1
  H+  H44  1  0.60193180  0.37444974  0.66532228  1
  H+  H45  1  0.85688228  0.25620337  0.34060569  1
  H+  H46  1  0.36345237  0.64165201  0.14136254  1
  H+  H47  1  0.10414300  0.96438904  0.49032934  1
  H+  H48  1  0.17449677  0.68208186  0.10516934  1
  H+  H49  1  0.02146130  0.37459735  0.01434517  1
  H+  H50  1  0.72282793  0.11534356  0.84917701  1
  H+  H51  1  0.26019370  0.11924929  0.66887761  1
  H+  H52  1  0.36485340  0.46982265  0.00488932  1
  H+  H53  1  0.79987786  0.92150224  0.70567152  1
  H+  H54  1  0.52288502  0.90086065  1.00833668  1
  H+  H55  1  0.64218474  0.75743495  0.33034251  1
  H+  H56  1  0.62654180  0.78599867  -0.00155910  1
  H+  H57  1  0.13342146  0.10331220  0.50834697  1
  H+  H58  1  0.59825457  0.62938886  0.16590656  1
  H+  H59  1  0.37746663  0.78143187  0.65471196  1
  H+  H60  1  0.36260994  0.97655478  0.33678755  1
  H+  H61  1  0.63986120  0.39342537  0.81863350  1
  H+  H62  1  0.71968522  0.86866071  1.00009544  1
  H+  H63  1  0.59237047  0.23024880  0.48669154  1
  H+  H64  1  0.36381661  0.49528956  0.33119889  1
  H+  H65  1  0.54581215  0.42128630  0.00089935  1
  H+  H66  1  0.36687911  0.23675357  0.00158713  1
  H+  H67  1  0.11612153  0.38558451  1.01391061  1
  H+  H68  1  0.88443678  0.62231987  0.33190250  1
  H+  H69  1  0.60378164  0.47949865  0.49612420  1
  H+  H70  1  0.61237360  0.36119383  0.50635952  1
  H+  H71  1  0.67002180  0.80321117  0.62545915  1
  H+  H72  1  0.51706605  0.42643403  0.85182154  1
  H+  H73  1  0.61483034  0.11184946  0.65076526  1
  H+  H74  1  0.96691134  0.87570130  0.83335102  1
  H+  H75  1  0.08663092  0.44658499  0.16507837  1
  H+  H76  1  0.03046257  0.47481627  0.72326845  1
  H+  H77  1  0.21788558  0.36556358  0.17048274  1
  H+  H78  1  0.39735690  0.87961063  0.99203311  1
  H+  H79  1  0.99498431  0.09570933  0.53463083  1
  H+  H80  1  0.62293190  0.76665328  0.17465285  1
  H+  H81  1  0.10416660  0.86933791  0.33775349  1
  H+  H82  1  0.85682032  0.39685533  0.32992731  1
  H+  H83  1  0.56916358  0.15879735  0.72738182  1
  H+  H84  1  0.85635846  0.98285244  0.36486284  1
  H+  H85  1  0.26630873  0.13235790  0.34093758  1
  H+  H86  1  0.13161949  0.57519398  0.26398380  1
  H+  H87  1  0.84035584  0.34761674  0.81471918  1
  H+  H88  1  0.16735041  0.77848267  0.82158225  1
  H+  H89  1  0.36440527  0.64535975  0.48592030  1
  H+  H90  1  0.37952414  0.11275501  0.16693573  1
  H+  H91  1  1.02323183  0.68939512  0.83053074  1
  H+  H92  1  0.62627108  0.36593968  0.32197146  1
  H+  H93  1  0.87195238  0.79796426  0.83303792  1
  H+  H94  1  0.75520182  0.87703938  0.15791448  1
  H+  H95  1  0.58806486  0.61418564  0.67438096  1
  H+  H96  1  0.84964857  0.36375316  0.66555360  1
  H+  H97  1  0.62486489  0.02339652  0.18406200  1
  H+  H98  1  0.12721643  0.50212936  0.49080277  1
  H+  H99  1  0.60753985  0.23886627  0.33063936  1
  H+  H100  1  0.72909123  0.14690240  0.32835916  1
  H+  H101  1  0.24033910  0.36815186  -0.00246323  1
  H+  H102  1  0.37793991  0.61511158  0.64781498  1
  H+  H103  1  0.69824838  0.60402824  0.17190046  1
  H+  H104  1  0.84831456  0.83789886  0.63942409  1
  H+  H105  1  0.44976256  0.59087935  0.65334197  1
  H+  H106  1  0.19750368  0.29242447  0.66423204  1
  H+  H107  1  0.37150352  0.02661730  0.49875697  1
  H+  H108  1  0.02649315  0.13691696  0.15623795  1
  H+  H109  1  0.01768295  0.64233341  0.34212194  1
  H+  H110  1  0.85642580  0.27475784  0.50278365  1
  H+  H111  1  0.12878865  0.76657146  0.50473591  1
  H+  H112  1  0.37733356  0.35770144  0.15567730  1
  H+  H113  1  0.46507949  0.60460325  0.16013258  1
  H+  H114  1  0.76348751  0.37094860  0.66020757  1
  H+  H115  1  0.76197685  0.62327889  0.66909791  1
  H+  H116  1  0.25714826  0.88104942  0.65873421  1
  H+  H117  1  0.46478920  0.66266590  0.29423078  1
  H+  H118  1  0.09301917  0.57381399  0.15879254  1
  H+  H119  1  0.03834940  0.82165243  0.81441080  1
  H+  H120  1  0.08853798  0.89025396  0.16904427  1
  H+  H121  1  0.62455748  0.11303942  0.17705828  1
  H+  H122  1  0.93898885  0.41481528  0.55129084  1
  H+  H123  1  0.11050204  0.72816948  0.34158262  1
  H+  H124  1  0.87421184  0.87142856  0.50413617  1
  H+  H125  1  0.16267493  0.07820054  0.93297436  1
  H+  H126  1  0.97322565  0.66431246  0.15150169  1
  H+  H127  1  0.36053897  0.72812649  0.14159017  1
  H+  H128  1  0.57471365  0.17821954  0.39137917  1
  H+  H129  1  0.72072965  0.85288360  0.34022096  1
  H+  H130  1  0.91142106  1.06439432  0.21657357  1
  H+  H131  1  0.32123615  0.91180940  0.10169278  1
  H+  H132  1  0.12838150  0.41394687  0.48829037  1
  H+  H133  1  0.90816674  0.56443229  0.56461313  1
  H+  H134  1  0.22316764  0.57529021  0.90878313  1
  H+  H135  1  0.96499953  0.86052367  0.33097307  1
  H+  H136  1  1.01723863  0.62472250  0.67223539  1
  H+  H137  1  0.17424136  0.07631345  0.25881036  1
  H+  H138  1  -0.02500458  0.87747785  -0.01166265  1
  H+  H139  1  0.49690580  0.61578997  0.98430375  1
  H+  H140  1  0.86979778  0.23265326  0.02582026  1
  H+  H141  1  0.16264126  0.86519875  0.82409166  1
  H+  H142  1  0.37962054  0.11265250  0.32651711  1
  H+  H143  1  0.35934505  0.87274810  0.65069107  1
  H+  H144  1  0.14531036  0.11695379  0.17659467  1
  H+  H145  1  0.70841106  0.13028929  0.63896916  1
  H+  H146  1  0.11578958  0.22594367  0.16338934  1
  H+  H147  1  0.52034419  0.90304906  0.48006587  1
  H+  H148  1  0.64843125  0.79196402  0.81937765  1
  H+  H149  1  0.45196430  0.33247936  0.83597785  1
  H+  H150  1  0.32551282  0.42329986  0.41977334  1
  H+  H151  1  0.38844159  0.51953174  0.83844120  1
  H+  H152  1  0.88839651  -0.02805405  0.51971735  1
  H+  H153  1  0.90457106  -0.00212047  0.75142307  1
  H+  H154  1  0.38031708  0.36667897  0.34418809  1
  H+  H155  1  0.61494542  0.90375467  0.01271450  1
  H+  H156  1  0.02592733  0.12367547  0.69139640  1
  H+  H157  1  0.86202298  0.35402895  0.99371137  1
  H+  H158  1  0.76565068  0.62844203  0.34049305  1
  H+  H159  1  0.15509365  0.06559877  0.59922315  1
  H+  H160  1  0.40760260  0.83995131  0.59096222  1
  H+  H161  1  0.11565063  0.13875950  0.00659808  1
  H+  H162  1  0.38376274  -0.01782198  0.82870384  1
  H+  H163  1  0.36261742  0.14488633  -0.00084854  1
  H+  H164  1  0.49528744  0.87582288  0.83041387  1
  H+  H165  1  -0.01346873  0.37026205  0.84553459  1
  H+  H166  1  0.32595429  0.91768939  0.43175387  1
  H+  H167  1  0.89910423  0.10643921  0.31025425  1
  H+  H168  1  0.97936004  0.12127886  0.86484491  1
  H+  H169  1  0.63045734  0.13812579  0.32561210  1
  H+  H170  1  0.59385087  0.14182854  0.48284460  1
  H+  H171  1  0.61488507  0.47551256  0.33647457  1
  H+  H172  1  0.87817511  0.59283044  0.50483061  1
  H+  H173  1  0.34917551  0.97226963  0.65706515  1
  H+  H174  1  0.23353440  0.62986977  0.50348738  1
  H+  H175  1  0.14689695  0.58832760  0.90763220  1
  H+  H176  1  0.76329255  0.12650728  0.16922531  1
  H+  H177  1  0.29482840  0.88741370  0.82016867  1
  H+  H178  1  0.62611856  0.26632815  0.65444934  1
  H+  H179  1  0.10776079  0.90846040  0.02726436  1
  H+  H180  1  0.86970079  0.67986205  0.82487004  1
  H+  H181  1  0.28706787  0.65039914  0.82777023  1
  H+  H182  1  0.15621652  0.28068212  0.85045342  1
  H+  H183  1  0.63596396  1.02545828  0.83819674  1
  H+  H184  1  0.36304813  0.88727877  0.33843826  1
  H+  H185  1  0.87946741  0.25616823  0.18049416  1
  H+  H186  1  0.36040433  0.25074951  0.49105095  1
  H+  H187  1  0.87381798  0.10279529  0.16782152  1
  H+  H188  1  0.11815716  0.22235149  0.50728506  1
  H+  H189  1  0.38524959  0.87206401  0.50006178  1
  H+  H190  1  0.28797480  0.40295296  0.83928934  1
  H+  H191  1  0.23071643  0.12185342  -0.01150717  1
  H+  H192  1  0.84650173  0.64172863  0.01097281  1
  H+  H193  1  0.12556896  0.38695525  0.83662880  1
  H+  H194  1  0.78140534  0.03563009  0.48673797  1
  H+  H195  1  0.60156042  0.86163930  0.34289310  1
  H+  H196  1  0.86660356  0.23076604  0.84295941  1
  H+  H197  1  0.10569584  0.78730315  0.16391033  1
  H+  H198  1  0.83215398  0.72197634  0.16885718  1
  H+  H199  1  0.10838006  0.25863978  0.34996083  1
  H+  H200  1  0.07446720  0.90528615  0.43005469  1
  H+  H201  1  0.12379848  0.63588512  0.82183468  1
  H+  H202  1  0.79952979  0.06018391  0.51570770  1
  H+  H203  1  0.87964381  0.59800197  0.66105533  1
  H+  H204  1  0.22533361  0.86009725  0.32216335  1
  H+  H205  1  0.36297919  0.23212787  0.15457300  1
  H+  H206  1  0.50868151  0.13156574  0.66736288  1
  H+  H207  1  0.71103064  0.14648308  0.49834314  1
  H+  H208  1  0.27761298  0.65170784  0.67167152  1
  H+  H209  1  0.84399110  0.45830089  0.48909432  1
  H+  H210  1  0.12362012  0.76686165  0.65672655  1
  H+  H211  1  0.09675282  0.66297724  0.75848147  1
  H+  H212  1  0.09867820  0.16732273  0.35006623  1
  H+  H213  1  0.43065344  0.35605762  0.94397673  1
  H+  H214  1  0.37989985  0.52836872  0.49665084  1
  H+  H215  1  0.84649972  0.48213917  0.87336911  1
  H+  H216  1  0.36013415  0.14484774  0.49098434  1
  H+  H217  1  0.26564580  0.88532023  0.49139291  1
  H+  H218  1  0.91430487  0.33692251  0.26278062  1
  H+  H219  1  0.94876598  0.84977205  0.18289042  1
  H+  H220  1  0.71292006  0.53994758  0.28343880  1
  H+  H221  1  0.23721029  0.12269176  0.17317259  1
  H+  H222  1  0.27955610  0.88309812  0.00085701  1
  H+  H223  1  0.47433117  0.10900922  0.83563548  1
  H+  H224  1  0.88149799  0.20871671  0.68935244  1
  H+  H225  1  0.64920129  0.38222692  0.98054470  1
  H+  H226  1  0.65727701  0.32755201  0.89339883  1
  H+  H227  1  0.60824594  0.23095196  0.00519227  1
  H+  H228  1  0.11186664  0.63463123  0.66634708  1
  H+  H229  1  0.37688749  0.10731711  0.65397639  1
  H+  H230  1  0.39149261  0.88729763  0.82764271  1
  H+  H231  1  0.71904975  0.60218687  0.50609061  1
  H+  H232  1  0.46724207  0.86400535  0.17297863  1
  H+  H233  1  0.24083457  0.39503327  0.66196457  1
  H+  H234  1  0.37497691  0.76389131  0.32233377  1
  H+  H235  1  0.58996036  0.81509628  0.63925496  1
  H+  H236  1  0.60546844  0.13256274  0.82379946  1
  H+  H237  1  0.99892508  0.87343147  0.66853050  1
  H+  H238  1  0.15066167  0.14406053  0.67745144  1
  H+  H239  1  0.37261695  0.64638433  0.82385816  1
  H+  H240  1  0.57381252  0.91359057  0.40241338  1
  H+  H241  1  0.33122428  0.35800928  0.62957505  1
  H+  H242  1  0.86031857  0.44234878  1.00306416  1
  H+  H243  1  0.96980756  0.35177774  0.68117806  1
  H+  H244  1  0.34001683  0.66487372  1.04645889  1
  H+  H245  1  0.14270132  0.53332688  0.66035838  1
  H+  H246  1  0.96459267  0.14124904  0.36339695  1
  H+  H247  1  0.64614521  0.56941150  0.89810366  1
  H+  H248  1  0.12354677  0.61706996  0.32643341  1
  H+  H249  1  0.81968729  0.67257876  0.10610981  1
  H+  H250  1  0.00420358  0.39410799  0.51819426  1
  H+  H251  1  0.12537110  0.47489181  0.84532260  1
  H+  H252  1  0.46996179  1.11732257  0.32135180  1
  H+  H253  1  0.12152804  0.07571583  0.31756316  1
  H+  H254  1  0.51213435  0.12806708  0.15664578  1
  H+  H255  1  0.70616836  0.34085651  0.16321456  1
  H+  H256  1  0.25484665  0.46519914  0.11028340  1
  H+  H257  1  0.25596638  0.62918293  0.32804877  1
  H+  H258  1  0.12769924  0.85501184  0.50253453  1
  H+  H259  1  0.36278772  0.35640411  0.48660168  1
  H+  H260  1  0.59968293  0.21854985  0.82266491  1
  H+  H261  1  0.57358347  0.69428787  0.66609499  1
  H+  H262  1  0.48851355  0.62204268  0.83242552  1
  H+  H263  1  0.81084063  0.35637556  0.47552858  1
  H+  H264  1  0.60572918  0.88889912  0.16595924  1
  H+  H265  1  0.73191008  0.88166871  0.80680856  1
  H+  H266  1  0.22084083  0.10284380  0.50794771  1
  H+  H267  1  0.08833429  0.87218329  0.66547862  1
  H+  H268  1  0.17560228  0.33798119  0.57213880  1
  H+  H269  1  0.26184843  0.38701297  0.47689034  1
  H+  H270  1  0.71766692  0.36968440  0.31699527  1
  H+  H271  1  0.40401810  0.78464404  0.83524774  1
  H+  H272  1  0.14019037  0.62417552  0.50624617  1
  H+  H273  1  0.60309431  0.59574244  0.00250106  1
  H+  H274  1  0.12426173  0.34731363  0.17840605  1
  H+  H275  1  0.98565065  0.11081070  1.00801081  1
  H+  H276  1  0.63334500  0.61869523  0.32650996  1
  H+  H277  1  0.85674102  0.70533096  0.49574233  1
  H+  H278  1  0.85812129  0.88518838  0.00334671  1
  H+  H279  1  0.59543295  0.38040792  0.15599723  1
  H+  H280  1  0.70977940  0.33195465  0.83098950  1
  H+  H281  1  0.13350814  0.37943539  0.32333562  1
  H+  H282  1  0.62355279  0.89861748  0.81792189  1
  H+  H283  1  0.54280443  0.61181572  0.32136546  1
  H+  H284  1  0.92410476  0.35518431  0.90102276  1
  H+  H285  1  0.60917411  0.99427192  0.47150343  1
  H+  H286  1  0.70054166  0.36104382  0.50013946  1
  H+  H287  1  0.81203679  0.10851182  0.69266212  1
  H+  H288  1  0.58261103  0.65884199  0.10161680  1
  H+  H289  1  0.84702873  0.92156333  0.44979328  1
  H+  H290  1  0.91385518  0.84587700  0.92861975  1
  H+  H291  1  0.66449327  0.69421421  0.01959910  1
  H+  H292  1  0.41420284  0.08192893  0.93307174  1
  H+  H293  1  0.34268129  0.68427338  0.72807097  1
  H+  H294  1  0.31531329  0.42625985  0.07263998  1
  H+  H295  1  0.84457803  0.16255350  0.78986287  1
  H+  H296  1  0.34610975  0.96991342  0.16084279  1
  H+  H297  1  0.31286960  0.13744406  0.76004238  1
  H+  H298  1  0.82194451  0.66452572  0.72732061  1
  H+  H299  1  0.07157452  0.15919512  0.78735079  1
  H+  H300  1  0.06777395  0.89026114  0.75904049  1
  H+  H301  1  0.35264831  0.22740949  0.35058480  1
  H+  H302  1  0.92199667  0.08909431  0.93929746  1
  H+  H303  1  0.58169783  0.92702227  0.10798857  1
  H+  H304  1  0.18761237  0.81903190  0.91613258  1
  H+  H305  1  0.86403421  0.89732574  0.35438701  1
  H+  H306  1  0.40842786  0.61857524  0.98398413  1
  H+  H307  1  0.32921570  0.66990574  0.42679127  1
  H+  H308  1  0.80184878  0.36421521  0.75369600  1
  H+  H309  1  0.43357699  0.59264459  0.89931546  1
  H+  H310  1  0.88956345  0.12478748  0.86778885  1
  H+  H311  1  0.94782234  0.05580655  0.59863423  1
  H+  H312  1  0.64723354  0.08897423  0.55090825  1
  H+  H313  1  0.18378748  0.34141327  0.90910062  1
  H+  H314  1  0.64868071  0.57156479  0.23486910  1
  H+  H315  1  0.01669222  0.51109065  0.20139133  1
  H+  H316  1  0.80661545  0.36341896  0.08696531  1
  H+  H317  1  0.90794975  0.60170398  0.23472522  1
  H+  H318  1  -0.02910182  0.84551764  0.50637947  1
  H+  H319  1  0.41297247  0.58945269  0.24493477  1
  H+  H320  1  0.87984679  0.50859280  0.65981976  1
  H+  H321  1  0.14765836  0.28007777  0.99530408  1
  H+  H322  1  0.37611676  0.86031290  0.17248528  1
  H+  H323  1  0.32409695  0.16846730  0.42843738  1
  H+  H324  1  0.40510788  0.08081462  0.22733466  1
  H+  H325  1  0.89700693  0.83336766  0.27662586  1
  H+  H326  1  0.67970312  0.93379255  0.67885284  1
  H+  H327  1  0.57072818  0.65882873  0.76115014  1
  H+  H328  1  0.16056507  0.82790696  0.26435073  1
  H+  H329  1  0.84777747  0.16666944  0.36479381  1
  H+  H330  1  0.40929303  0.82655759  0.26435357  1
  H+  H331  1  0.92310022  0.28472815  0.95386078  1
  H+  H332  1  0.72379864  0.35724561  0.98213645  1
  H+  H333  1  0.65841069  0.57810766  0.59892019  1
  H+  H334  1  0.43350573  0.85440796  0.93334010  1
  H+  H335  1  0.84647436  0.96480918  0.15311782  1
  H+  H336  1  0.33255267  0.17104689  0.09548940  1
  H+  H337  1  0.40795081  0.58419104  0.55728343  1
  H+  H338  1  0.59986377  0.21922092  0.15927797  1
  H+  H339  1  0.82527215  0.90822856  0.06542422  1
  H+  H340  1  0.65253978  0.32648098  0.59466321  1
  H+  H341  1  0.05491990  0.92332497  0.11455832  1
  H+  H342  1  0.82606728  0.16047482  0.10935024  1
  H+  H343  1  0.11128966  0.61800132  0.01882518  1
  H+  H344  1  0.07585018  0.66279637  0.43500389  1
  H+  H345  1  0.65775037  0.82453427  0.23496112  1
  H+  H346  1  0.51078431  0.39360104  0.48850762  1
  H+  H347  1  0.08113159  0.17249135  0.44615478  1
  H+  H348  1  0.99073561  0.71688622  1.08865029  1
  H+  H349  1  0.93271346  0.11140674  0.69388825  1
  H+  H350  1  0.61733335  1.01349393  -0.00175232  1
  H+  H351  1  0.07920145  0.43167518  0.75105196  1
  H+  H352  1  0.18912685  0.20196674  0.73529078  1
  H+  H353  1  0.69814315  0.47743227  0.78160452  1
  H+  H354  1  0.66386928  0.10059580  0.26425461  1
  H+  H355  1  0.81861065  0.42019967  0.38817305  1
  H+  H356  1  0.20667549  0.85953075  0.16860158  1
  H+  H357  1  0.46668021  0.36213836  0.34932789  1
  H+  H358  1  0.35916808  0.97978874  0.00649369  1
  H+  H359  1  0.46602995  0.36028702  0.16493281  1
  H+  H360  1  0.88392329  0.53346987  0.32441772  1
  H+  H361  1  0.65180187  0.32732694  0.22472841  1
  H+  H362  1  0.21841565  0.60130449  0.99595832  1
  H+  H363  1  0.64719264  0.07732380  0.93032211  1
  H+  H364  1  0.07528457  0.39526650  0.10165385  1
  H+  H365  1  0.46146576  0.11630748  0.49606906  1
  H+  H366  1  0.76963830  0.65415652  0.83047936  1
  H+  H367  1  0.58190997  0.64303967  0.42461489  1
  H+  H368  1  0.27149594  0.40812256  0.33091412  1
  H+  H369  1  0.90793642  0.81488087  0.56647714  1
  H+  H370  1  0.81492070  0.23436748  0.43785639  1
  H+  H371  1  0.58830476  0.41415548  0.72583836  1
  H+  H372  1  0.38985197  0.33289675  0.55199559  1
  H+  H373  1  0.58228621  0.41930232  0.39859031  1
  H+  H374  1  0.57948456  0.16980619  0.06498926  1
  H+  H375  1  0.16285526  0.33865970  0.26801337  1
  H+  H376  1  0.08057452  0.42974515  0.39521000  1
  H+  H377  1  0.15064589  0.82465707  0.59614653  1
  H+  H378  1  0.59779911  0.93324796  0.76035744  1
  H+  H379  1  0.40720616  0.08361498  0.59200548  1
  H+  H380  1  0.92928325  0.31793457  0.61668298  1
  H+  H381  1  0.17344463  0.58995327  0.59815073  1
  H+  H382  1  0.86118231  0.85139399  0.18032051  1
  H+  H383  1  0.99243471  0.72057160  0.88714929  1
  O2-  O384  1  0.08772420  0.16699284  0.14433624  1
  O2-  O385  1  0.08922412  0.16370047  0.48977034  1
  O2-  O386  1  0.07829630  0.15814878  0.83147000  1
  O2-  O387  1  0.07026188  0.38901810  0.14880123  1
  O2-  O388  1  0.09413998  0.44020645  0.47581172  1
  O2-  O389  1  0.09444408  0.41795237  0.82446951  1
  O2-  O390  1  0.11485642  0.63748122  0.09889128  1
  O2-  O391  1  0.07691534  0.66094490  0.48075279  1
  O2-  O392  1  0.10664286  0.67487190  0.80385559  1
  O2-  O393  1  0.04477070  0.90572406  0.15735980  1
  O2-  O394  1  0.07307094  0.90385468  0.47581430  1
  O2-  O395  1  0.07354829  0.88409998  0.80435406  1
  O2-  O396  1  0.33481134  0.16951202  0.14054748  1
  O2-  O397  1  0.32805429  0.17492573  0.47595062  1
  O2-  O398  1  0.30860913  0.13025689  0.80619220  1
  O2-  O399  1  0.29035502  0.44167189  0.12458748  1
  O2-  O400  1  0.32235223  0.41325531  0.46560487  1
  O2-  O401  1  0.34776173  0.43959792  0.82236969  1
  O2-  O402  1  0.33726718  0.67228931  0.12041945  1
  O2-  O403  1  0.33483111  0.67742856  0.47167068  1
  O2-  O404  1  0.34512351  0.67960118  0.80986431  1
  O2-  O405  1  0.31587057  0.90855772  0.14688355  1
  O2-  O406  1  0.32666626  0.91997312  0.47737596  1
  O2-  O407  1  0.35894228  0.92078077  0.81132246  1
  O2-  O408  1  0.57375650  0.15797590  0.14337208  1
  O2-  O409  1  0.56238921  0.17122683  0.46773988  1
  O2-  O410  1  0.57113137  0.15777944  0.80710003  1
  O2-  O411  1  0.56274925  0.40844464  0.14282154  1
  O2-  O412  1  0.57212738  0.41863891  0.47901584  1
  O2-  O413  1  0.63897512  0.44329009  0.79596535  1
  O2-  O414  1  0.57405923  0.66381227  0.14588990  1
  O2-  O415  1  0.58330248  0.65060416  0.46905162  1
  O2-  O416  1  0.57622208  0.66861794  0.80732912  1
  O2-  O417  1  0.57823414  0.92290748  0.15324563  1
  O2-  O418  1  0.57739204  0.93256436  0.45875597  1
  O2-  O419  1  0.59068343  0.92934680  0.80578744  1
  O2-  O420  1  0.82413095  0.15264934  0.15621518  1
  O2-  O421  1  0.80249624  0.24846616  0.47920244  1
  O2-  O422  1  0.83706747  0.16771180  0.83428071  1
  O2-  O423  1  0.79888605  0.36217473  0.13152893  1
  O2-  O424  1  0.80150880  0.40518572  0.46689145  1
  O2-  O425  1  0.78668960  0.33490547  0.79376469  1
  O2-  O426  1  0.80138986  0.66353780  0.14914718  1
  O2-  O427  1  0.82630017  0.64497663  0.48088468  1
  O2-  O428  1  0.82558559  0.69190196  0.80908437  1
  O2-  O429  1  0.81499465  0.90294538  0.14127971  1
  O2-  O430  1  0.85235060  0.91449929  0.49523585  1
  O2-  O431  1  0.85597140  0.95086806  0.77345411  1
  O2-  O432  1  0.17963897  0.09270207  0.19359709  1
  O2-  O433  1  0.16069632  0.06949213  0.52238722  1
  O2-  O434  1  0.14531891  0.05366668  0.85276049  1
  O2-  O435  1  0.16315444  0.32577107  0.19383627  1
  O2-  O436  1  0.14478807  0.32765876  0.53216704  1
  O2-  O437  1  0.18557677  0.34177903  0.86219616  1
  O2-  O438  1  0.07829638  0.53497297  0.19523679  1
  O2-  O439  1  0.17403884  0.59669869  0.52107413  1
  O2-  O440  1  0.18219172  0.57642951  0.87837457  1
  O2-  O441  1  0.14902638  0.83710936  0.18790501  1
  O2-  O442  1  0.15988715  0.82744884  0.51959475  1
  O2-  O443  1  0.19618635  0.83844044  0.83895045  1
  O2-  O444  1  0.40544921  0.07773764  0.18214124  1
  O2-  O445  1  0.40146113  0.08790549  0.51325668  1
  O2-  O446  1  0.41387191  0.07277456  0.85233574  1
  O2-  O447  1  0.40266209  0.32827974  0.17691841  1
  O2-  O448  1  0.39092860  0.32468496  0.50622806  1
  O2-  O449  1  0.45664109  0.38251607  0.85671927  1
  O2-  O450  1  0.40535506  0.58152805  0.17596339  1
  O2-  O451  1  0.41098519  0.58821932  0.51123356  1
  O2-  O452  1  0.42623271  0.59045771  0.85195130  1
  O2-  O453  1  0.40647558  0.82975553  0.18692333  1
  O2-  O454  1  0.41984210  0.84556004  0.51449010  1
  O2-  O455  1  0.43429043  0.84634298  0.84807348  1
  O2-  O456  1  0.65514364  0.08515426  0.19760981  1
  O2-  O457  1  0.65248413  0.09654597  0.50576642  1
  O2-  O458  1  0.65996420  0.08403589  0.85787709  1
  O2-  O459  1  0.64659587  0.31935738  0.17981195  1
  O2-  O460  1  0.64222216  0.32859828  0.51893337  1
  O2-  O461  1  0.65246567  0.32160389  0.84779628  1
  O2-  O462  1  0.63909048  0.57336815  0.18969892  1
  O2-  O463  1  0.65906396  0.57595293  0.52176815  1
  O2-  O464  1  0.66439085  0.59058872  0.85404095  1
  O2-  O465  1  0.65371799  0.82756461  0.19020412  1
  O2-  O466  1  0.60418291  0.77268231  0.62397432  1
  O2-  O467  1  0.67835377  0.85351551  0.83014112  1
  O2-  O468  1  0.90877695  0.07215178  0.17302553  1
  O2-  O469  1  0.94051601  0.05308200  0.55399741  1
  O2-  O470  1  0.92125115  0.09566576  0.88414344  1
  O2-  O471  1  0.91096382  0.31885794  0.19068574  1
  O2-  O472  1  0.95042365  0.36792472  0.54382316  1
  O2-  O473  1  0.92448622  0.34345306  0.85695722  1
  O2-  O474  1  0.90097691  0.59962806  0.18971907  1
  O2-  O475  1  0.90826360  0.56137895  0.51931940  1
  O2-  O476  1  0.98869692  0.71654030  0.84290127  1
  O2-  O477  1  0.88783186  0.82005194  0.19951850  1
  O2-  O478  1  0.90955439  0.81470268  0.52006616  1
  O2-  O479  1  0.90884932  0.85813436  0.84855921  1
  O2-  O480  1  0.16789101  0.06534200  0.30654535  1
  O2-  O481  1  0.15669077  0.06688018  0.64490341  1
  O2-  O482  1  0.16749769  0.08823836  0.97755056  1
  O2-  O483  1  0.16345180  0.34625148  0.31392043  1
  O2-  O484  1  0.22878234  0.34459367  0.63778917  1
  O2-  O485  1  0.17896699  0.33967593  0.97974950  1
  O2-  O486  1  0.15019669  0.58469712  0.30737994  1
  O2-  O487  1  0.17359990  0.59238142  0.64389854  1
  O2-  O488  1  0.26024419  0.58250087  0.98532207  1
  O2-  O489  1  0.16376096  0.82655267  0.30987477  1
  O2-  O490  1  0.15072126  0.82733032  0.64198042  1
  O2-  O491  1  0.18504388  0.80338678  0.96013339  1
  O2-  O492  1  0.40850512  0.08232614  0.30930965  1
  O2-  O493  1  0.40734889  0.07806883  0.63736209  1
  O2-  O494  1  0.41138042  0.08426707  0.97813940  1
  O2-  O495  1  0.40326907  0.32922804  0.35593886  1
  O2-  O496  1  0.40227205  0.32123761  0.67195830  1
  O2-  O497  1  0.42652723  0.34461882  0.98788662  1
  O2-  O498  1  0.42283844  0.60151816  0.29145784  1
  O2-  O499  1  0.39433669  0.57380196  0.63240136  1
  O2-  O500  1  0.43842757  0.58858029  0.96691043  1
  O2-  O501  1  0.41242132  0.82555112  0.31018868  1
  O2-  O502  1  0.39965158  0.84112964  0.63638849  1
  O2-  O503  1  0.43424315  0.85614948  0.97811722  1
  O2-  O504  1  0.66777576  0.11111668  0.31153091  1
  O2-  O505  1  0.64885691  0.08744701  0.63045693  1
  O2-  O506  1  0.64392852  0.07718502  0.97674378  1
  O2-  O507  1  0.65607394  0.33557522  0.30443794  1
  O2-  O508  1  0.65835345  0.32727199  0.64025825  1
  O2-  O509  1  0.66259043  0.33661742  0.96981613  1
  O2-  O510  1  0.68144827  0.56302082  0.30503713  1
  O2-  O511  1  0.65824252  0.57532413  0.64459531  1
  O2-  O512  1  0.60111963  0.53103578  0.96084846  1
  O2-  O513  1  0.66280121  0.81948492  0.32174176  1
  O2-  O514  1  0.76962686  0.85326250  0.63169155  1
  O2-  O515  1  0.65828169  0.84768526  0.99068989  1
  O2-  O516  1  0.90160126  0.10522245  0.35449755  1
  O2-  O517  1  0.96500622  0.08058825  0.68676379  1
  O2-  O518  1  0.92242710  0.08076883  0.99361650  1
  O2-  O519  1  0.91269400  0.34515955  0.30850159  1
  O2-  O520  1  0.91569624  0.30841842  0.66073880  1
  O2-  O521  1  0.92447578  0.32311918  0.98567630  1
  O2-  O522  1  0.91736649  0.59596126  0.31386183  1
  O2-  O523  1  0.91240241  0.57001387  0.64648487  1
  O2-  O524  1  1.02115569  0.70651993  1.12168251  1
  O2-  O525  1  0.90300618  0.83842153  0.32218280  1
  O2-  O526  1  0.89478394  0.81989140  0.63847762  1
  O2-  O527  1  0.91489501  0.83975679  0.97376293  1
  O2-  O528  1  0.08304569  0.16619903  0.02267749  1
  O2-  O529  1  0.07513540  0.19922785  0.37034060  1
  O2-  O530  1  0.14984259  0.19222089  0.70153608  1
  O2-  O531  1  0.08092371  0.40709041  0.03336245  1
  O2-  O532  1  0.07688865  0.42546359  0.35011323  1
  O2-  O533  1  0.05949043  0.44354608  0.71099095  1
  O2-  O534  1  0.13196251  0.62951734  -0.02393384  1
  O2-  O535  1  0.07805132  0.66810221  0.35832030  1
  O2-  O536  1  0.07878564  0.65970964  0.68573358  1
  O2-  O537  1  0.07216921  0.93520589  0.02715699  1
  O2-  O538  1  0.07568032  0.90194789  0.35231664  1
  O2-  O539  1  0.05956128  0.90209397  0.68420744  1
  O2-  O540  1  0.33099933  0.17429155  0.01272271  1
  O2-  O541  1  0.32444111  0.16331914  0.36019419  1
  O2-  O542  1  0.31923668  0.15027143  0.68723754  1
  O2-  O543  1  0.33271465  0.41346951  0.02469095  1
  O2-  O544  1  0.33129772  0.43650260  0.34758624  1
  O2-  O545  1  0.38888253  0.36519933  0.61991914  1
  O2-  O546  1  0.34315442  0.65887187  0.00023675  1
  O2-  O547  1  0.31630103  0.65709714  0.34386794  1
  O2-  O548  1  0.33941861  0.68718640  0.68308828  1
  O2-  O549  1  0.33461657  0.91967354  0.02200736  1
  O2-  O550  1  0.33190086  0.91653059  0.35320048  1
  O2-  O551  1  0.31995805  0.91015465  0.66958258  1
  O2-  O552  1  0.57890473  0.16996963  0.01918578  1
  O2-  O553  1  0.57886370  0.17690602  0.34575675  1
  O2-  O554  1  0.56976191  0.16117096  0.68191956  1
  O2-  O555  1  0.60756205  0.46182056  -0.00732709  1
  O2-  O556  1  0.57769372  0.41437703  0.35353516  1
  O2-  O557  1  0.57171034  0.40425348  0.68212435  1
  O2-  O558  1  0.60442112  0.64980562  0.02409828  1
  O2-  O559  1  0.59974896  0.64662349  0.33958817  1
  O2-  O560  1  0.55279999  0.63820971  0.69050954  1
  O2-  O561  1  0.58429435  0.93552929  0.02612185  1
  O2-  O562  1  0.57075817  0.89463769  0.35191609  1
  O2-  O563  1  0.62450512  0.93299300  0.68519699  1
  O2-  O564  1  0.83666766  0.17108701  0.04105202  1
  O2-  O565  1  0.81749002  0.20010920  0.36342829  1
  O2-  O566  1  0.86444191  0.15344988  0.71156402  1
  O2-  O567  1  0.82272162  0.38023255  0.00475897  1
  O2-  O568  1  0.82392791  0.42539030  0.34300481  1
  O2-  O569  1  0.82370058  0.39915958  0.67672773  1
  O2-  O570  1  0.88086093  0.69373063  0.03473116  1
  O2-  O571  1  0.82535839  0.66462620  0.36020993  1
  O2-  O572  1  0.82363514  0.65425819  0.68315403  1
  O2-  O573  1  0.83061438  0.91751783  0.02008706  1
  O2-  O574  1  0.83168072  0.92189295  0.37643211  1
  O2-  O575  1  0.77742550  0.92731490  0.66551157  1
