# generated using pymatgen
data_H2O
_symmetry_space_group_name_H-M   'P 1'
_cell_length_a   17.98915487
_cell_length_b   17.99195042
_cell_length_c   21.98896692
_cell_angle_alpha   89.97128335
_cell_angle_beta   89.98282738
_cell_angle_gamma   119.99362696
_symmetry_Int_Tables_number   1
_chemical_formula_structural   H2O
_chemical_formula_sum   'H384 O192'
_cell_volume   6163.85208138
_cell_formula_units_Z   192
loop_
 _symmetry_equiv_pos_site_id
 _symmetry_equiv_pos_as_xyz
  1  'x, y, z'
loop_
 _atom_type_symbol
 _atom_type_oxidation_number
  H+  1.0
  O2-  -2.0
loop_
 _atom_site_type_symbol
 _atom_site_label
 _atom_site_symmetry_multiplicity
 _atom_site_fract_x
 _atom_site_fract_y
 _atom_site_fract_z
 _atom_site_occupancy
  H+  H0  1  0.66139300  0.55897308  0.39494831  1
  H+  H1  1  0.39268833  0.77702011  0.66349294  1
  H+  H2  1  0.95159790  0.10865625  0.97834616  1
  H+  H3  1  0.65087374  0.88901367  0.82666763  1
  H+  H4  1  0.42501901  0.08747477  0.24767014  1
  H+  H5  1  0.86611253  0.02396117  0.98216548  1
  H+  H6  1  1.00854861  0.12056413  0.17566564  1
  H+  H7  1  0.27335107  0.63226905  0.00003634  1
  H+  H8  1  0.78489179  0.14344559  0.34323444  1
  H+  H9  1  0.58346081  0.22395139  0.49272002  1
  H+  H10  1  0.90653740  0.00383288  0.20224945  1
  H+  H11  1  0.86945784  0.62778587  1.00604597  1
  H+  H12  1  0.62108762  0.35041339  0.66476669  1
  H+  H13  1  0.43101202  0.63883677  0.50046918  1
  H+  H14  1  0.46174263  0.34815517  0.99591397  1
  H+  H15  1  0.85200329  0.38313961  0.51506833  1
  H+  H16  1  0.60341419  0.45454331  0.00810283  1
  H+  H17  1  0.32378019  0.89123136  0.29696212  1
  H+  H18  1  0.39796099  0.86596023  0.83874713  1
  H+  H19  1  0.61227530  0.06506324  0.83853085  1
  H+  H20  1  1.00718264  0.88292850  0.15726199  1
  H+  H21  1  0.88829175  0.37451622  -0.00848697  1
  H+  H22  1  0.01409529  0.63352184  0.32978998  1
  H+  H23  1  0.86131285  0.51765013  0.52433183  1
  H+  H24  1  0.12758289  0.26824659  0.50891910  1
  H+  H25  1  0.65681202  0.28880903  0.16069294  1
  H+  H26  1  0.51071976  0.62820136  0.34141646  1
  H+  H27  1  0.77607135  0.14910035  0.49400302  1
  H+  H28  1  0.82908943  0.21952368  -0.01118508  1
  H+  H29  1  0.11471154  0.39102638  0.35855858  1
  H+  H30  1  0.14093380  0.36350985  0.65601564  1
  H+  H31  1  0.91702650  0.57217368  0.76044575  1
  H+  H32  1  0.48252622  0.34978456  0.16350322  1
  H+  H33  1  1.00441087  0.37480371  0.17519592  1
  H+  H34  1  0.61560241  0.36152453  0.50490640  1
  H+  H35  1  0.61982746  0.74005727  0.82335947  1
  H+  H36  1  0.16884112  0.32308592  0.60559134  1
  H+  H37  1  0.56069405  0.66137000  0.40429316  1
  H+  H38  1  0.23259103  0.61224960  0.51166108  1
  H+  H39  1  0.73103978  0.60555654  1.01574326  1
  H+  H40  1  0.87913734  0.76346752  0.16901267  1
  H+  H41  1  0.88103566  0.85345496  0.99127106  1
  H+  H42  1  0.13359739  0.12169237  0.51831042  1
  H+  H43  1  0.57197511  0.91491822  0.29148331  1
  H+  H44  1  0.01674333  0.13200110  0.49758728  1
  H+  H45  1  0.54860571  0.42244189  0.47697823  1
  H+  H46  1  0.79612851  0.40832174  0.02759994  1
  H+  H47  1  0.28545881  0.37509153  0.14711976  1
  H+  H48  1  0.08869275  0.10874176  1.00308367  1
  H+  H49  1  0.91145398  0.37207317  0.78571424  1
  H+  H50  1  0.97734875  0.89580428  0.54018618  1
  H+  H51  1  0.84840471  0.45448383  0.81592669  1
  H+  H52  1  0.18222140  0.08862217  0.71721252  1
  H+  H53  1  0.37687288  0.73467621  0.82414850  1
  H+  H54  1  0.69085815  0.01371479  0.18405151  1
  H+  H55  1  0.21289805  0.10341585  0.98744377  1
  H+  H56  1  0.85800850  0.71896495  0.82577840  1
  H+  H57  1  0.37852338  0.51753812  0.31727253  1
  H+  H58  1  0.88476946  0.50009928  1.01255879  1
  H+  H59  1  0.73666359  0.60966330  0.16635901  1
  H+  H60  1  0.35474299  0.21358285  0.16144230  1
  H+  H61  1  0.86298686  0.88395477  0.80758116  1
  H+  H62  1  0.19859638  0.85285321  0.31702113  1
  H+  H63  1  0.40090599  0.33169873  0.93831164  1
  H+  H64  1  0.28036176  0.39539118  0.67237434  1
  H+  H65  1  0.62349677  0.74292224  0.67353905  1
  H+  H66  1  0.38356973  0.37391020  0.84481606  1
  H+  H67  1  0.59133833  0.39982492  0.89769355  1
  H+  H68  1  0.91058369  0.58019540  0.61358684  1
  H+  H69  1  0.70861069  0.35231526  0.65448542  1
  H+  H70  1  0.10607841  0.73667470  0.32197756  1
  H+  H71  1  0.20537272  0.51447790  0.12718512  1
  H+  H72  1  0.36576476  0.97131266  0.82929389  1
  H+  H73  1  0.08369616  0.67567859  0.05865705  1
  H+  H74  1  0.11234277  0.88342120  0.67598708  1
  H+  H75  1  0.12094994  0.47981847  0.65046137  1
  H+  H76  1  0.63355553  0.35064004  0.31380225  1
  H+  H77  1  0.23106405  0.86761484  0.66849843  1
  H+  H78  1  0.35650315  0.71234858  0.35326657  1
  H+  H79  1  0.38550802  0.86341800  0.66214844  1
  H+  H80  1  0.47277469  0.10813682  0.34061040  1
  H+  H81  1  0.14558498  0.87379135  0.51995599  1
  H+  H82  1  0.12434030  0.85986714  0.83831205  1
  H+  H83  1  0.37529006  0.83982920  0.50951314  1
  H+  H84  1  0.62226521  0.72918798  0.15513303  1
  H+  H85  1  0.37477447  0.37845267  0.16505483  1
  H+  H86  1  0.09609188  0.63239509  0.52119209  1
  H+  H87  1  0.61310349  0.46685666  0.14864334  1
  H+  H88  1  0.93016050  0.33804451  0.69192474  1
  H+  H89  1  0.10000721  0.37666540  -0.00152456  1
  H+  H90  1  0.87595790  0.85914258  0.32323169  1
  H+  H91  1  0.39106189  0.95059830  0.46214667  1
  H+  H92  1  0.63816818  0.52959882  0.84880439  1
  H+  H93  1  0.68983607  0.34322095  0.96875036  1
  H+  H94  1  0.09588520  0.87411282  1.00413295  1
  H+  H95  1  0.34209927  0.21348018  -0.00198731  1
  H+  H96  1  0.36393932  0.97801529  0.67640127  1
  H+  H97  1  0.38829396  0.52819935  0.18251726  1
  H+  H98  1  0.62543285  0.65391447  0.67084164  1
  H+  H99  1  0.85917805  0.46321449  0.33101935  1
  H+  H100  1  0.21311605  0.89574867  0.17592678  1
  H+  H101  1  0.12387240  0.26306625  0.33348316  1
  H+  H102  1  0.14750467  0.27758711  0.84923116  1
  H+  H103  1  0.39127025  0.37667959  0.66269242  1
  H+  H104  1  0.23435606  0.36871680  0.84986151  1
  H+  H105  1  0.96587980  0.85591579  0.67785553  1
  H+  H106  1  0.20563102  0.85519664  0.99030739  1
  H+  H107  1  0.53874810  0.91688873  0.82863538  1
  H+  H108  1  0.36295100  0.46507059  0.51953693  1
  H+  H109  1  0.96952594  0.85437594  0.83619392  1
  H+  H110  1  0.02463907  0.64093882  0.81691779  1
  H+  H111  1  0.23885346  0.62125518  0.66474456  1
  H+  H112  1  0.39237565  0.12309673  0.19486544  1
  H+  H113  1  0.39813343  0.62455236  0.84244683  1
  H+  H114  1  0.59138871  0.10528707  0.66893032  1
  H+  H115  1  0.59036898  0.22246616  -0.01459580  1
  H+  H116  1  0.84333942  0.21138662  0.67919494  1
  H+  H117  1  0.63261248  0.76043303  0.32860842  1
  H+  H118  1  0.13169043  0.02205997  0.32433433  1
  H+  H119  1  0.96660018  0.86218411  0.31577054  1
  H+  H120  1  0.37777945  0.39902547  0.01311923  1
  H+  H121  1  0.46752840  0.36614396  0.85242762  1
  H+  H122  1  0.11993268  0.76042486  -0.01294170  1
  H+  H123  1  0.72862183  0.61691202  0.66125531  1
  H+  H124  1  0.63549679  0.91099014  0.00002199  1
  H+  H125  1  0.13310958  0.61113321  -0.00727378  1
  H+  H126  1  0.63967863  0.04718659  0.50267748  1
  H+  H127  1  0.65227727  1.05256945  -0.02032820  1
  H+  H128  1  0.97270153  0.36749053  0.52275901  1
  H+  H129  1  0.06772833  0.90687049  0.06381156  1
  H+  H130  1  0.87890525  0.86254533  0.67443467  1
  H+  H131  1  0.85718113  0.12484228  0.67561715  1
  H+  H132  1  0.51135505  0.12744736  0.48908647  1
  H+  H133  1  0.88864304  0.02065261  0.82276798  1
  H+  H134  1  0.28539014  0.15135425  0.66815421  1
  H+  H135  1  0.37692149  0.34829084  0.30464415  1
  H+  H136  1  0.59706513  0.36078812  0.99288601  1
  H+  H137  1  0.60644358  0.20296702  0.67122735  1
  H+  H138  1  0.40492454  0.53444576  0.99747067  1
  H+  H139  1  0.88873503  0.60847716  0.31872150  1
  H+  H140  1  0.09754732  0.72053954  0.52539503  1
  H+  H141  1  0.37166320  0.11117178  0.50930824  1
  H+  H142  1  0.58775263  0.66884618  0.07726180  1
  H+  H143  1  0.76687143  0.63010316  0.82907233  1
  H+  H144  1  0.71007264  0.85134114  0.50753377  1
  H+  H145  1  0.10777641  -0.03400133  0.83001961  1
  H+  H146  1  0.21015734  0.08958938  0.83582461  1
  H+  H147  1  0.29930334  0.95007090  0.06518588  1
  H+  H148  1  0.56494210  0.05766889  0.15019980  1
  H+  H149  1  0.54176799  0.89603948  1.00573618  1
  H+  H150  1  0.82443660  0.90913577  0.39942849  1
  H+  H151  1  0.17677093  0.71370435  0.12522463  1
  H+  H152  1  0.93590825  0.98711613  0.03377410  1
  H+  H153  1  0.10086747  0.87371071  0.31769776  1
  H+  H154  1  0.51491653  0.37254659  0.32358931  1
  H+  H155  1  0.36372352  0.63328907  1.00569074  1
  H+  H156  1  0.47267956  0.10972004  0.98447473  1
  H+  H157  1  0.12969130  0.62955461  0.19470934  1
  H+  H158  1  0.34118160  0.65681760  0.44247507  1
  H+  H159  1  0.86098148  0.88015744  0.16157229  1
  H+  H160  1  0.74742667  0.09482057  0.82023790  1
  H+  H161  1  0.47928425  0.84991340  0.34673341  1
  H+  H162  1  0.37089693  0.22844482  0.50129887  1
  H+  H163  1  0.63698223  0.53300202  0.65654262  1
  H+  H164  1  0.32600515  0.16688583  0.40419695  1
  H+  H165  1  0.12192243  0.10549320  0.17477059  1
  H+  H166  1  0.35607603  -0.02257148  0.33462283  1
  H+  H167  1  0.81323058  0.40576708  0.45873534  1
  H+  H168  1  0.08687575  0.41413257  0.08663786  1
  H+  H169  1  0.88076321  0.02187944  0.66001833  1
  H+  H170  1  0.39313304  0.85506210  0.35328443  1
  H+  H171  1  0.77664835  0.88762297  0.16265854  1
  H+  H172  1  0.62659060  0.60494425  0.35257683  1
  H+  H173  1  0.55841508  0.90627919  0.16166574  1
  H+  H174  1  0.71012480  0.33270423  0.83054169  1
  H+  H175  1  0.37888643  0.26190468  0.32271247  1
  H+  H176  1  0.29542834  1.04768126  0.12270411  1
  H+  H177  1  0.60856510  0.21745572  0.33340651  1
  H+  H178  1  0.88037376  0.14968581  0.12246384  1
  H+  H179  1  0.52147171  0.90557561  0.66384582  1
  H+  H180  1  0.12946775  0.37690462  0.13011394  1
  H+  H181  1  0.26620158  0.40668332  0.53605198  1
  H+  H182  1  0.40935864  0.76432051  0.13316839  1
  H+  H183  1  0.12460748  0.35645627  0.51526369  1
  H+  H184  1  0.85293659  0.89280064  0.50047455  1
  H+  H185  1  0.88631666  0.27726113  0.51866123  1
  H+  H186  1  0.57443126  0.07111137  0.18302808  1
  H+  H187  1  0.82408471  0.13063378  -0.01805186  1
  H+  H188  1  0.85630526  0.97180508  0.34218617  1
  H+  H189  1  0.49226206  0.62781836  0.66169318  1
  H+  H190  1  0.82644109  0.62922155  0.52718650  1
  H+  H191  1  0.84706883  -0.02427077  0.49242445  1
  H+  H192  1  0.94908420  0.60796242  0.52657809  1
  H+  H193  1  0.47328811  0.09429002  0.83519469  1
  H+  H194  1  0.52585168  0.16533193  0.14906268  1
  H+  H195  1  0.64731118  0.13674053  0.50222642  1
  H+  H196  1  0.72373694  0.84991520  0.32720492  1
  H+  H197  1  0.19079259  0.59105707  0.18438058  1
  H+  H198  1  0.11356638  0.48081730  0.50810738  1
  H+  H199  1  0.64486046  0.85722457  0.16859658  1
  H+  H200  1  0.64108061  0.11018991  0.33419860  1
  H+  H201  1  1.01249613  0.63114957  1.00366619  1
  H+  H202  1  0.96614022  0.85095572  0.98776140  1
  H+  H203  1  0.00423157  0.18742720  0.13193943  1
  H+  H204  1  0.34475070  0.58361220  0.17762481  1
  H+  H205  1  0.11184973  0.47800881  0.35894787  1
  H+  H206  1  0.76894042  0.37467935  0.32878307  1
  H+  H207  1  0.27353957  0.14778553  0.50277836  1
  H+  H208  1  0.41317703  0.07206439  0.89500703  1
  H+  H209  1  0.07443285  0.41079577  0.60043338  1
  H+  H210  1  0.12247257  -0.00595008  0.52225169  1
  H+  H211  1  0.28559225  0.64673473  0.82729987  1
  H+  H212  1  0.88301846  0.26368968  0.32424522  1
  H+  H213  1  0.87564460  0.14298112  0.34537741  1
  H+  H214  1  0.84781763  0.91940030  0.62249909  1
  H+  H215  1  0.43431099  0.33278242  0.57174216  1
  H+  H216  1  0.38183977  0.10944906  0.34207370  1
  H+  H217  1  0.60337741  0.46286268  0.33125656  1
  H+  H218  1  0.92123902  0.38634290  0.17747806  1
  H+  H219  1  0.66239917  0.56672739  1.06692940  1
  H+  H220  1  0.34974294  0.62094998  0.34691470  1
  H+  H221  1  0.85580961  0.72073934  0.68018250  1
  H+  H222  1  0.07917085  0.41757560  0.45130502  1
  H+  H223  1  0.26175694  0.37382885  0.30359792  1
  H+  H224  1  0.61803918  0.87389367  0.32822100  1
  H+  H225  1  0.10891268  0.13374564  0.82829559  1
  H+  H226  1  0.36778581  0.48980539  0.82884134  1
  H+  H227  1  0.99499524  0.62548391  0.16861184  1
  H+  H228  1  0.64609980  0.88546882  0.65950417  1
  H+  H229  1  0.13472100  0.76311636  0.15673408  1
  H+  H230  1  0.62184836  0.63888501  0.15192708  1
  H+  H231  1  0.02314248  0.13961143  0.82760304  1
  H+  H232  1  0.91151720  0.07222061  0.38689291  1
  H+  H233  1  0.32638692  0.40888904  0.24769627  1
  H+  H234  1  0.88604932  0.61367231  0.67151863  1
  H+  H235  1  0.60610888  0.19456339  0.82527081  1
  H+  H236  1  0.38817694  0.75981649  0.16347619  1
  H+  H237  1  0.38902801  0.90342221  0.13415575  1
  H+  H238  1  0.38178362  1.01998918  -0.01270685  1
  H+  H239  1  0.40193942  0.85715943  -0.01391564  1
  H+  H240  1  0.27728530  0.60236421  0.09547217  1
  H+  H241  1  0.35541336  0.88737602  0.15880593  1
  H+  H242  1  0.13200843  0.52099580  0.98899106  1
  H+  H243  1  0.87439773  0.35680500  0.32086206  1
  H+  H244  1  0.03034078  0.64137604  0.67697547  1
  H+  H245  1  0.75693534  0.15988900  0.17395454  1
  H+  H246  1  0.18560008  0.32180597  0.06748391  1
  H+  H247  1  0.26177051  0.13066565  0.17471409  1
  H+  H248  1  0.49516315  0.30818637  0.53553629  1
  H+  H249  1  0.11174171  0.64138758  0.33924685  1
  H+  H250  1  0.01360056  0.13373186  0.34896680  1
  H+  H251  1  0.21757697  0.61541902  0.34333992  1
  H+  H252  1  0.86417063  0.10647665  0.10771471  1
  H+  H253  1  0.11161230  0.38531096  0.85710233  1
  H+  H254  1  0.77671700  0.63146798  0.33657478  1
  H+  H255  1  0.35576279  0.01661914  0.51589940  1
  H+  H256  1  0.22635443  0.86108484  0.50738199  1
  H+  H257  1  0.15139057  0.06885436  0.89651561  1
  H+  H258  1  0.66028435  0.37496260  0.16838122  1
  H+  H259  1  0.83970608  0.91848444  0.74666127  1
  H+  H260  1  0.47323402  0.10804153  0.66334272  1
  H+  H261  1  0.37626763  0.72042828  0.50023616  1
  H+  H262  1  0.52086154  0.39567567  0.67620849  1
  H+  H263  1  0.88398744  0.11975602  0.50845135  1
  H+  H264  1  0.74757002  0.89136449  0.97798162  1
  H+  H265  1  0.51450566  0.90302037  0.49344971  1
  H+  H266  1  0.11182436  0.23091315  0.67781092  1
  H+  H267  1  0.34330783  0.10036510  0.81922934  1
  H+  H268  1  0.39196064  0.76458567  0.99225733  1
  H+  H269  1  0.16511635  0.32114097  0.94647820  1
  H+  H270  1  0.37696584  0.64560493  0.67047000  1
  H+  H271  1  0.52595097  0.63797598  0.00709924  1
  H+  H272  1  0.80042515  0.39810756  0.16448590  1
  H+  H273  1  0.09799844  0.88722699  0.16005242  1
  H+  H274  1  0.10369932  0.96849035  0.67975625  1
  H+  H275  1  0.36834500  0.48494931  0.66949140  1
  H+  H276  1  0.26713877  0.13238459  0.34383288  1
  H+  H277  1  0.37106332  0.14566157  0.66986354  1
  H+  H278  1  0.86202387  0.72079474  0.32436056  1
  H+  H279  1  0.87232552  0.63545328  0.15727584  1
  H+  H280  1  0.58747479  0.72748818  0.50468427  1
  H+  H281  1  0.11828533  0.01590279  0.17248968  1
  H+  H282  1  0.14694077  0.62030756  0.84003279  1
  H+  H283  1  0.34638691  0.12758230  0.99141942  1
  H+  H284  1  0.73428664  0.88162868  0.65781594  1
  H+  H285  1  0.11901211  0.73193168  0.67518546  1
  H+  H286  1  0.12314343  0.76069903  0.83645680  1
  H+  H287  1  0.83205034  0.25136740  0.16217545  1
  H+  H288  1  0.59089570  0.67853923  0.76605313  1
  H+  H289  1  0.81164045  0.14140083  0.74142119  1
  H+  H290  1  0.43160020  0.59418468  0.93624286  1
  H+  H291  1  0.57577149  0.13472588  0.76725559  1
  H+  H292  1  0.41155580  0.08196322  0.60456783  1
  H+  H293  1  0.58820450  0.41313106  0.41596248  1
  H+  H294  1  0.33740974  0.91647672  0.73540161  1
  H+  H295  1  0.70788270  0.06571227  0.24581973  1
  H+  H296  1  0.07194763  0.89926163  0.37794932  1
  H+  H297  1  0.45366129  0.86928272  0.25905731  1
  H+  H298  1  0.83908974  0.65997289  0.09642706  1
  H+  H299  1  0.43375860  0.83514684  0.89458415  1
  H+  H300  1  0.17804084  0.59080245  0.57229169  1
  H+  H301  1  0.96939759  0.11697757  0.66582833  1
  H+  H302  1  0.93793586  0.06297169  0.26204520  1
  H+  H303  1  0.58425628  0.42957036  0.73310335  1
  H+  H304  1  0.16975376  0.10467856  0.58071133  1
  H+  H305  1  0.12638970  0.11861179  0.68091218  1
  H+  H306  1  0.81038020  0.39758884  0.75791675  1
  H+  H307  1  0.15178172  0.82328341  0.90283739  1
  H+  H308  1  0.64243548  0.30363830  0.88695461  1
  H+  H309  1  0.08217646  0.90608419  0.76932797  1
  H+  H310  1  0.91070782  0.08672871  0.56753545  1
  H+  H311  1  0.86360764  0.43194904  0.10713855  1
  H+  H312  1  0.56991412  0.18763704  0.08318920  1
  H+  H313  1  0.90661414  0.32112044  0.61827502  1
  H+  H314  1  0.85662017  0.93309923  0.07683195  1
  H+  H315  1  0.84340285  0.18199677  0.43821039  1
  H+  H316  1  0.90574286  0.84574853  0.58863573  1
  H+  H317  1  1.00326936  0.38173956  0.79523055  1
  H+  H318  1  0.32316499  0.14512096  0.76399770  1
  H+  H319  1  0.17442386  0.83814501  0.60787032  1
  H+  H320  1  0.42203385  0.31776350  0.22314078  1
  H+  H321  1  0.43945122  0.59867128  0.60051434  1
  H+  H322  1  0.41557301  0.82810797  0.57115765  1
  H+  H323  1  0.64774479  0.02477899  0.33894590  1
  H+  H324  1  0.60575936  0.14094533  -0.01164435  1
  H+  H325  1  0.27753413  0.88049210  0.82920395  1
  H+  H326  1  0.90941002  0.53289400  0.17023794  1
  H+  H327  1  0.16087739  0.08562732  0.26920933  1
  H+  H328  1  0.91149729  0.34750833  0.92837114  1
  H+  H329  1  0.90510994  0.82753231  0.89213922  1
  H+  H330  1  0.86111085  0.71479448  0.00180920  1
  H+  H331  1  0.07935151  0.17385486  0.73915942  1
  H+  H332  1  0.66663404  0.82112371  0.23008823  1
  H+  H333  1  0.15690922  0.58718025  0.28357470  1
  H+  H334  1  0.44307433  0.48948980  0.43193342  1
  H+  H335  1  0.14411624  0.26198526  0.12541061  1
  H+  H336  1  0.90336259  0.82360517  0.22903704  1
  H+  H337  1  0.92452132  0.33419608  0.26156748  1
  H+  H338  1  0.10546187  0.24690743  -0.00748031  1
  H+  H339  1  0.04956209  0.13377326  0.06186777  1
  H+  H340  1  0.58008889  0.16700027  0.39761822  1
  H+  H341  1  0.35058728  1.01687389  0.15349117  1
  H+  H342  1  0.91695405  0.57609742  0.94486481  1
  H+  H343  1  0.40544208  0.58889369  0.26842454  1
  H+  H344  1  0.58198698  0.39885862  0.09289765  1
  H+  H345  1  0.85065201  0.46769681  0.66941405  1
  H+  H346  1  0.37070813  0.44367322  0.07376234  1
  H+  H347  1  0.31631722  0.89248185  0.41943980  1
  H+  H348  1  0.48726287  0.62510699  0.84072143  1
  H+  H349  1  0.31847211  0.87764685  0.04752838  1
  H+  H350  1  0.67164253  0.32490326  0.25702331  1
  H+  H351  1  0.92677053  0.58256005  0.26224355  1
  H+  H352  1  0.60479080  0.92296614  0.09513320  1
  H+  H353  1  0.88315142  0.60808695  0.81187555  1
  H+  H354  1  0.83961425  0.37244779  0.66901126  1
  H+  H355  1  0.73380551  0.87893570  0.82064137  1
  H+  H356  1  0.39890002  0.48297703  0.42630717  1
  H+  H357  1  0.68790238  0.86668197  0.91990154  1
  H+  H358  1  0.84496309  0.11388408  0.81917438  1
  H+  H359  1  0.90430212  0.07406557  0.88504379  1
  H+  H360  1  0.33535298  0.43048692  0.76915200  1
  H+  H361  1  0.39343433  0.28770651  0.66547365  1
  H+  H362  1  0.17666282  0.59384518  0.90041556  1
  H+  H363  1  0.15250796  0.83736749  0.23655349  1
  H+  H364  1  0.82289976  0.65725031  0.73695463  1
  H+  H365  1  0.34648814  0.67173502  0.73193916  1
  H+  H366  1  0.06897621  0.92558720  0.47211130  1
  H+  H367  1  0.62044169  0.31858080  0.56961652  1
  H+  H368  1  0.09501556  0.67889095  0.76536184  1
  H+  H369  1  0.69221854  0.60531543  0.56648035  1
  H+  H370  1  0.59089577  0.92342393  0.44969991  1
  H+  H371  1  0.12360858  0.01216131  0.99007647  1
  H+  H372  1  0.10678019  0.13637881  0.34347055  1
  H+  H373  1  0.49887139  0.96196131  0.22859756  1
  H+  H374  1  0.14873179  0.62080674  0.66571526  1
  H+  H375  1  0.61530039  0.63053018  1.01526549  1
  H+  H376  1  0.11403693  0.47368857  0.84989789  1
  H+  H377  1  0.65827978  0.83099469  0.56963658  1
  H+  H378  1  0.64104287  0.61935842  0.83740832  1
  H+  H379  1  0.07926123  0.16104333  0.43883524  1
  H+  H380  1  0.60869157  0.37179735  0.83725986  1
  H+  H381  1  0.12363044  0.31698953  0.27628876  1
  H+  H382  1  0.66835078  0.57583991  0.22051994  1
  H+  H383  1  0.01541769  0.38486451  -0.00382574  1
  O2-  O384  1  0.04104080  0.16314153  0.14047722  1
  O2-  O385  1  0.07850250  0.16017898  0.48455490  1
  O2-  O386  1  0.08531000  0.17116924  0.81571198  1
  O2-  O387  1  0.10463090  0.41539413  0.13025448  1
  O2-  O388  1  0.07784604  0.41833694  0.49748690  1
  O2-  O389  1  0.07451728  0.41144730  0.85449901  1
  O2-  O390  1  0.12080650  0.70525249  0.13726890  1
  O2-  O391  1  0.05924521  0.65794796  0.52683610  1
  O2-  O392  1  0.08882425  0.67790152  0.81163712  1
  O2-  O393  1  0.06789652  0.91639478  0.14180052  1
  O2-  O394  1  0.09055698  0.93034604  0.51330344  1
  O2-  O395  1  0.08170656  0.90397617  0.81531417  1
  O2-  O396  1  0.32152364  0.14962084  0.16217246  1
  O2-  O397  1  0.33087411  0.16902298  0.48388220  1
  O2-  O398  1  0.29864726  0.11105274  0.80135120  1
  O2-  O399  1  0.34439854  0.41285818  0.16338822  1
  O2-  O400  1  0.32117765  0.45386157  0.55136211  1
  O2-  O401  1  0.33367404  0.42917465  0.81456677  1
  O2-  O402  1  0.25481061  0.57316478  0.13495181  1
  O2-  O403  1  0.35013885  0.65903712  0.48751502  1
  O2-  O404  1  0.34538560  0.67336066  0.81083861  1
  O2-  O405  1  0.29871640  0.99449373  0.12665915  1
  O2-  O406  1  0.33212039  0.90241265  0.46304619  1
  O2-  O407  1  0.33654555  0.90900762  0.81366385  1
  O2-  O408  1  0.57040213  0.21119877  0.12418110  1
  O2-  O409  1  0.56951168  0.16739379  0.47379152  1
  O2-  O410  1  0.57554197  0.13238187  0.81252241  1
  O2-  O411  1  0.58616872  0.40529062  0.13881184  1
  O2-  O412  1  0.60350945  0.43692293  0.45790201  1
  O2-  O413  1  0.58729920  0.40960826  0.85416651  1
  O2-  O414  1  0.59294040  0.66964008  0.13622383  1
  O2-  O415  1  0.55169126  0.66857211  0.48341869  1
  O2-  O416  1  0.58996912  0.67834167  0.81166901  1
  O2-  O417  1  0.61137761  0.91822973  0.14063208  1
  O2-  O418  1  0.56012599  0.94920288  0.46826953  1
  O2-  O419  1  0.59757792  0.95399754  0.81078832  1
  O2-  O420  1  0.76952979  0.21793853  0.16124746  1
  O2-  O421  1  0.83995704  0.17818731  0.48329135  1
  O2-  O422  1  0.80549580  0.13381438  0.80364943  1
  O2-  O423  1  0.86279525  0.43292054  0.15284516  1
  O2-  O424  1  0.81815080  0.41091693  0.50290257  1
  O2-  O425  1  0.81680724  0.39399428  0.80300018  1
  O2-  O426  1  0.83599608  0.65943059  0.14237317  1
  O2-  O427  1  0.80227229  0.66885636  0.52677960  1
  O2-  O428  1  0.82804233  0.65791226  0.81209036  1
  O2-  O429  1  0.83863487  0.91973317  0.15056797  1
  O2-  O430  1  0.82035914  0.91550455  0.47764679  1
  O2-  O431  1  0.83800830  0.91865216  0.79178407  1
  O2-  O432  1  0.15064059  0.07557027  0.19021200  1
  O2-  O433  1  0.16920975  0.09755531  0.53650617  1
  O2-  O434  1  0.14920279  0.06529021  0.85084907  1
  O2-  O435  1  0.18584255  0.32124109  0.11274637  1
  O2-  O436  1  0.15543569  0.32585177  0.52825531  1
  O2-  O437  1  0.17691625  0.33437844  0.86975471  1
  O2-  O438  1  0.14572228  0.58912341  0.21170320  1
  O2-  O439  1  0.17288807  0.58685307  0.52682388  1
  O2-  O440  1  0.18106184  0.59491837  0.85492578  1
  O2-  O441  1  0.15647292  0.84769013  0.18775446  1
  O2-  O442  1  0.17270949  0.83890303  0.53051531  1
  O2-  O443  1  0.15366999  0.82491247  0.85515674  1
  O2-  O444  1  0.42570301  0.09324042  0.20272736  1
  O2-  O445  1  0.39823039  0.07626452  0.52442215  1
  O2-  O446  1  0.41176542  0.06665169  0.84916876  1
  O2-  O447  1  0.42128205  0.32118265  0.17774727  1
  O2-  O448  1  0.44556027  0.31806618  0.53027924  1
  O2-  O449  1  0.40646095  0.33923824  0.86373606  1
  O2-  O450  1  0.39501125  0.58344360  0.19599107  1
  O2-  O451  1  0.47201398  0.62096812  0.51742572  1
  O2-  O452  1  0.42800489  0.59434471  0.85862701  1
  O2-  O453  1  0.49942981  0.90809813  0.23053264  1
  O2-  O454  1  0.41564338  0.82290083  0.52541296  1
  O2-  O455  1  0.43507383  0.84103067  0.84949528  1
  O2-  O456  1  0.73571280  0.06018315  0.20889742  1
  O2-  O457  1  0.67912651  0.10764323  0.51458522  1
  O2-  O458  1  0.63728043  0.02835336  0.85196772  1
  O2-  O459  1  0.69184180  0.34562717  0.18210661  1
  O2-  O460  1  0.59121019  0.30759932  0.52919344  1
  O2-  O461  1  0.64780027  0.30012040  0.84061409  1
  O2-  O462  1  0.67288968  0.58027669  0.17624370  1
  O2-  O463  1  0.71023813  0.61077056  0.52261030  1
  O2-  O464  1  0.67326053  0.59232167  0.85406669  1
  O2-  O465  1  0.67153082  0.82310668  0.18477766  1
  O2-  O466  1  0.65134512  0.82129310  0.52486501  1
  O2-  O467  1  0.67617671  0.85380598  0.84016444  1
  O2-  O468  1  0.95729600  0.05075303  0.22328760  1
  O2-  O469  1  0.91163509  0.08575574  0.52214145  1
  O2-  O470  1  0.91417747  0.07985149  0.84002213  1
  O2-  O471  1  0.94659235  0.35187295  0.19365131  1
  O2-  O472  1  0.91306557  0.33451767  0.53941805  1
  O2-  O473  1  0.95877311  0.37134254  0.76400329  1
  O2-  O474  1  0.93595030  0.59521388  0.18380005  1
  O2-  O475  1  0.88755263  0.57811288  0.53949148  1
  O2-  O476  1  0.91842282  0.57910283  0.80472365  1
  O2-  O477  1  0.90634104  0.82425722  0.18317721  1
  O2-  O478  1  0.91706386  0.87675595  0.54922936  1
  O2-  O479  1  0.90770485  0.82705402  0.84671249  1
  O2-  O480  1  0.16343344  0.08448408  0.31450763  1
  O2-  O481  1  0.15969395  0.08597073  0.67625843  1
  O2-  O482  1  0.14945664  0.07186527  0.97429504  1
  O2-  O483  1  0.15147070  0.32368419  0.31550241  1
  O2-  O484  1  0.17067197  0.32893387  0.65096193  1
  O2-  O485  1  0.14390635  0.30964582  0.98972932  1
  O2-  O486  1  0.15645233  0.58881427  0.32967499  1
  O2-  O487  1  0.17859174  0.59150584  0.64893872  1
  O2-  O488  1  0.16562965  0.58325811  0.97761239  1
  O2-  O489  1  0.14102832  0.81983966  0.29931655  1
  O2-  O490  1  0.17001058  0.83716482  0.65327073  1
  O2-  O491  1  0.14778846  0.82233185  0.97072276  1
  O2-  O492  1  0.41014394  0.07631943  0.32841069  1
  O2-  O493  1  0.41145776  0.08266286  0.64980157  1
  O2-  O494  1  0.40993038  0.07757027  0.96917974  1
  O2-  O495  1  0.41096049  0.31822847  0.30111367  1
  O2-  O496  1  0.42447316  0.34776792  0.64972875  1
  O2-  O497  1  0.40068669  0.32641759  0.98421218  1
  O2-  O498  1  0.40767167  0.58106947  0.31432685  1
  O2-  O499  1  0.43224114  0.59765074  0.64507618  1
  O2-  O500  1  0.43281644  0.59613409  0.98197889  1
  O2-  O501  1  0.41668673  0.82107071  0.33565933  1
  O2-  O502  1  0.41888263  0.83679226  0.64616523  1
  O2-  O503  1  0.42837319  0.82361278  0.97417797  1
  O2-  O504  1  0.67808026  0.08501279  0.32461488  1
  O2-  O505  1  0.60192428  0.02032439  0.63955355  1
  O2-  O506  1  0.66680617  0.10583345  0.95718729  1
  O2-  O507  1  0.66517263  0.32011516  0.30268423  1
  O2-  O508  1  0.64579661  0.31784542  0.64522065  1
  O2-  O509  1  0.63020116  0.31825613  0.95654227  1
  O2-  O510  1  0.65962637  0.57339061  0.35206590  1
  O2-  O511  1  0.66976710  0.59374894  0.64301557  1
  O2-  O512  1  0.66663903  0.57491859  1.02294475  1
  O2-  O513  1  0.66415151  0.81881109  0.30974563  1
  O2-  O514  1  0.66979637  0.84847881  0.64842768  1
  O2-  O515  1  0.68838150  0.86865496  0.96516794  1
  O2-  O516  1  0.91753373  0.08370719  0.34323876  1
  O2-  O517  1  0.90994958  0.08796023  0.64934072  1
  O2-  O518  1  0.89275702  0.07974493  0.96095754  1
  O2-  O519  1  0.90843518  0.32638418  0.30709555  1
  O2-  O520  1  0.88360110  0.30815944  0.66070959  1
  O2-  O521  1  0.91012512  0.33833895  0.97214370  1
  O2-  O522  1  0.92178955  0.57802655  0.30747765  1
  O2-  O523  1  0.91803474  0.58316977  0.65942311  1
  O2-  O524  1  0.92109638  0.58302487  0.98889278  1
  O2-  O525  1  0.90491253  0.82965606  0.30393969  1
  O2-  O526  1  0.90434294  0.82429159  0.66646445  1
  O2-  O527  1  0.90556456  0.82070603  0.97207541  1
  O2-  O528  1  0.04738200  0.12811814  0.01701424  1
  O2-  O529  1  0.07946944  0.16809668  0.36055292  1
  O2-  O530  1  0.07806805  0.16974072  0.69348263  1
  O2-  O531  1  0.07617090  0.41406549  0.01101011  1
  O2-  O532  1  0.08672079  0.42031996  0.37754222  1
  O2-  O533  1  0.08761498  0.41667544  0.64376783  1
  O2-  O534  1  0.07919241  0.66718706  0.01409028  1
  O2-  O535  1  0.07717641  0.67306408  0.34332628  1
  O2-  O536  1  0.09084730  0.67214921  0.69221200  1
  O2-  O537  1  0.06651836  0.90544905  0.01812518  1
  O2-  O538  1  0.07483526  0.91022945  0.33448493  1
  O2-  O539  1  0.07798678  0.90827810  0.69395152  1
  O2-  O540  1  0.30991996  0.15059559  0.00639325  1
  O2-  O541  1  0.32782536  0.16253297  0.35894602  1
  O2-  O542  1  0.34422935  0.18012203  0.68427949  1
  O2-  O543  1  0.36388265  0.44294077  0.02953151  1
  O2-  O544  1  0.32411131  0.40421816  0.29276826  1
  O2-  O545  1  0.34002998  0.42719105  0.68897047  1
  O2-  O546  1  0.33078959  0.66125021  0.02022210  1
  O2-  O547  1  0.32149587  0.65139097  0.36612922  1
  O2-  O548  1  0.34498676  0.67411816  0.68651611  1
  O2-  O549  1  0.30094902  0.91553140  0.02869853  1
  O2-  O550  1  0.32214170  0.91144105  0.33786191  1
  O2-  O551  1  0.33427649  0.91655825  0.68994248  1
  O2-  O552  1  0.56741192  0.16334684  0.00463120  1
  O2-  O553  1  0.57788433  0.15881467  0.35229582  1
  O2-  O554  1  0.57200417  0.14375626  0.68738405  1
  O2-  O555  1  0.56999155  0.39298828  0.01811141  1
  O2-  O556  1  0.57634486  0.39967182  0.33673652  1
  O2-  O557  1  0.58358948  0.42452070  0.68896416  1
  O2-  O558  1  0.58688046  0.66519035  0.02556624  1
  O2-  O559  1  0.56976813  0.65786654  0.35982074  1
  O2-  O560  1  0.59442131  0.68215042  0.68834098  1
  O2-  O561  1  0.60038456  0.93245402  0.02132803  1
  O2-  O562  1  0.58724557  0.90769707  0.33351952  1
  O2-  O563  1  0.58373613  0.94941854  0.67311491  1
  O2-  O564  1  0.79813193  0.15985079  0.00395279  1
  O2-  O565  1  0.84686494  0.17930598  0.35455725  1
  O2-  O566  1  0.81909529  0.14865096  0.69227058  1
  O2-  O567  1  0.85816525  0.43505234  0.03108365  1
  O2-  O568  1  0.82962400  0.40220805  0.34411442  1
  O2-  O569  1  0.81146978  0.40659105  0.68056672  1
  O2-  O570  1  0.83558704  0.65693469  0.02093352  1
  O2-  O571  1  0.83976441  0.65932404  0.33392864  1
  O2-  O572  1  0.82688827  0.65815051  0.69131522  1
  O2-  O573  1  0.87526851  0.94245528  0.03250928  1
  O2-  O574  1  0.82541766  0.90904848  0.35372022  1
  O2-  O575  1  0.83686808  0.92648662  0.66515353  1
