# generated using pymatgen
data_H2O
_symmetry_space_group_name_H-M   'P 1'
_cell_length_a   17.94356572
_cell_length_b   17.93756070
_cell_length_c   21.94833276
_cell_angle_alpha   90.00108334
_cell_angle_beta   90.02837140
_cell_angle_gamma   120.01834099
_symmetry_Int_Tables_number   1
_chemical_formula_structural   H2O
_chemical_formula_sum   'H384 O192'
_cell_volume   6116.79510301
_cell_formula_units_Z   192
loop_
 _symmetry_equiv_pos_site_id
 _symmetry_equiv_pos_as_xyz
  1  'x, y, z'
loop_
 _atom_type_symbol
 _atom_type_oxidation_number
  H+  1.0
  O2-  -2.0
loop_
 _atom_site_type_symbol
 _atom_site_label
 _atom_site_symmetry_multiplicity
 _atom_site_fract_x
 _atom_site_fract_y
 _atom_site_fract_z
 _atom_site_occupancy
  H+  H0  1  0.51603571  0.64017213  0.16449662  1
  H+  H1  1  0.10060826  0.22426933  0.82366271  1
  H+  H2  1  0.63468376  0.06206099  0.32692469  1
  H+  H3  1  0.14003345  0.10972622  0.50850686  1
  H+  H4  1  0.12937409  0.26402534  0.65743429  1
  H+  H5  1  0.39133761  0.61759209  0.17436317  1
  H+  H6  1  0.37995252  0.27695155  0.17153233  1
  H+  H7  1  0.37323395  0.26867228  0.83955475  1
  H+  H8  1  0.35243669  0.74982929  0.31731008  1
  H+  H9  1  0.63503067  0.34409881  0.64961857  1
  H+  H10  1  0.41005081  0.16684947  0.82490681  1
  H+  H11  1  0.06209854  0.41714032  -0.02403264  1
  H+  H12  1  0.32872338  0.46016627  0.81782852  1
  H+  H13  1  0.61232264  0.14828879  0.15527149  1
  H+  H14  1  0.78162050  0.88832276  0.68028746  1
  H+  H15  1  0.93131989  0.81869842  0.15792571  1
  H+  H16  1  0.27742202  0.13029894  0.50053678  1
  H+  H17  1  0.87003267  0.63863572  0.66889184  1
  H+  H18  1  0.63462983  0.59834994  0.50027403  1
  H+  H19  1  1.02691373  0.38511835  0.49060552  1
  H+  H20  1  0.14216564  0.77155130  0.66553656  1
  H+  H21  1  0.59764852  0.57776037  0.28835585  1
  H+  H22  1  0.34129263  0.66313753  0.42996925  1
  H+  H23  1  0.35998258  0.62241958  0.33932235  1
  H+  H24  1  0.09806826  -0.02474079  0.99000496  1
  H+  H25  1  0.10802398  0.37918305  0.67215788  1
  H+  H26  1  0.63559519  0.85963576  0.98941525  1
  H+  H27  1  0.90403174  0.65782305  0.00035659  1
  H+  H28  1  0.88135029  0.52049917  0.65520559  1
  H+  H29  1  0.77061748  0.38039400  0.66605331  1
  H+  H30  1  0.43450912  0.37881809  0.36310958  1
  H+  H31  1  0.97412612  0.11691741  0.32823013  1
  H+  H32  1  0.14118693  0.51816750  0.50046384  1
  H+  H33  1  0.87849822  0.76044820  0.34036833  1
  H+  H34  1  0.13872008  0.60943201  0.32364523  1
  H+  H35  1  0.10915645  0.23375219  1.00647741  1
  H+  H36  1  0.77466057  0.38316334  0.82316217  1
  H+  H37  1  0.72749848  0.37795958  -0.00707599  1
  H+  H38  1  0.10050382  0.38236509  0.14621211  1
  H+  H39  1  0.65240047  0.37019655  0.82793891  1
  H+  H40  1  0.61769661  0.61125553  0.19163473  1
  H+  H41  1  0.85684541  0.13888119  0.83482014  1
  H+  H42  1  0.67976062  0.59524733  0.87194650  1
  H+  H43  1  0.24827490  0.19718567  0.87031142  1
  H+  H44  1  0.13882765  0.26760016  0.50191086  1
  H+  H45  1  0.82755037  0.16806840  0.74157062  1
  H+  H46  1  0.12511910  0.86316823  0.32068896  1
  H+  H47  1  0.88190647  0.36532209  0.16384505  1
  H+  H48  1  0.13955992  0.02048948  0.50836542  1
  H+  H49  1  1.01922297  0.13896926  0.16047387  1
  H+  H50  1  0.08348274  0.16371970  0.43271958  1
  H+  H51  1  0.22631774  0.59818591  0.84284988  1
  H+  H52  1  0.82984530  0.42186753  0.06644973  1
  H+  H53  1  0.90451294  0.78372397  0.84822385  1
  H+  H54  1  0.94042243  0.84860533  0.90633658  1
  H+  H55  1  0.83737589  0.72648857  0.15354111  1
  H+  H56  1  0.47085246  0.24777028  0.78371720  1
  H+  H57  1  0.11127610  0.63017183  0.48568970  1
  H+  H58  1  0.88319468  0.36557126  0.84094867  1
  H+  H59  1  0.89198824  0.77624341  0.65917296  1
  H+  H60  1  0.14741096  0.86341984  0.66594222  1
  H+  H61  1  0.95652343  0.61664296  0.16270228  1
  H+  H62  1  0.63008034  0.27216714  0.84148569  1
  H+  H63  1  0.14857460  0.76503577  0.98722589  1
  H+  H64  1  0.88308806  0.27402649  0.66113842  1
  H+  H65  1  0.21843334  0.10591772  0.84375181  1
  H+  H66  1  0.86774443  0.98000272  0.67737022  1
  H+  H67  1  0.11375125  0.51529746  0.16300924  1
  H+  H68  1  0.38276464  0.04012956  0.32081331  1
  H+  H69  1  0.37880228  0.87082868  0.82364372  1
  H+  H70  1  0.51102184  0.12657937  0.84805460  1
  H+  H71  1  0.62517512  0.14601262  -0.00930496  1
  H+  H72  1  0.88815053  0.27923052  0.50267997  1
  H+  H73  1  0.14115780  1.02502159  0.66290194  1
  H+  H74  1  0.95040979  0.80490554  1.00260710  1
  H+  H75  1  0.76574389  0.88632839  1.00616739  1
  H+  H76  1  0.39160951  0.10753171  0.66345272  1
  H+  H77  1  0.10454826  0.13123711  0.33633567  1
  H+  H78  1  0.64464282  0.77864116  0.82181532  1
  H+  H79  1  0.47760771  0.59569204  0.64190523  1
  H+  H80  1  0.72625884  0.12510049  0.16583441  1
  H+  H81  1  0.97089406  0.36299947  0.15378061  1
  H+  H82  1  0.74252286  0.87481796  0.83155286  1
  H+  H83  1  0.86514872  0.25898282  0.99078153  1
  H+  H84  1  0.46386483  0.35586215  -0.00381468  1
  H+  H85  1  0.61514310  0.48305728  1.02601326  1
  H+  H86  1  0.26464973  0.39044716  0.15525460  1
  H+  H87  1  0.85652929  0.38666163  1.00822572  1
  H+  H88  1  0.49325442  0.84614375  0.50781730  1
  H+  H89  1  0.39186758  0.01689775  0.66061364  1
  H+  H90  1  0.63391876  0.66180403  0.80837138  1
  H+  H91  1  0.61435901  0.11886629  0.51979390  1
  H+  H92  1  0.27129121  0.62380809  0.34148848  1
  H+  H93  1  0.13192271  0.77727396  0.31920162  1
  H+  H94  1  0.11058932  0.22297515  0.33598447  1
  H+  H95  1  0.97272315  0.60798849  0.65464345  1
  H+  H96  1  0.77536302  0.89948989  0.36285064  1
  H+  H97  1  0.37033643  0.62754235  0.48739361  1
  H+  H98  1  0.34695661  0.89183943  0.33010493  1
  H+  H99  1  0.63688871  0.77174891  0.00036764  1
  H+  H100  1  0.33615583  0.33365320  0.84474503  1
  H+  H101  1  0.34079233  0.21487627  0.01036565  1
  H+  H102  1  0.38372463  0.52339490  0.17271508  1
  H+  H103  1  0.62957528  0.28180161  0.17136695  1
  H+  H104  1  0.12409280  0.72173219  0.82018685  1
  H+  H105  1  -0.02284133  0.11794064  0.83853175  1
  H+  H106  1  0.87395023  0.53658370  0.31864944  1
  H+  H107  1  0.08217124  0.90447594  0.04485945  1
  H+  H108  1  0.44719145  0.53499935  0.84737375  1
  H+  H109  1  0.40152346  0.38085027  0.50942022  1
  H+  H110  1  0.73151678  0.13949241  0.32824961  1
  H+  H111  1  0.35616732  0.15476380  0.33523867  1
  H+  H112  1  0.53852257  0.91313223  0.30480539  1
  H+  H113  1  0.11312262  0.35158932  0.83773026  1
  H+  H114  1  0.13654990  0.36975496  0.99381582  1
  H+  H115  1  0.62623813  0.70661095  0.33023217  1
  H+  H116  1  0.61034862  0.51941530  0.19559462  1
  H+  H117  1  0.40031028  0.96548856  0.81126901  1
  H+  H118  1  0.71953620  0.11279167  0.86794541  1
  H+  H119  1  0.29141091  0.63944258  0.00654190  1
  H+  H120  1  0.11083759  0.13236734  0.67143269  1
  H+  H121  1  -0.02705365  0.86850471  0.33555780  1
  H+  H122  1  0.55144833  0.95083601  0.28389028  1
  H+  H123  1  0.53215311  0.90408613  0.14880713  1
  H+  H124  1  0.62228043  0.72196761  0.48936481  1
  H+  H125  1  0.77009123  0.13834848  0.68201066  1
  H+  H126  1  0.76511369  0.38966130  0.16074882  1
  H+  H127  1  0.50881785  0.11665537  0.68927523  1
  H+  H128  1  0.01120941  0.38190622  0.82642255  1
  H+  H129  1  0.94738835  0.41798520  0.39608084  1
  H+  H130  1  0.80347815  0.65968023  0.82180280  1
  H+  H131  1  0.39455934  0.76146700  0.84546372  1
  H+  H132  1  0.64541041  0.45334194  0.50186398  1
  H+  H133  1  0.15936306  0.83671093  0.22313792  1
  H+  H134  1  0.52214437  0.87888454  0.68010596  1
  H+  H135  1  0.86049320  0.60813269  0.16355482  1
  H+  H136  1  0.10455488  0.46813844  0.82720551  1
  H+  H137  1  0.38221608  0.64269873  0.00212592  1
  H+  H138  1  0.02164765  0.62849816  0.48546650  1
  H+  H139  1  0.10040303  0.13980232  0.00875230  1
  H+  H140  1  0.86817223  -0.02016562  0.50439007  1
  H+  H141  1  0.37375677  0.46677070  0.48248246  1
  H+  H142  1  0.87516429  0.51467878  0.50205557  1
  H+  H143  1  0.90716959  0.59317852  0.25766522  1
  H+  H144  1  0.46487926  0.57802401  0.32142887  1
  H+  H145  1  0.92430377  0.37299283  0.30572510  1
  H+  H146  1  0.12998715  0.27224043  0.16532823  1
  H+  H147  1  0.73392786  0.61291956  1.07962325  1
  H+  H148  1  0.40014724  0.12920099  0.51039598  1
  H+  H149  1  0.37894967  0.36493598  0.17131289  1
  H+  H150  1  0.97277690  0.46573147  0.39156989  1
  H+  H151  1  0.85512030  0.22837203  0.14379340  1
  H+  H152  1  0.22759934  0.86215183  0.16880428  1
  H+  H153  1  0.12807553  0.11177188  0.16691466  1
  H+  H154  1  0.62887731  0.63973868  0.02656551  1
  H+  H155  1  0.11917952  0.88743246  0.48580266  1
  H+  H156  1  0.62878081  0.23644685  1.00018341  1
  H+  H157  1  0.37018025  0.62365356  0.82663737  1
  H+  H158  1  0.88799779  0.65033330  0.82642324  1
  H+  H159  1  0.88291499  0.11361183  0.66709585  1
  H+  H160  1  0.10157357  0.72194864  0.15162651  1
  H+  H161  1  0.89414797  0.86673905  0.66140235  1
  H+  H162  1  0.15660278  0.52061758  0.00027331  1
  H+  H163  1  0.41975026  0.56783652  0.55167452  1
  H+  H164  1  0.60860748  0.39379352  0.01191996  1
  H+  H165  1  0.11383508  -0.03156444  0.82438899  1
  H+  H166  1  0.13832863  0.89178214  0.13567182  1
  H+  H167  1  0.37285316  0.01735079  0.99465582  1
  H+  H168  1  0.61905455  0.99394630  0.15148670  1
  H+  H169  1  1.02549279  0.88276743  0.82940576  1
  H+  H170  1  0.36990582  0.88934333  0.00696739  1
  H+  H171  1  0.19294613  0.97299348  0.09486721  1
  H+  H172  1  0.27530677  0.13121588  0.67241619  1
  H+  H173  1  0.84683391  0.13054885  -0.00625426  1
  H+  H174  1  0.24005295  0.86089184  0.82829881  1
  H+  H175  1  0.53940871  0.17505582  0.50141245  1
  H+  H176  1  0.85076463  0.22470338  0.83521065  1
  H+  H177  1  1.02683337  0.13689568  0.49385584  1
  H+  H178  1  0.89021815  0.11679671  0.50692320  1
  H+  H179  1  0.62691116  0.88466234  0.50918758  1
  H+  H180  1  0.35976496  0.13750874  0.15890149  1
  H+  H181  1  0.22964652  0.86942918  0.49355732  1
  H+  H182  1  0.25163895  0.63953441  0.67639707  1
  H+  H183  1  0.70155528  0.32092457  0.49531895  1
  H+  H184  1  0.63711930  0.87938458  0.15937467  1
  H+  H185  1  0.97378240  0.36077545  0.65838495  1
  H+  H186  1  0.40602251  0.56802599  0.26447844  1
  H+  H187  1  0.61436652  0.17460290  0.34265114  1
  H+  H188  1  0.35669915  0.38715115  0.00648814  1
  H+  H189  1  0.10463169  0.62571064  0.66581160  1
  H+  H190  1  0.62905297  1.01660881  0.67228742  1
  H+  H191  1  0.68023100  0.57462262  0.59824023  1
  H+  H192  1  0.38592229  0.26357900  0.65513462  1
  H+  H193  1  0.15084772  0.36104369  0.32301842  1
  H+  H194  1  0.36983667  -0.00777574  0.48945748  1
  H+  H195  1  0.33507378  0.91981656  0.09872714  1
  H+  H196  1  0.92721959  0.58334473  0.89568479  1
  H+  H197  1  0.96679222  0.11814580  0.99538956  1
  H+  H198  1  0.87351368  0.65361606  0.33448664  1
  H+  H199  1  0.03355174  0.63390022  0.82399725  1
  H+  H200  1  0.87848371  0.86358042  0.34035021  1
  H+  H201  1  0.22982328  0.60818189  0.50222433  1
  H+  H202  1  0.56843706  0.39089290  0.34551914  1
  H+  H203  1  0.09162881  0.62818368  0.15532391  1
  H+  H204  1  0.42136157  0.82647251  0.90373606  1
  H+  H205  1  0.52029672  0.39795586  0.87170701  1
  H+  H206  1  0.26514507  0.90096352  0.33195808  1
  H+  H207  1  0.74951140  0.61593521  0.16898207  1
  H+  H208  1  0.95621240  0.34293233  1.00347146  1
  H+  H209  1  0.20721418  0.09978144  1.00245530  1
  H+  H210  1  0.39520965  0.74857234  0.50250453  1
  H+  H211  1  0.39913946  0.08508170  0.91753421  1
  H+  H212  1  0.26856594  0.13600587  0.16171541  1
  H+  H213  1  0.87116535  0.89233100  0.83401559  1
  H+  H214  1  0.72248839  0.47547624  0.76517293  1
  H+  H215  1  0.85340834  0.47987227  0.15925729  1
  H+  H216  1  0.88543423  0.12046878  0.16670316  1
  H+  H217  1  0.73654300  0.40550363  0.33817674  1
  H+  H218  1  0.54430350  0.76123604  0.28890211  1
  H+  H219  1  0.62703624  0.37001305  0.17456796  1
  H+  H220  1  0.21519069  0.11182572  0.32350728  1
  H+  H221  1  0.42499733  0.81519741  0.56841968  1
  H+  H222  1  0.88846510  0.02957034  0.83995581  1
  H+  H223  1  0.04148130  0.37972701  0.32960340  1
  H+  H224  1  0.89548823  0.52691828  0.99143138  1
  H+  H225  1  0.36497810  0.98192847  0.15758019  1
  H+  H226  1  0.49191601  0.61069056  0.99452568  1
  H+  H227  1  0.88585374  1.02809928  0.33164729  1
  H+  H228  1  0.02957562  0.88804987  0.66868248  1
  H+  H229  1  0.37939142  0.35028829  0.66109238  1
  H+  H230  1  0.27897899  0.88080979  0.66844655  1
  H+  H231  1  0.12605259  0.62986213  1.00659999  1
  H+  H232  1  0.46935391  0.13130560  0.32550666  1
  H+  H233  1  0.86283528  0.13908563  0.33636961  1
  H+  H234  1  0.60470108  0.11647694  0.69308045  1
  H+  H235  1  0.39332379  0.86324605  0.64995770  1
  H+  H236  1  0.61210327  0.29925371  0.32784239  1
  H+  H237  1  0.85424638  0.97913716  0.00958328  1
  H+  H238  1  0.33936848  0.23323414  0.35170361  1
  H+  H239  1  0.35464925  0.03742838  0.85209294  1
  H+  H240  1  0.89290846  0.52540841  0.83514273  1
  H+  H241  1  0.20148412  0.35081500  0.83415093  1
  H+  H242  1  0.66035275  0.30321337  0.59550974  1
  H+  H243  1  0.38886147  0.73805787  0.15470597  1
  H+  H244  1  0.13313281  0.51389188  0.65609261  1
  H+  H245  1  0.67445474  0.55324432  0.80839707  1
  H+  H246  1  0.43240196  0.34783617  0.57693940  1
  H+  H247  1  0.76260522  0.87635820  0.14891490  1
  H+  H248  1  0.35368345  0.45680102  0.66698389  1
  H+  H249  1  0.27412666  0.71627242  0.72009977  1
  H+  H250  1  0.50909256  0.38579056  0.16948568  1
  H+  H251  1  0.18022662  0.57982255  0.94072149  1
  H+  H252  1  0.52305544  0.37940705  0.66829646  1
  H+  H253  1  0.89039185  0.77536745  0.50588447  1
  H+  H254  1  0.07952864  0.65469040  0.72766723  1
  H+  H255  1  1.02468937  0.63814431  0.32859210  1
  H+  H256  1  0.10480712  -0.02403168  0.33611977  1
  H+  H257  1  0.38218477  0.77121022  0.65908808  1
  H+  H258  1  0.77721021  0.14343678  0.48458860  1
  H+  H259  1  0.77762486  0.63276507  0.48821625  1
  H+  H260  1  0.16095366  0.32471535  0.59771041  1
  H+  H261  1  0.14212982  0.52106306  0.32425933  1
  H+  H262  1  0.27031568  0.39211520  1.00118811  1
  H+  H263  1  0.50434725  0.42311787  0.85407503  1
  H+  H264  1  0.48582390  0.87204423  -0.01106397  1
  H+  H265  1  0.11309290  0.14322820  0.82745944  1
  H+  H266  1  0.74869833  0.62375221  1.00933733  1
  H+  H267  1  0.36219567  0.10233586  0.99811862  1
  H+  H268  1  0.61768224  0.98505330  -0.01801770  1
  H+  H269  1  0.97236336  0.11338541  0.66291063  1
  H+  H270  1  0.64642791  0.87579428  0.83514367  1
  H+  H271  1  0.62356832  0.83249252  0.32588504  1
  H+  H272  1  0.73535743  0.86172962  0.51325380  1
  H+  H273  1  0.70379906  0.97128463  0.36582686  1
  H+  H274  1  0.86694450  0.63439875  0.49055661  1
  H+  H275  1  0.84865427  0.37821862  0.48722665  1
  H+  H276  1  0.63974196  0.85937353  0.66892697  1
  H+  H277  1  0.48298682  0.60375616  0.49355926  1
  H+  H278  1  0.14130458  0.60568228  0.84013723  1
  H+  H279  1  0.22903567  0.35516619  0.50444416  1
  H+  H280  1  0.50764118  0.40986450  0.52392564  1
  H+  H281  1  0.38959051  0.59612264  0.64786211  1
  H+  H282  1  0.14199729  0.77852447  0.48984363  1
  H+  H283  1  0.39965538  0.77841330  0.99415820  1
  H+  H284  1  0.39429632  0.87350340  0.16577662  1
  H+  H285  1  0.61512778  0.97711723  0.84662100  1
  H+  H286  1  0.86257537  0.38766530  0.66800757  1
  H+  H287  1  0.64127660  0.77128790  0.65878554  1
  H+  H288  1  0.23020267  0.34383413  0.31108919  1
  H+  H289  1  0.56694605  0.14125348  0.75854670  1
  H+  H290  1  0.87080652  0.68636679  0.05794408  1
  H+  H291  1  0.67052073  0.10385243  0.22761077  1
  H+  H292  1  0.39695270  0.52528269  0.98925539  1
  H+  H293  1  0.57731296  0.56342316  0.92695860  1
  H+  H294  1  0.58407996  0.20073131  0.40287403  1
  H+  H295  1  0.82471208  0.90591347  0.08421657  1
  H+  H296  1  0.81179978  0.38694020  0.33009099  1
  H+  H297  1  0.87142576  0.23152629  0.33016784  1
  H+  H298  1  0.62615143  0.43286861  0.74465862  1
  H+  H299  1  0.15857838  0.33187541  0.22367919  1
  H+  H300  1  0.41320697  0.83437819  0.22385293  1
  H+  H301  1  0.15838721  0.08745166  0.94002027  1
  H+  H302  1  0.91132676  0.57632730  0.56038050  1
  H+  H303  1  0.44013256  0.58754892  0.90312789  1
  H+  H304  1  0.13400194  0.02545384  0.16181409  1
  H+  H305  1  0.54412681  0.65800709  0.81781506  1
  H+  H306  1  0.39313840  0.31748713  0.94146521  1
  H+  H307  1  0.34955742  0.17008829  0.72584834  1
  H+  H308  1  0.58059357  0.91385715  0.74117814  1
  H+  H309  1  0.08185653  0.66330311  0.38906727  1
  H+  H310  1  0.59602214  0.93957289  0.04889770  1
  H+  H311  1  0.84487469  0.67651247  0.39998916  1
  H+  H312  1  0.34752640  0.90753295  0.72275886  1
  H+  H313  1  0.83267888  0.41427482  0.76217811  1
  H+  H314  1  0.92800711  0.32841757  0.24467302  1
  H+  H315  1  0.15057328  0.86074501  0.83073469  1
  H+  H316  1  0.59376529  0.66816109  0.59251164  1
  H+  H317  1  0.92169993  0.83422542  0.56599500  1
  H+  H318  1  0.43612105  0.10196489  0.56914076  1
  H+  H319  1  0.31284922  0.40114402  0.75908031  1
  H+  H320  1  0.67631125  0.83154403  0.57322807  1
  H+  H321  1  0.84432646  0.92596534  0.41329494  1
  H+  H322  1  0.07630406  0.41353559  0.08399953  1
  H+  H323  1  0.85052973  0.67546206  0.73016865  1
  H+  H324  1  0.53001785  0.88385360  0.83907070  1
  H+  H325  1  0.14857500  0.57256277  0.22318408  1
  H+  H326  1  0.35931136  0.67444403  0.09816532  1
  H+  H327  1  0.36632958  0.44865535  0.32065889  1
  H+  H328  1  0.60178724  0.12833778  0.85199048  1
  H+  H329  1  0.60897970  0.96598790  0.50545624  1
  H+  H330  1  0.73678673  0.60966698  0.65993440  1
  H+  H331  1  0.16011121  0.32900916  0.93502060  1
  H+  H332  1  0.61011002  0.55327349  0.93993973  1
  H+  H333  1  0.60352246  0.73275942  0.15679370  1
  H+  H334  1  0.33140155  0.65635902  0.77291561  1
  H+  H335  1  0.09056334  0.41011074  0.39421491  1
  H+  H336  1  0.16544982  0.57404639  0.59554344  1
  H+  H337  1  0.07694095  0.41047438  0.73102385  1
  H+  H338  1  0.83811826  0.17416293  0.42663176  1
  H+  H339  1  0.17078789  0.08419954  0.60332002  1
  H+  H340  1  0.42044232  0.09488601  0.22593682  1
  H+  H341  1  0.07718472  0.16840722  0.09993618  1
  H+  H342  1  0.58854062  0.17614912  0.09299424  1
  H+  H343  1  0.08498383  0.91468787  0.72967804  1
  H+  H344  1  0.90948995  0.33371913  0.90203096  1
  H+  H345  1  0.26142341  0.36936639  0.66710397  1
  H+  H346  1  0.80990065  0.40758883  0.43127417  1
  H+  H347  1  0.60493567  0.66341387  0.42949991  1
  H+  H348  1  0.91466686  0.33713663  0.56255467  1
  H+  H349  1  0.08595585  0.66097524  0.06025146  1
  H+  H350  1  0.57919420  0.66368193  0.07413818  1
  H+  H351  1  0.28964326  0.76294071  0.27603805  1
  H+  H352  1  0.32712649  0.42315947  0.09744821  1
  H+  H353  1  0.64284395  0.35229036  0.26606486  1
  H+  H354  1  0.27606244  0.87934237  0.00457134  1
  H+  H355  1  0.66744140  0.34730556  0.93387150  1
  H+  H356  1  0.57291003  0.42203912  0.11245586  1
  H+  H357  1  0.31479086  0.15699563  0.07032349  1
  H+  H358  1  0.33847813  0.93801846  0.42895378  1
  H+  H359  1  0.11458496  0.38053715  0.49084346  1
  H+  H360  1  0.56842326  0.45213614  0.39725456  1
  H+  H361  1  0.87038716  0.89004278  0.50183374  1
  H+  H362  1  0.33229335  0.15972112  0.44022590  1
  H+  H363  1  0.53812596  0.03540378  0.54507085  1
  H+  H364  1  0.64181912  0.91154642  0.41771074  1
  H+  H365  1  0.84080044  0.84820953  0.14687960  1
  H+  H366  1  0.75674702  0.12997664  -0.01797096  1
  H+  H367  1  0.84554598  0.92040145  0.77061011  1
  H+  H368  1  0.91616769  0.08938013  0.56963200  1
  H+  H369  1  0.64311390  0.07826776  0.61546879  1
  H+  H370  1  0.47782685  0.12164232  0.16452397  1
  H+  H371  1  0.62128378  0.62910237  0.64534711  1
  H+  H372  1  0.15670251  0.07876156  0.26284434  1
  H+  H373  1  0.99178713  0.60886027  0.98769418  1
  H+  H374  1  0.35091386  0.38810452  0.43425538  1
  H+  H375  1  0.91329616  0.09390829  0.22826464  1
  H+  H376  1  0.07940393  0.16174151  0.73059682  1
  H+  H377  1  0.18081259  0.82607615  0.92905931  1
  H+  H378  1  0.02964645  0.88866442  0.49135768  1
  H+  H379  1  0.81626586  0.16233963  0.08753688  1
  H+  H380  1  0.08157303  0.91910970  0.39772465  1
  H+  H381  1  0.65282996  0.83501795  0.21807402  1
  H+  H382  1  0.91268566  0.08495937  0.93356836  1
  H+  H383  1  0.61585510  0.46588623  0.66095259  1
  O2-  O384  1  0.08093889  0.16605881  0.14533623  1
  O2-  O385  1  0.08705407  0.16562937  0.47839809  1
  O2-  O386  1  0.07639238  0.16319853  0.80795642  1
  O2-  O387  1  0.06881014  0.41061683  0.12991621  1
  O2-  O388  1  0.08675452  0.41263763  0.47414014  1
  O2-  O389  1  0.07124511  0.40870924  0.80951045  1
  O2-  O390  1  0.06605701  0.66220421  0.13654862  1
  O2-  O391  1  0.08051544  0.65805135  0.46775680  1
  O2-  O392  1  0.09314751  0.66014791  0.80691631  1
  O2-  O393  1  0.13332365  0.93439971  0.10721690  1
  O2-  O394  1  0.08856012  0.92089059  0.47394974  1
  O2-  O395  1  0.08489822  0.90891252  0.81052365  1
  O2-  O396  1  0.32733850  0.16590293  0.14345201  1
  O2-  O397  1  0.33759997  0.16016779  0.48503763  1
  O2-  O398  1  0.41102516  0.21205946  0.79639252  1
  O2-  O399  1  0.32665484  0.42171774  0.14283517  1
  O2-  O400  1  0.34740930  0.40263927  0.47842156  1
  O2-  O401  1  0.30699635  0.40062416  0.80504487  1
  O2-  O402  1  0.36125077  0.67653178  0.14344698  1
  O2-  O403  1  0.34453483  0.66415390  0.47637241  1
  O2-  O404  1  0.33714863  0.65302115  0.81767418  1
  O2-  O405  1  0.33379365  0.91998956  0.14462426  1
  O2-  O406  1  0.33962911  0.93283826  0.47378010  1
  O2-  O407  1  0.35598024  0.90622188  0.80285199  1
  O2-  O408  1  0.58126340  0.17687151  0.13852633  1
  O2-  O409  1  0.60174503  0.20198996  0.48553693  1
  O2-  O410  1  0.57000131  0.15323223  0.82973927  1
  O2-  O411  1  0.57268303  0.42008277  0.15764459  1
  O2-  O412  1  0.60815681  0.47816426  0.49449463  1
  O2-  O413  1  0.66548833  0.45891555  0.78128813  1
  O2-  O414  1  0.57672771  0.66991876  0.14851684  1
  O2-  O415  1  0.59271604  0.66139791  0.47453225  1
  O2-  O416  1  0.60137863  0.69187305  0.79835016  1
  O2-  O417  1  0.59224298  0.93532201  0.13274739  1
  O2-  O418  1  0.59230659  0.90852219  0.48864450  1
  O2-  O419  1  0.59086953  0.92099260  0.82421273  1
  O2-  O420  1  0.82142715  0.16598497  0.13280056  1
  O2-  O421  1  0.83759309  0.17197572  0.47265184  1
  O2-  O422  1  0.81923765  0.16282932  0.82244772  1
  O2-  O423  1  0.82563662  0.41833758  0.14503112  1
  O2-  O424  1  0.80919972  0.40039914  0.47623410  1
  O2-  O425  1  0.83488023  0.41805051  0.80789141  1
  O2-  O426  1  0.79606186  0.63985789  0.13858039  1
  O2-  O427  1  0.83853332  0.66748583  0.47582316  1
  O2-  O428  1  0.86560029  0.68836297  0.81090280  1
  O2-  O429  1  0.82195733  0.89466330  0.13351908  1
  O2-  O430  1  0.83734458  0.91918099  0.48855728  1
  O2-  O431  1  0.83965914  0.92006101  0.81630211  1
  O2-  O432  1  0.15954311  0.08161130  0.18242479  1
  O2-  O433  1  0.16899943  0.07996030  0.52651073  1
  O2-  O434  1  0.19684879  0.13651678  0.86813285  1
  O2-  O435  1  0.15735946  0.33409170  0.17836431  1
  O2-  O436  1  0.16867031  0.32853827  0.51824823  1
  O2-  O437  1  0.14311709  0.31994436  0.85233937  1
  O2-  O438  1  0.13575863  0.57410951  0.17980140  1
  O2-  O439  1  0.16963046  0.57836632  0.51702042  1
  O2-  O440  1  0.16565077  0.57041746  0.85686972  1
  O2-  O441  1  0.16446246  0.83477037  0.17782181  1
  O2-  O442  1  0.16728969  0.83831413  0.50426280  1
  O2-  O443  1  0.18045623  0.82952848  0.84391412  1
  O2-  O444  1  0.41710074  0.08925490  0.18060625  1
  O2-  O445  1  0.44182964  0.10907478  0.52441270  1
  O2-  O446  1  0.40448910  0.09000153  0.86706094  1
  O2-  O447  1  0.41016383  0.33645287  0.18747947  1
  O2-  O448  1  0.44607051  0.36509332  0.53148938  1
  O2-  O449  1  0.34140561  0.28780020  0.86665638  1
  O2-  O450  1  0.41599542  0.58174726  0.19230757  1
  O2-  O451  1  0.42110252  0.57103853  0.50631828  1
  O2-  O452  1  0.44027666  0.58458811  0.85586809  1
  O2-  O453  1  0.42954792  0.84790635  0.18046325  1
  O2-  O454  1  0.43060373  0.81150964  0.52190029  1
  O2-  O455  1  0.42414344  0.82335747  0.85726088  1
  O2-  O456  1  0.66590963  0.09626414  0.18297789  1
  O2-  O457  1  0.60056402  0.06324380  0.53999047  1
  O2-  O458  1  0.65763496  0.08090678  0.88094221  1
  O2-  O459  1  0.65949427  0.34092354  0.18948110  1
  O2-  O460  1  0.64190180  0.28884292  0.51320701  1
  O2-  O461  1  0.66908613  0.33371514  0.85160832  1
  O2-  O462  1  0.63487952  0.57625772  0.21685726  1
  O2-  O463  1  0.66381906  0.56733081  0.51796946  1
  O2-  O464  1  0.69171487  0.60974227  0.82872249  1
  O2-  O465  1  0.66196851  0.84278943  0.17370289  1
  O2-  O466  1  0.67355860  0.82916708  0.52761059  1
  O2-  O467  1  0.67748559  0.84146180  0.84060991  1
  O2-  O468  1  0.92073468  0.09724664  0.18370735  1
  O2-  O469  1  0.91915997  0.08674916  0.52412578  1
  O2-  O470  1  0.91678468  0.09000378  0.85476417  1
  O2-  O471  1  0.91149977  0.33186977  0.17343751  1
  O2-  O472  1  0.91681690  0.33989143  0.51692815  1
  O2-  O473  1  0.91075673  0.33263437  0.85652927  1
  O2-  O474  1  0.89814203  0.58502298  0.18151853  1
  O2-  O475  1  0.91070740  0.57593302  0.51465515  1
  O2-  O476  1  0.92712162  0.58608863  0.84982396  1
  O2-  O477  1  0.87052705  0.79473044  0.16686136  1
  O2-  O478  1  0.92063116  0.83607268  0.52032589  1
  O2-  O479  1  0.93109686  0.84550182  0.86163857  1
  O2-  O480  1  0.15447413  0.07815163  0.30828748  1
  O2-  O481  1  0.17261447  0.08682154  0.64925648  1
  O2-  O482  1  0.14713876  0.06864373  0.98342459  1
  O2-  O483  1  0.16764655  0.32135149  0.30343696  1
  O2-  O484  1  0.16139240  0.32570314  0.64334759  1
  O2-  O485  1  0.16615148  0.33307805  0.97994717  1
  O2-  O486  1  0.17278302  0.58214838  0.31015312  1
  O2-  O487  1  0.16316962  0.57499066  0.64118614  1
  O2-  O488  1  0.18646310  0.58377173  0.98568935  1
  O2-  O489  1  0.15865908  0.83732124  0.30320450  1
  O2-  O490  1  0.18144938  0.83421671  0.66041553  1
  O2-  O491  1  0.18065447  0.82649529  0.97402305  1
  O2-  O492  1  0.41170311  0.10098419  0.30602631  1
  O2-  O493  1  0.42782586  0.08098090  0.65304251  1
  O2-  O494  1  0.39492186  0.07729796  0.97872441  1
  O2-  O495  1  0.36897807  0.35404589  0.36838051  1
  O2-  O496  1  0.41577146  0.32680409  0.64450901  1
  O2-  O497  1  0.40131106  0.32218038  0.98624201  1
  O2-  O498  1  0.40445044  0.55975696  0.31069451  1
  O2-  O499  1  0.41401150  0.56160128  0.63300010  1
  O2-  O500  1  0.43400988  0.58574582  0.97361667  1
  O2-  O501  1  0.34756517  0.79456048  0.29320080  1
  O2-  O502  1  0.42168735  0.82776732  0.63930790  1
  O2-  O503  1  0.42323548  0.83762100  0.97637489  1
  O2-  O504  1  0.67162540  0.12147945  0.31369413  1
  O2-  O505  1  0.65376083  0.07867839  0.66007985  1
  O2-  O506  1  0.66076548  0.08176545  0.94942485  1
  O2-  O507  1  0.63835422  0.35895875  0.31120483  1
  O2-  O508  1  0.66952424  0.31675254  0.63947122  1
  O2-  O509  1  0.66621541  0.34822591  0.97896742  1
  O2-  O510  1  0.56997487  0.58104514  0.32807723  1
  O2-  O511  1  0.67620778  0.57623855  0.64338185  1
  O2-  O512  1  0.70118072  0.59901432  1.03866885  1
  O2-  O513  1  0.60596232  0.78528223  0.29544844  1
  O2-  O514  1  0.67444526  0.83453966  0.65252752  1
  O2-  O515  1  0.66853686  0.82980513  0.98153247  1
  O2-  O516  1  0.91204982  0.08743305  0.31501772  1
  O2-  O517  1  0.91091577  0.08267225  0.64886987  1
  O2-  O518  1  0.90702620  0.08460099  0.97890630  1
  O2-  O519  1  0.93598834  0.32860538  0.29104474  1
  O2-  O520  1  0.91334881  0.33259028  0.64256477  1
  O2-  O521  1  0.90145128  0.32375199  0.98205151  1
  O2-  O522  1  0.91254234  0.59583519  0.30372847  1
  O2-  O523  1  0.91201656  0.58094396  0.63906770  1
  O2-  O524  1  0.93078057  0.58541177  0.97286329  1
  O2-  O525  1  0.90936959  0.83381420  0.32431175  1
  O2-  O526  1  0.92351627  0.83682719  0.64384061  1
  O2-  O527  1  0.97545155  0.86893370  0.99063878  1
  O2-  O528  1  0.07302514  0.17267588  0.02246627  1
  O2-  O529  1  0.07722090  0.16349524  0.35385187  1
  O2-  O530  1  0.07876626  0.16194819  0.68489010  1
  O2-  O531  1  0.09633865  0.41938320  0.01100690  1
  O2-  O532  1  0.09885286  0.41397515  0.34896080  1
  O2-  O533  1  0.07897977  0.41158972  0.68532350  1
  O2-  O534  1  0.09219076  0.65946313  0.01486004  1
  O2-  O535  1  0.08517818  0.66631259  0.34341172  1
  O2-  O536  1  0.07578055  0.65657063  0.68224285  1
  O2-  O537  1  0.06843698  0.90668109  -0.00120184  1
  O2-  O538  1  0.07417407  0.91524836  0.35192561  1
  O2-  O539  1  0.08992513  0.91962493  0.68461253  1
  O2-  O540  1  0.30730560  0.15362419  0.02431079  1
  O2-  O541  1  0.31655379  0.17071661  0.35582583  1
  O2-  O542  1  0.33938818  0.16163522  0.68135554  1
  O2-  O543  1  0.33168351  0.42436681  0.01626950  1
  O2-  O544  1  0.34068785  0.38446986  0.31534377  1
  O2-  O545  1  0.32225803  0.39769217  0.68427498  1
  O2-  O546  1  0.35390502  0.67414608  0.01824245  1
  O2-  O547  1  0.33307415  0.65545561  0.35590030  1
  O2-  O548  1  0.30096762  0.68600100  0.70147401  1
  O2-  O549  1  0.33615074  0.91611040  0.02207848  1
  O2-  O550  1  0.32699097  0.93109248  0.34441320  1
  O2-  O551  1  0.34441809  0.91181343  0.67769996  1
  O2-  O552  1  0.60625567  0.17816879  0.01736081  1
  O2-  O553  1  0.57746717  0.19724323  0.35787670  1
  O2-  O554  1  0.56827031  0.14096501  0.71162499  1
  O2-  O555  1  0.57493454  0.41998856  0.02831360  1
  O2-  O556  1  0.53067586  0.40159007  0.37296857  1
  O2-  O557  1  0.58573215  0.40581140  0.67717811  1
  O2-  O558  1  0.58773431  0.66169302  0.02878370  1
  O2-  O559  1  0.63417957  0.66431438  0.35504308  1
  O2-  O560  1  0.58643571  0.65805794  0.63644078  1
  O2-  O561  1  0.58938556  0.92775963  0.00442118  1
  O2-  O562  1  0.67287685  0.91183132  0.37994347  1
  O2-  O563  1  0.58232312  0.91210510  0.69581879  1
  O2-  O564  1  0.81334695  0.15957710  0.00540690  1
  O2-  O565  1  0.83566488  0.17427032  0.35010760  1
  O2-  O566  1  0.83067181  0.16872446  0.69592690  1
  O2-  O567  1  0.83243772  0.42374269  0.02072896  1
  O2-  O568  1  0.79847509  0.42644770  0.35146889  1
  O2-  O569  1  0.83036502  0.41610335  0.68343198  1
  O2-  O570  1  0.88758927  0.70078597  0.01509884  1
  O2-  O571  1  0.84586301  0.68453045  0.35454094  1
  O2-  O572  1  0.84001297  0.66930517  0.68529749  1
  O2-  O573  1  0.82669934  0.91798560  0.02291509  1
  O2-  O574  1  0.83756644  0.92302098  0.36747287  1
  O2-  O575  1  0.84281921  0.91982766  0.69385920  1
