# generated using pymatgen
data_H2O
_symmetry_space_group_name_H-M   'P 1'
_cell_length_a   17.98145188
_cell_length_b   17.98492065
_cell_length_c   22.00817289
_cell_angle_alpha   89.98421617
_cell_angle_beta   90.03687337
_cell_angle_gamma   119.99748373
_symmetry_Int_Tables_number   1
_chemical_formula_structural   H2O
_chemical_formula_sum   'H384 O192'
_cell_volume   6163.94596412
_cell_formula_units_Z   192
loop_
 _symmetry_equiv_pos_site_id
 _symmetry_equiv_pos_as_xyz
  1  'x, y, z'
loop_
 _atom_type_symbol
 _atom_type_oxidation_number
  H+  1.0
  O2-  -2.0
loop_
 _atom_site_type_symbol
 _atom_site_label
 _atom_site_symmetry_multiplicity
 _atom_site_fract_x
 _atom_site_fract_y
 _atom_site_fract_z
 _atom_site_occupancy
  H+  H0  1  1.02823920  0.13162689  0.14368348  1
  H+  H1  1  0.08633747  0.67824676  0.76511707  1
  H+  H2  1  0.12936420  -0.00943101  0.33891423  1
  H+  H3  1  0.01850454  0.37165556  -0.00962831  1
  H+  H4  1  0.37943872  0.50294593  0.14810729  1
  H+  H5  1  0.62644089  0.35717356  0.83090252  1
  H+  H6  1  0.22888110  0.12066621  0.17660527  1
  H+  H7  1  0.87561311  0.03220020  0.51377633  1
  H+  H8  1  0.46239576  0.13266541  0.94208051  1
  H+  H9  1  0.11998067  0.13811096  0.15227967  1
  H+  H10  1  0.38592970  0.59758973  0.32289628  1
  H+  H11  1  0.00607162  0.37902586  0.67178243  1
  H+  H12  1  0.52832510  0.37267653  0.34043103  1
  H+  H13  1  0.86524350  0.72923475  0.16613939  1
  H+  H14  1  0.61502354  0.73056471  0.49972282  1
  H+  H15  1  0.63770071  0.15591832  0.16135498  1
  H+  H16  1  0.38638498  0.61013309  0.99198153  1
  H+  H17  1  0.96430418  0.36408458  0.56149724  1
  H+  H18  1  0.64256064  0.02828361  0.17296641  1
  H+  H19  1  0.63599791  0.36463305  0.15910310  1
  H+  H20  1  0.13468177  0.61246376  0.30450320  1
  H+  H21  1  0.66148648  0.07969458  0.60158038  1
  H+  H22  1  0.77670713  0.63936890  0.16071603  1
  H+  H23  1  0.91190693  0.33720576  0.22554221  1
  H+  H24  1  0.87953505  0.76338528  0.50119797  1
  H+  H25  1  0.85162080  0.15456212  0.35079163  1
  H+  H26  1  1.05820218  0.64411225  0.47524272  1
  H+  H27  1  1.02985330  0.88806589  0.67163554  1
  H+  H28  1  0.96708761  0.61450425  0.31747153  1
  H+  H29  1  0.51730898  0.88441022  0.01597259  1
  H+  H30  1  0.35594350  0.37207573  0.14968337  1
  H+  H31  1  0.35386960  0.47096172  -0.00343632  1
  H+  H32  1  0.53017974  0.89337936  0.49953098  1
  H+  H33  1  0.62869796  0.10303966  0.66556856  1
  H+  H34  1  0.24444707  0.89003989  0.17656012  1
  H+  H35  1  0.87921122  0.61642245  0.33215663  1
  H+  H36  1  0.27630808  0.63234665  0.67504282  1
  H+  H37  1  0.34620058  0.66285889  0.25465446  1
  H+  H38  1  0.21460953  0.76455788  0.08899455  1
  H+  H39  1  0.84389267  0.67463900  0.06982205  1
  H+  H40  1  0.94959127  0.32801690  0.82631263  1
  H+  H41  1  0.89217067  0.53865443  0.66858935  1
  H+  H42  1  0.00930521  0.13632215  0.00083879  1
  H+  H43  1  0.27054447  0.14075201  0.83782064  1
  H+  H44  1  0.47938723  0.61071786  0.65982068  1
  H+  H45  1  0.86470710  0.97921057  0.63577351  1
  H+  H46  1  0.36283365  0.72249583  1.00488714  1
  H+  H47  1  0.24875300  0.14004099  0.48282558  1
  H+  H48  1  0.52167208  0.88907381  0.16165967  1
  H+  H49  1  0.02027625  0.62969154  0.00010843  1
  H+  H50  1  0.15425047  0.75901763  0.14214888  1
  H+  H51  1  0.50695297  0.39834623  0.83202057  1
  H+  H52  1  0.07099860  0.31119610  0.81076887  1
  H+  H53  1  0.11010734  0.89007822  0.49497720  1
  H+  H54  1  0.89676680  0.62543050  0.99641393  1
  H+  H55  1  0.13242396  0.52538736  0.66081466  1
  H+  H56  1  0.11135246  0.25978592  0.32010993  1
  H+  H57  1  0.22281996  0.34616438  0.97649374  1
  H+  H58  1  0.17302874  0.67033436  0.84788928  1
  H+  H59  1  0.60649613  0.38089503  0.67986535  1
  H+  H60  1  0.39650569  0.01743974  0.66652989  1
  H+  H61  1  0.87728087  0.85081282  0.51150237  1
  H+  H62  1  0.78047222  0.65092631  0.33091280  1
  H+  H63  1  0.86725449  0.13927238  0.14809252  1
  H+  H64  1  0.34547454  0.45005719  0.34960551  1
  H+  H65  1  0.73341381  0.35770964  0.35370599  1
  H+  H66  1  0.98447665  0.13434483  0.84577582  1
  H+  H67  1  0.85450845  0.38523144  0.83226921  1
  H+  H68  1  0.15731034  0.31584892  0.26002100  1
  H+  H69  1  0.88624325  0.12172033  0.84488427  1
  H+  H70  1  0.11309674  0.22428980  0.99351306  1
  H+  H71  1  0.13450603  0.26820041  0.16279765  1
  H+  H72  1  0.89322884  0.86605502  0.64378596  1
  H+  H73  1  0.87129454  0.35138277  0.68449733  1
  H+  H74  1  0.34438142  0.15844856  0.38307525  1
  H+  H75  1  0.13136949  0.26867149  0.51015405  1
  H+  H76  1  0.37750308  0.86445168  0.32642813  1
  H+  H77  1  0.38949758  0.78412954  0.84979663  1
  H+  H78  1  0.72524812  0.86920126  0.85146517  1
  H+  H79  1  0.63248788  0.77757510  -0.00494852  1
  H+  H80  1  0.61524596  0.72353097  0.66654750  1
  H+  H81  1  0.36129816  0.47572485  0.67578476  1
  H+  H82  1  0.84997398  0.14055179  -0.00064437  1
  H+  H83  1  0.36317680  0.87786358  0.67990306  1
  H+  H84  1  0.54719983  0.15279788  0.15717657  1
  H+  H85  1  0.89721529  0.28760366  0.52101558  1
  H+  H86  1  0.78540234  0.63148657  0.83302360  1
  H+  H87  1  0.61630826  0.37231422  0.34694517  1
  H+  H88  1  0.38901255  0.36642145  0.84137912  1
  H+  H89  1  0.39568579  0.37544796  -0.01369397  1
  H+  H90  1  0.95908031  0.12018374  0.67011343  1
  H+  H91  1  0.00222769  0.31443038  0.46030687  1
  H+  H92  1  0.74064662  0.06970878  0.32267680  1
  H+  H93  1  0.15321267  0.80646916  0.38847008  1
  H+  H94  1  0.29480310  0.07433403  0.13776175  1
  H+  H95  1  0.61396203  0.63366012  0.66868679  1
  H+  H96  1  0.16615093  0.54242782  0.51030593  1
  H+  H97  1  0.55331712  0.49220820  0.80086640  1
  H+  H98  1  0.63795773  0.52051681  0.16999424  1
  H+  H99  1  0.44433251  0.17335606  0.54401852  1
  H+  H100  1  0.33740338  0.41613467  0.77400571  1
  H+  H101  1  0.89053633  0.77935610  0.84377060  1
  H+  H102  1  0.26145408  0.62953063  0.51126470  1
  H+  H103  1  0.65008301  0.50369227  0.85320895  1
  H+  H104  1  0.10880642  0.45465853  0.85612250  1
  H+  H105  1  0.87104500  0.60678298  0.50680829  1
  H+  H106  1  0.37751353  0.63835550  0.82703181  1
  H+  H107  1  0.65559940  0.83416298  0.90236395  1
  H+  H108  1  0.87099841  0.48453696  0.00056599  1
  H+  H109  1  0.61848421  0.64485802  -0.00173499  1
  H+  H110  1  0.86447446  0.89157191  0.99141713  1
  H+  H111  1  0.62424610  0.12540868  0.34628870  1
  H+  H112  1  0.11057291  0.47097377  0.14811359  1
  H+  H113  1  0.61192687  0.72112212  0.15498159  1
  H+  H114  1  0.06416191  0.67233966  0.25128524  1
  H+  H115  1  0.63517870  0.51898453  0.66466576  1
  H+  H116  1  0.40549635  0.11611065  0.31756165  1
  H+  H117  1  0.73918813  0.62808929  0.00031430  1
  H+  H118  1  0.87971751  0.49708358  0.34908854  1
  H+  H119  1  0.14163492  0.27434941  0.88255142  1
  H+  H120  1  0.40958075  0.83646639  0.22981855  1
  H+  H121  1  0.14236080  0.12488702  0.84149267  1
  H+  H122  1  0.63758969  0.60919908  0.16483274  1
  H+  H123  1  0.61553873  0.97220938  0.66995661  1
  H+  H124  1  0.37677573  0.77268757  0.31793758  1
  H+  H125  1  0.13013659  0.50249078  0.86050130  1
  H+  H126  1  0.72842955  0.86262934  0.63849301  1
  H+  H127  1  0.53956524  0.13122846  0.34097636  1
  H+  H128  1  0.27666338  0.89482019  0.33995346  1
  H+  H129  1  0.83793310  0.21160745  0.83098181  1
  H+  H130  1  0.36293686  0.23067357  0.83685433  1
  H+  H131  1  0.88882529  0.03449605  0.98780358  1
  H+  H132  1  0.62351583  0.49362611  0.01267198  1
  H+  H133  1  0.98148694  0.87281173  1.00021714  1
  H+  H134  1  0.63218227  0.86704615  0.99980487  1
  H+  H135  1  0.13241050  0.34319296  0.97397262  1
  H+  H136  1  0.65173369  0.48646806  0.51189777  1
  H+  H137  1  0.13342807  0.37041458  0.65851058  1
  H+  H138  1  0.57473354  0.90404946  0.25101366  1
  H+  H139  1  0.11319543  0.61387049  1.00333399  1
  H+  H140  1  0.73150562  0.37957843  0.98666961  1
  H+  H141  1  0.60839973  0.21692815  0.67991516  1
  H+  H142  1  0.72731991  0.85676954  0.50400335  1
  H+  H143  1  0.58453820  0.41865194  0.09715470  1
  H+  H144  1  0.51798154  0.38145140  0.49200542  1
  H+  H145  1  0.72345482  0.61007946  0.66425091  1
  H+  H146  1  0.89000391  0.29512838  0.32829966  1
  H+  H147  1  0.89304948  0.49875640  0.49715461  1
  H+  H148  1  0.66443622  0.82870821  0.56173706  1
  H+  H149  1  0.98105502  0.88356540  0.33378929  1
  H+  H150  1  0.40230417  0.02651078  0.31884213  1
  H+  H151  1  0.78001207  0.18588152  0.36684446  1
  H+  H152  1  0.96508732  0.13251251  0.34708034  1
  H+  H153  1  0.63474954  0.85653858  0.17417690  1
  H+  H154  1  0.00928140  0.13706098  0.50245518  1
  H+  H155  1  0.14024496  0.77857541  0.65492720  1
  H+  H156  1  0.36504477  0.75719373  0.51909119  1
  H+  H157  1  0.88240830  0.27410807  0.16757028  1
  H+  H158  1  0.37161633  0.90174471  0.16224590  1
  H+  H159  1  0.39482891  0.62543564  0.50769835  1
  H+  H160  1  0.62124081  0.40347839  1.00510550  1
  H+  H161  1  0.74134997  0.35018903  0.47893008  1
  H+  H162  1  0.11735613  0.89836465  0.82624465  1
  H+  H163  1  0.88969592  0.53074397  0.84435185  1
  H+  H164  1  0.61184714  0.89240455  0.82781960  1
  H+  H165  1  0.77474447  0.62433444  0.48670701  1
  H+  H166  1  0.60912246  0.14019155  0.83170147  1
  H+  H167  1  0.87430272  0.73631034  0.01084302  1
  H+  H168  1  0.87134861  0.98806151  0.85298428  1
  H+  H169  1  0.10360257  0.72974986  0.31080282  1
  H+  H170  1  0.01739627  0.88280364  0.49474597  1
  H+  H171  1  0.12002672  0.98901183  0.01784486  1
  H+  H172  1  1.02985339  0.64612763  0.82591104  1
  H+  H173  1  0.68452117  0.55171717  0.57043865  1
  H+  H174  1  0.14423336  0.88163427  -0.00431603  1
  H+  H175  1  0.34653470  0.88680569  0.83456841  1
  H+  H176  1  0.48663623  0.13454170  0.85056367  1
  H+  H177  1  0.87229051  0.73850909  0.33876125  1
  H+  H178  1  0.61793387  0.01672889  0.84224902  1
  H+  H179  1  0.54538340  0.09140682  1.00269137  1
  H+  H180  1  0.22150982  0.60327411  1.00262568  1
  H+  H181  1  0.37511011  0.47836807  0.83100331  1
  H+  H182  1  0.04064480  0.11270955  0.34004047  1
  H+  H183  1  0.14931757  1.02569194  0.66574897  1
  H+  H184  1  0.13255639  0.50929837  -0.00275990  1
  H+  H185  1  0.58759549  0.92112617  0.76678656  1
  H+  H186  1  0.09077545  0.23911843  0.68827724  1
  H+  H187  1  0.87653047  0.27254124  0.98568590  1
  H+  H188  1  0.64344742  0.26792734  0.15875725  1
  H+  H189  1  1.02518237  0.64559705  0.66731040  1
  H+  H190  1  0.17183285  0.11995506  0.32856753  1
  H+  H191  1  0.27007512  0.39197969  0.49952626  1
  H+  H192  1  0.89530074  0.62278702  0.83947735  1
  H+  H193  1  0.38763631  0.77860446  0.17003729  1
  H+  H194  1  0.27639587  0.88267990  0.67192714  1
  H+  H195  1  0.38745445  0.37046861  0.50607594  1
  H+  H196  1  0.83428804  0.20153079  0.68991880  1
  H+  H197  1  0.08471844  0.16335496  0.05863222  1
  H+  H198  1  0.88625764  0.61298504  0.17432724  1
  H+  H199  1  0.36481485  0.62988783  0.67071051  1
  H+  H200  1  -0.01643713  0.37679403  0.31557560  1
  H+  H201  1  0.16122722  0.63209468  0.15159094  1
  H+  H202  1  0.77643395  0.88795994  0.16170440  1
  H+  H203  1  0.86330476  0.48178141  0.15628503  1
  H+  H204  1  0.36505276  0.62989119  0.15190872  1
  H+  H205  1  0.52728969  0.63636749  0.35743216  1
  H+  H206  1  0.03544931  0.41227358  0.47157881  1
  H+  H207  1  0.08030153  0.92157605  0.07230635  1
  H+  H208  1  0.22641535  0.87777312  0.83853118  1
  H+  H209  1  0.26932360  0.13838251  0.68707428  1
  H+  H210  1  0.39615501  0.12976637  0.85970923  1
  H+  H211  1  0.70742662  0.10288513  0.84937265  1
  H+  H212  1  0.46907973  0.35775164  0.67780838  1
  H+  H213  1  0.13039912  0.35523662  0.50497812  1
  H+  H214  1  0.14819407  0.65462306  0.49043713  1
  H+  H215  1  0.70791244  0.35390013  0.64933533  1
  H+  H216  1  0.12689769  1.02303177  0.51158986  1
  H+  H217  1  0.88704605  0.01565179  0.16028377  1
  H+  H218  1  0.47565450  0.60986295  0.99228500  1
  H+  H219  1  0.25858271  0.36138995  0.34035910  1
  H+  H220  1  0.90375424  0.17314272  0.49449378  1
  H+  H221  1  0.86035839  0.39056355  0.15366743  1
  H+  H222  1  0.47876669  0.11641053  0.52046576  1
  H+  H223  1  0.63951374  0.86209056  0.65418134  1
  H+  H224  1  0.58781143  0.32364560  0.52028912  1
  H+  H225  1  0.36187467  0.23886168  0.69288244  1
  H+  H226  1  0.79513862  0.53185403  0.53710612  1
  H+  H227  1  0.86510289  0.88828110  0.16541508  1
  H+  H228  1  0.32705531  0.16932256  0.75524723  1
  H+  H229  1  0.14830528  0.78404859  0.50309599  1
  H+  H230  1  0.65252054  0.26660370  0.34209822  1
  H+  H231  1  0.84326014  0.92335769  0.57541222  1
  H+  H232  1  0.86305935  0.10069128  0.66726617  1
  H+  H233  1  0.27630680  0.63339250  0.15705332  1
  H+  H234  1  0.94320014  0.47599054  0.71731143  1
  H+  H235  1  0.62961986  0.85031238  0.31603224  1
  H+  H236  1  0.13336062  0.35675798  0.16687408  1
  H+  H237  1  0.52456645  0.63001890  0.14686536  1
  H+  H238  1  0.64188523  1.03192508  0.51571683  1
  H+  H239  1  0.77759292  0.13711026  0.15546403  1
  H+  H240  1  0.51357617  0.63509481  0.49908904  1
  H+  H241  1  0.34751380  0.66744766  0.76737221  1
  H+  H242  1  0.88808916  0.36692140  0.98496484  1
  H+  H243  1  0.61524237  0.72874363  0.82636796  1
  H+  H244  1  0.37115838  0.83984169  1.01054584  1
  H+  H245  1  0.89212625  0.86929296  0.85460301  1
  H+  H246  1  0.12894515  0.86587255  0.34903205  1
  H+  H247  1  0.58122540  0.40130478  0.43441328  1
  H+  H248  1  0.13558631  0.52297824  0.31171547  1
  H+  H249  1  0.26752177  0.37478462  0.15145654  1
  H+  H250  1  0.61513965  0.72718617  0.34954864  1
  H+  H251  1  1.02758783  0.89597921  0.82577839  1
  H+  H252  1  0.38317613  0.34596391  0.32299878  1
  H+  H253  1  0.72067546  0.85927680  0.33422904  1
  H+  H254  1  0.25344839  0.65540873  0.84702155  1
  H+  H255  1  0.28131670  0.12370089  0.32508838  1
  H+  H256  1  0.88908919  0.87886401  0.33633575  1
  H+  H257  1  0.69888961  0.11313908  0.99525309  1
  H+  H258  1  0.52936704  0.88071666  0.67351319  1
  H+  H259  1  0.38562407  0.99716629  0.16078532  1
  H+  H260  1  0.27883313  0.90119792  0.48476614  1
  H+  H261  1  0.52082410  0.12465660  0.67999072  1
  H+  H262  1  0.49013109  0.38596162  -0.00914852  1
  H+  H263  1  0.64177975  1.00701173  0.31270959  1
  H+  H264  1  0.12180851  0.10889632  0.51382317  1
  H+  H265  1  0.38012116  0.35998436  0.67967473  1
  H+  H266  1  0.64970142  0.62501926  0.32434922  1
  H+  H267  1  0.83497691  -0.01692431  0.35625707  1
  H+  H268  1  0.90574263  0.41646801  0.50187090  1
  H+  H269  1  0.27422612  0.62735725  0.30385134  1
  H+  H270  1  0.48770656  0.61527064  0.83997978  1
  H+  H271  1  0.14000475  0.03504364  0.83589253  1
  H+  H272  1  0.13633462  0.78955816  0.84037231  1
  H+  H273  1  0.85976967  0.73228671  0.67617119  1
  H+  H274  1  0.39157249  0.76752189  0.66911905  1
  H+  H275  1  0.73744189  0.31009026  0.46527331  1
  H+  H276  1  0.76662381  0.38944417  0.82882304  1
  H+  H277  1  0.86102873  0.64467742  0.67787229  1
  H+  H278  1  0.52314913  0.38073060  0.15609658  1
  H+  H279  1  0.38937497  0.16143110  0.01445121  1
  H+  H280  1  0.83701037  0.92515981  0.90786766  1
  H+  H281  1  0.62980191  0.11570851  0.51977281  1
  H+  H282  1  0.11317964  -0.01170236  0.16906832  1
  H+  H283  1  0.68420513  0.58366130  0.94141326  1
  H+  H284  1  0.38978786  0.26121404  0.31607156  1
  H+  H285  1  0.24842902  0.85354734  0.01730918  1
  H+  H286  1  0.89049713  0.40654021  0.34306470  1
  H+  H287  1  0.11776661  0.90211094  0.16764749  1
  H+  H288  1  0.14299750  0.86859088  0.65813985  1
  H+  H289  1  0.89797524  0.57088684  0.23370584  1
  H+  H290  1  0.92613228  0.83574770  0.93913085  1
  H+  H291  1  0.31010436  0.79152324  0.55218795  1
  H+  H292  1  0.79467975  0.86555556  0.76200195  1
  H+  H293  1  0.30669589  0.76722759  0.88053363  1
  H+  H294  1  0.33566609  0.66447725  0.06355891  1
  H+  H295  1  0.44600529  0.09619544  0.22912464  1
  H+  H296  1  0.51125051  0.87821207  0.30610982  1
  H+  H297  1  0.17657854  0.09176472  0.24007385  1
  H+  H298  1  0.91698504  0.83994987  0.23933678  1
  H+  H299  1  0.58013269  0.42004634  0.73754175  1
  H+  H300  1  0.07725655  0.39411799  0.04929777  1
  H+  H301  1  0.34255492  0.15753594  0.09497610  1
  H+  H302  1  0.58700254  0.22758294  0.52491608  1
  H+  H303  1  0.42133399  0.58156648  0.59998385  1
  H+  H304  1  0.10221057  0.68195885  0.05106488  1
  H+  H305  1  0.73403253  0.37344452  0.15721755  1
  H+  H306  1  0.83033319  0.66760317  0.42487560  1
  H+  H307  1  0.41279076  0.12349176  0.16946978  1
  H+  H308  1  0.08694544  0.91798657  0.73239533  1
  H+  H309  1  0.90720979  0.32581077  0.89176609  1
  H+  H310  1  0.88792883  0.44752632  0.41550570  1
  H+  H311  1  0.32597362  0.91429703  0.77069696  1
  H+  H312  1  0.29007598  0.14295889  0.01774471  1
  H+  H313  1  0.42480137  0.58329745  0.89867504  1
  H+  H314  1  0.06265497  0.18376631  0.75083454  1
  H+  H315  1  0.62139956  0.30584406  0.60502592  1
  H+  H316  1  0.16575442  0.58773041  0.21457359  1
  H+  H317  1  0.58597384  0.66670497  0.43902135  1
  H+  H318  1  0.66545444  0.82191586  0.23084531  1
  H+  H319  1  0.92360808  0.59591859  0.93422155  1
  H+  H320  1  0.58542341  0.91929753  0.10562554  1
  H+  H321  1  0.67713664  0.59870785  0.26171526  1
  H+  H322  1  0.83484062  0.67276613  0.77002615  1
  H+  H323  1  0.87586346  0.21327507  0.43712935  1
  H+  H324  1  0.66576713  0.34539699  0.93088438  1
  H+  H325  1  0.90446917  0.95283387  0.47978560  1
  H+  H326  1  0.17483145  0.58873622  0.60351515  1
  H+  H327  1  0.74638895  0.11199113  0.68066735  1
  H+  H328  1  0.42627749  0.08558817  0.61091334  1
  H+  H329  1  0.83866598  0.42305817  0.05824622  1
  H+  H330  1  0.92260115  0.10208228  0.93369731  1
  H+  H331  1  0.42819678  0.34426723  0.90201371  1
  H+  H332  1  0.58195010  0.15741460  0.45496196  1
  H+  H333  1  0.58297664  0.16742018  0.76848742  1
  H+  H334  1  0.34889264  0.67758427  0.44953063  1
  H+  H335  1  0.85850137  0.08494372  0.28797623  1
  H+  H336  1  0.72816584  0.50771853  0.88963401  1
  H+  H337  1  0.68265558  0.08632039  0.23200651  1
  H+  H338  1  0.93508076  0.08730800  0.21156257  1
  H+  H339  1  0.11379301  0.38351085  0.32044782  1
  H+  H340  1  0.61417895  0.88867397  0.49298159  1
  H+  H341  1  0.11276087  0.64094341  0.66950788  1
  H+  H342  1  0.32141069  0.40500159  0.05223911  1
  H+  H343  1  0.58639044  0.66828484  0.05840810  1
  H+  H344  1  0.16328601  0.33336199  0.60444527  1
  H+  H345  1  0.06455998  0.39215727  0.72675339  1
  H+  H346  1  0.32258514  0.40912361  0.43835300  1
  H+  H347  1  0.17426687  0.85509217  0.93485886  1
  H+  H348  1  0.08779283  0.93329065  0.40148107  1
  H+  H349  1  0.18146924  0.85066230  0.23289410  1
  H+  H350  1  0.40352728  0.82720882  0.94579491  1
  H+  H351  1  0.37640714  0.27959921  0.49348437  1
  H+  H352  1  0.41201408  0.82732122  0.61121051  1
  H+  H353  1  0.63958413  0.07427914  0.93715410  1
  H+  H354  1  0.40817503  0.56133945  0.20592877  1
  H+  H355  1  0.39268532  0.53232975  0.50271881  1
  H+  H356  1  0.90750316  0.09478144  0.57290684  1
  H+  H357  1  0.58703179  0.67042818  0.76715001  1
  H+  H358  1  0.18021109  0.09003584  0.60997571  1
  H+  H359  1  0.02071090  0.38417846  0.15258098  1
  H+  H360  1  0.80711717  0.14253473  0.77700636  1
  H+  H361  1  0.01219009  0.26933354  0.75637345  1
  H+  H362  1  0.97745398  0.86811753  0.18071350  1
  H+  H363  1  0.31322765  0.89135639  0.07544014  1
  H+  H364  1  0.92296242  0.82134581  0.59845022  1
  H+  H365  1  0.77296110  0.89148032  -0.00948466  1
  H+  H366  1  0.79331791  0.86842368  0.72801029  1
  H+  H367  1  0.38480355  0.26492606  0.16830405  1
  H+  H368  1  0.87677525  0.30937257  0.62320686  1
  H+  H369  1  0.05908672  0.16247422  0.43967220  1
  H+  H370  1  0.34024508  0.92404777  0.39625216  1
  H+  H371  1  0.89895083  0.58401634  0.60472912  1
  H+  H372  1  0.82378987  0.17096778  0.05856530  1
  H+  H373  1  0.08171991  0.40756040  0.38021499  1
  H+  H374  1  0.63219949  0.27128934  0.83430101  1
  H+  H375  1  0.26995807  0.38918698  0.67849396  1
  H+  H376  1  0.85486670  0.43890696  0.75101292  1
  H+  H377  1  0.41227600  0.32499082  0.22633188  1
  H+  H378  1  0.81989935  0.92165375  0.41305362  1
  H+  H379  1  0.36167558  0.89282007  0.48706280  1
  H+  H380  1  0.60226672  0.97636700  0.01276502  1
  H+  H381  1  0.26658406  0.19896312  0.42653548  1
  H+  H382  1  0.17188157  0.84330633  0.56250349  1
  H+  H383  1  0.43771978  0.55320247  0.29869989  1
  O2-  O384  1  0.08994022  0.16558834  0.13126976  1
  O2-  O385  1  0.06872114  0.16515611  0.48407119  1
  O2-  O386  1  0.08397829  0.17848575  0.82353815  1
  O2-  O387  1  0.08069396  0.40925903  0.13699227  1
  O2-  O388  1  0.05464383  0.37383088  0.45602312  1
  O2-  O389  1  0.02848894  0.31802631  0.78482094  1
  O2-  O390  1  0.16264135  0.72140415  0.11342125  1
  O2-  O391  1  0.11947048  0.68401515  0.47064549  1
  O2-  O392  1  0.08921011  0.68142761  0.81017500  1
  O2-  O393  1  0.08201261  0.92711249  0.15495560  1
  O2-  O394  1  0.07819285  0.91941142  0.48103073  1
  O2-  O395  1  0.08608591  0.92670506  0.80765221  1
  O2-  O396  1  0.33123075  0.13641079  0.14255635  1
  O2-  O397  1  0.29549825  0.17892703  0.45382906  1
  O2-  O398  1  0.33292131  0.16958796  0.82289710  1
  O2-  O399  1  0.32662965  0.40305275  0.13352329  1
  O2-  O400  1  0.32886890  0.42548255  0.48201664  1
  O2-  O401  1  0.34473150  0.41664499  0.81869491  1
  O2-  O402  1  0.34062631  0.66885691  0.15185964  1
  O2-  O403  1  0.34727767  0.67090996  0.49347952  1
  O2-  O404  1  0.35116982  0.67256624  0.81228472  1
  O2-  O405  1  0.34359000  0.93538998  0.15060040  1
  O2-  O406  1  0.33602010  0.92279393  0.46576614  1
  O2-  O407  1  0.32012348  0.91782317  0.81531726  1
  O2-  O408  1  0.60923871  0.18646237  0.14409667  1
  O2-  O409  1  0.57748725  0.15243914  0.49916738  1
  O2-  O410  1  0.58586517  0.17616239  0.81449522  1
  O2-  O411  1  0.58442608  0.41287976  0.14322547  1
  O2-  O412  1  0.57951262  0.40258585  0.48053143  1
  O2-  O413  1  0.56623018  0.44733831  0.81236587  1
  O2-  O414  1  0.58644263  0.66258457  0.13636831  1
  O2-  O415  1  0.58058101  0.66702540  0.48559291  1
  O2-  O416  1  0.58775762  0.66810739  0.81212959  1
  O2-  O417  1  0.58445080  0.91784342  0.15187442  1
  O2-  O418  1  0.58616981  0.92135113  0.47990248  1
  O2-  O419  1  0.58296880  0.92306744  0.81160689  1
  O2-  O420  1  0.83669786  0.17086032  0.13769368  1
  O2-  O421  1  0.90965336  0.22746540  0.47627958  1
  O2-  O422  1  0.81243608  0.14903587  0.82254455  1
  O2-  O423  1  0.83217808  0.42231420  0.13752850  1
  O2-  O424  1  0.91856775  0.46689865  0.47570161  1
  O2-  O425  1  0.82998403  0.42248122  0.81992642  1
  O2-  O426  1  0.83835414  0.67046235  0.14792364  1
  O2-  O427  1  0.83255413  0.66732094  0.47056859  1
  O2-  O428  1  0.84200996  0.67313278  0.81538237  1
  O2-  O429  1  0.83736947  0.92031024  0.14901018  1
  O2-  O430  1  0.84551677  0.92960951  0.49387626  1
  O2-  O431  1  0.83907633  0.92536817  0.86221221  1
  O2-  O432  1  0.17007299  0.09540102  0.19325613  1
  O2-  O433  1  0.15817850  0.08406519  0.52560579  1
  O2-  O434  1  0.17271607  0.09368923  0.85330847  1
  O2-  O435  1  0.16405481  0.32665747  0.18182659  1
  O2-  O436  1  0.16223995  0.32999489  0.52424073  1
  O2-  O437  1  0.13145587  0.27130641  0.83807523  1
  O2-  O438  1  0.17177880  0.58718122  0.16958423  1
  O2-  O439  1  0.19421893  0.60095488  0.52577118  1
  O2-  O440  1  0.21799351  0.67010291  0.87364740  1
  O2-  O441  1  0.18177097  0.85462889  0.18879260  1
  O2-  O442  1  0.17059858  0.84436146  0.51675128  1
  O2-  O443  1  0.16481660  0.84962724  0.85523113  1
  O2-  O444  1  0.44872489  0.09833301  0.18331718  1
  O2-  O445  1  0.42454174  0.11221339  0.53869525  1
  O2-  O446  1  0.43637358  0.11356577  0.87821000  1
  O2-  O447  1  0.41181128  0.32544305  0.18036514  1
  O2-  O448  1  0.41505447  0.33555948  0.51261240  1
  O2-  O449  1  0.42402862  0.33845316  0.85518384  1
  O2-  O450  1  0.41137762  0.56586747  0.16187837  1
  O2-  O451  1  0.42788003  0.59239117  0.51847939  1
  O2-  O452  1  0.42584926  0.58332716  0.85342652  1
  O2-  O453  1  0.41678623  0.83912798  0.18457755  1
  O2-  O454  1  0.36866331  0.81180783  0.53832745  1
  O2-  O455  1  0.36865459  0.81453750  0.87601931  1
  O2-  O456  1  0.67802444  0.08898031  0.18698076  1
  O2-  O457  1  0.66751897  0.08912613  0.53477164  1
  O2-  O458  1  0.64582238  0.07634890  0.86134014  1
  O2-  O459  1  0.67189881  0.33742412  0.17155434  1
  O2-  O460  1  0.58474173  0.27939036  0.54887101  1
  O2-  O461  1  0.66190407  0.33506864  0.84737845  1
  O2-  O462  1  0.66923190  0.58205055  0.18273222  1
  O2-  O463  1  0.70309935  0.53825991  0.53137333  1
  O2-  O464  1  0.70524947  0.54370073  0.87547325  1
  O2-  O465  1  0.66359900  0.82351091  0.18568360  1
  O2-  O466  1  0.66586365  0.82567564  0.51554039  1
  O2-  O467  1  0.66182265  0.83562639  0.85720818  1
  O2-  O468  1  0.92294505  0.08195837  0.16817510  1
  O2-  O469  1  0.90917268  0.09465332  0.52702939  1
  O2-  O470  1  0.92336131  0.09994839  0.86219783  1
  O2-  O471  1  0.91242666  0.33580450  0.18045012  1
  O2-  O472  1  0.90504865  0.33815111  0.54729968  1
  O2-  O473  1  0.89701204  0.32137487  0.84666857  1
  O2-  O474  1  0.91109736  0.57773859  0.18987780  1
  O2-  O475  1  0.85909485  0.55598090  0.53252020  1
  O2-  O476  1  0.92381629  0.59184484  0.85736513  1
  O2-  O477  1  0.91608021  0.83473459  0.19423563  1
  O2-  O478  1  0.91165774  0.82222145  0.52014805  1
  O2-  O479  1  0.92477577  0.83815589  0.86100507  1
  O2-  O480  1  0.18759564  0.08113205  0.30916722  1
  O2-  O481  1  0.18220359  0.08774058  0.65475321  1
  O2-  O482  1  0.18652924  0.08824649  1.01372808  1
  O2-  O483  1  0.15420631  0.31802038  0.30549134  1
  O2-  O484  1  0.16388752  0.33842886  0.64948085  1
  O2-  O485  1  0.16124853  0.30986522  0.96289934  1
  O2-  O486  1  0.16709311  0.58271661  0.29484992  1
  O2-  O487  1  0.16709081  0.58660028  0.64865962  1
  O2-  O488  1  0.15746520  0.57212540  1.00308103  1
  O2-  O489  1  0.15450435  0.82599696  0.34673500  1
  O2-  O490  1  0.17231687  0.83885902  0.63956090  1
  O2-  O491  1  0.17680840  0.85463587  0.98005367  1
  O2-  O492  1  0.43823568  0.08666477  0.30436824  1
  O2-  O493  1  0.43116842  0.07906470  0.65599309  1
  O2-  O494  1  0.48182319  0.15125393  0.98759988  1
  O2-  O495  1  0.41613696  0.32273910  0.30239810  1
  O2-  O496  1  0.40612407  0.32346861  0.67058466  1
  O2-  O497  1  0.43363456  0.35495882  0.97014720  1
  O2-  O498  1  0.41630086  0.56587802  0.33562579  1
  O2-  O499  1  0.41821638  0.57973510  0.64510263  1
  O2-  O500  1  0.41480828  0.57761553  0.97779231  1
  O2-  O501  1  0.40680010  0.83413325  0.30724627  1
  O2-  O502  1  0.42170091  0.82922806  0.65592475  1
  O2-  O503  1  0.41298676  0.82565044  0.99106366  1
  O2-  O504  1  0.68713809  0.06912543  0.31147473  1
  O2-  O505  1  0.65854297  0.07269113  0.64919311  1
  O2-  O506  1  0.63823287  0.07608127  0.98299750  1
  O2-  O507  1  0.68133120  0.32804917  0.32933938  1
  O2-  O508  1  0.64562901  0.32258961  0.65179496  1
  O2-  O509  1  0.67122316  0.35911541  0.97461346  1
  O2-  O510  1  0.68859865  0.60773043  0.30603956  1
  O2-  O511  1  0.66524327  0.57750661  0.64547191  1
  O2-  O512  1  0.67879987  0.59779992  0.98429817  1
  O2-  O513  1  0.66374190  0.82065462  0.31400308  1
  O2-  O514  1  0.66449929  0.82801620  0.63512168  1
  O2-  O515  1  0.66303680  0.83902161  0.98175336  1
  O2-  O516  1  0.86157910  0.08777380  0.33211161  1
  O2-  O517  1  0.90366886  0.08454317  0.64768718  1
  O2-  O518  1  0.91994469  0.09819065  0.98017345  1
  O2-  O519  1  0.92059993  0.35358896  0.30785926  1
  O2-  O520  1  0.88699497  0.30980011  0.66758128  1
  O2-  O521  1  0.91323830  0.33202884  0.96891387  1
  O2-  O522  1  0.90339755  0.57801691  0.31935741  1
  O2-  O523  1  0.91520683  0.59568145  0.64870537  1
  O2-  O524  1  0.92507166  0.59338858  0.97980570  1
  O2-  O525  1  0.91995007  0.85052384  0.31978244  1
  O2-  O526  1  0.92190238  0.83054161  0.64321246  1
  O2-  O527  1  0.92084890  0.83756733  0.98442642  1
  O2-  O528  1  0.07457399  0.16403987  0.01296816  1
  O2-  O529  1  0.02929067  0.15686832  0.35556140  1
  O2-  O530  1  0.04078422  0.19490670  0.71132184  1
  O2-  O531  1  0.07960146  0.39609320  0.00431594  1
  O2-  O532  1  0.08724468  0.41786027  0.33554640  1
  O2-  O533  1  0.06709014  0.41402029  0.68437768  1
  O2-  O534  1  0.08437796  0.65497417  0.00949135  1
  O2-  O535  1  0.07451990  0.66930867  0.29460011  1
  O2-  O536  1  0.08498968  0.67415364  0.68339977  1
  O2-  O537  1  0.08157663  0.92467810  0.02723502  1
  O2-  O538  1  0.09007545  0.92911293  0.35629123  1
  O2-  O539  1  0.09018011  0.91694793  0.68656945  1
  O2-  O540  1  0.35054949  0.17798760  0.03449355  1
  O2-  O541  1  0.34670230  0.15754727  0.33830771  1
  O2-  O542  1  0.32857406  0.17358900  0.70786760  1
  O2-  O543  1  0.32136446  0.40833506  0.00722614  1
  O2-  O544  1  0.31681501  0.38812393  0.35913174  1
  O2-  O545  1  0.33003200  0.41712774  0.69390845  1
  O2-  O546  1  0.33187968  0.66024090  0.01891202  1
  O2-  O547  1  0.33834911  0.65544148  0.29889222  1
  O2-  O548  1  0.33753858  0.66224525  0.68768716  1
  O2-  O549  1  0.28814950  0.84353488  0.04578753  1
  O2-  O550  1  0.33849275  0.92186054  0.34929311  1
  O2-  O551  1  0.33372305  0.91008339  0.69184960  1
  O2-  O552  1  0.48649945  0.07872200  0.01383751  1
  O2-  O553  1  0.59734783  0.15808746  0.36044412  1
  O2-  O554  1  0.58369035  0.15781436  0.69658719  1
  O2-  O555  1  0.59087502  0.43194400  0.02489285  1
  O2-  O556  1  0.58422048  0.40093304  0.36124527  1
  O2-  O557  1  0.58032536  0.41688089  0.69256443  1
  O2-  O558  1  0.58338654  0.67027681  0.01316264  1
  O2-  O559  1  0.58874353  0.66823071  0.36881600  1
  O2-  O560  1  0.58359387  0.66411051  0.68341716  1
  O2-  O561  1  0.57839742  0.91715130  0.03051897  1
  O2-  O562  1  0.57387374  0.90310805  0.29547833  1
  O2-  O563  1  0.59160668  0.91113889  0.68469626  1
  O2-  O564  1  0.81869455  0.17000399  0.01335901  1
  O2-  O565  1  0.84176398  0.20702753  0.36795306  1
  O2-  O566  1  0.80612078  0.13980376  0.70097161  1
  O2-  O567  1  0.84054266  0.42291687  0.01286847  1
  O2-  O568  1  0.86628379  0.43811579  0.36900292  1
  O2-  O569  1  0.88189778  0.44976158  0.70865949  1
  O2-  O570  1  0.84433636  0.67433839  0.02423847  1
  O2-  O571  1  0.84079737  0.67648745  0.34981562  1
  O2-  O572  1  0.82845214  0.67241001  0.69324768  1
  O2-  O573  1  0.83644926  0.92701832  -0.01555742  1
  O2-  O574  1  0.81814168  0.92256732  0.36750034  1
  O2-  O575  1  0.83850883  0.91845594  0.62081583  1
