# generated using pymatgen
data_H2O
_symmetry_space_group_name_H-M   'P 1'
_cell_length_a   17.99906895
_cell_length_b   17.99030122
_cell_length_c   22.00090201
_cell_angle_alpha   89.98229564
_cell_angle_beta   90.00786916
_cell_angle_gamma   119.98427252
_symmetry_Int_Tables_number   1
_chemical_formula_structural   H2O
_chemical_formula_sum   'H384 O192'
_cell_volume   6170.61397996
_cell_formula_units_Z   192
loop_
 _symmetry_equiv_pos_site_id
 _symmetry_equiv_pos_as_xyz
  1  'x, y, z'
loop_
 _atom_type_symbol
 _atom_type_oxidation_number
  H+  1.0
  O2-  -2.0
loop_
 _atom_site_type_symbol
 _atom_site_label
 _atom_site_symmetry_multiplicity
 _atom_site_fract_x
 _atom_site_fract_y
 _atom_site_fract_z
 _atom_site_occupancy
  H+  H0  1  0.49553179  0.11458663  0.33503359  1
  H+  H1  1  0.47124950  0.60158347  0.49497907  1
  H+  H2  1  0.15339322  0.30633156  0.83817108  1
  H+  H3  1  0.61971513  0.97817324  0.18049195  1
  H+  H4  1  0.39835049  1.02191166  0.18304719  1
  H+  H5  1  0.48158825  0.12145605  0.99330466  1
  H+  H6  1  0.49874739  0.10184298  0.52161033  1
  H+  H7  1  0.73641520  0.60930313  0.34048722  1
  H+  H8  1  0.95107193  0.84770133  0.16514451  1
  H+  H9  1  0.11328689  0.89043303  0.67058481  1
  H+  H10  1  0.60906512  0.72452181  0.48290013  1
  H+  H11  1  0.88237246  0.52514857  0.83966483  1
  H+  H12  1  0.13346051  0.27472976  0.66914956  1
  H+  H13  1  0.38777651  0.86530625  0.65881956  1
  H+  H14  1  0.25994859  0.87196583  0.01632859  1
  H+  H15  1  0.09601951  0.47862065  0.36058929  1
  H+  H16  1  0.88491412  0.62333993  0.66284264  1
  H+  H17  1  0.11521602  0.71519647  0.83136776  1
  H+  H18  1  0.43103893  0.08339838  0.57553620  1
  H+  H19  1  0.24786516  0.87526802  0.32035899  1
  H+  H20  1  0.73591528  0.08845048  0.94938117  1
  H+  H21  1  0.59996329  0.97094683  0.01410386  1
  H+  H22  1  0.72454149  0.36651514  0.66352778  1
  H+  H23  1  0.37015246  0.13852712  0.67978754  1
  H+  H24  1  0.87514989  0.34057419  0.33092533  1
  H+  H25  1  0.48405571  0.86494540  0.32375552  1
  H+  H26  1  0.39608127  0.86902400  0.50329926  1
  H+  H27  1  0.64951764  0.61211264  0.34582726  1
  H+  H28  1  0.60829298  0.63180035  0.17479108  1
  H+  H29  1  0.52856451  0.39534684  0.82982599  1
  H+  H30  1  0.38753476  0.26506413  0.18712983  1
  H+  H31  1  0.47000997  0.35584768  0.66777416  1
  H+  H32  1  0.61676692  0.72309323  0.01692004  1
  H+  H33  1  1.03833476  0.42679093  0.84284607  1
  H+  H34  1  0.77623220  0.63991360  0.83344612  1
  H+  H35  1  0.28063024  0.21669862  0.03773735  1
  H+  H36  1  0.47812075  0.11962702  0.83163210  1
  H+  H37  1  0.13488721  0.77991917  0.66555008  1
  H+  H38  1  0.39929446  0.37244947  0.33472549  1
  H+  H39  1  0.36590279  0.48370605  0.34698201  1
  H+  H40  1  0.58140955  0.42190098  0.10539170  1
  H+  H41  1  0.62888665  0.35724524  0.32314011  1
  H+  H42  1  0.11974473  0.89761537  0.50677154  1
  H+  H43  1  0.64197467  0.61656482  0.84253202  1
  H+  H44  1  0.08343156  0.67145141  0.73388265  1
  H+  H45  1  0.37937098  0.22541503  0.50071038  1
  H+  H46  1  0.84490977  0.45095409  0.33640458  1
  H+  H47  1  0.18119098  0.28095840  0.16058210  1
  H+  H48  1  0.28922340  0.89132921  0.49196751  1
  H+  H49  1  0.76916937  0.38323594  0.01106736  1
  H+  H50  1  0.89123833  0.36373242  0.49442644  1
  H+  H51  1  0.37160979  0.11100937  0.35096720  1
  H+  H52  1  0.38018610  0.74533312  0.85088835  1
  H+  H53  1  0.88536653  0.86239617  0.50978026  1
  H+  H54  1  0.08173282  0.41594754  0.57197372  1
  H+  H55  1  0.38156689  0.98631006  0.33783642  1
  H+  H56  1  0.46628201  0.35090211  0.51624788  1
  H+  H57  1  0.10892708  0.39110406  0.01467833  1
  H+  H58  1  0.38342301  0.52988566  0.67713044  1
  H+  H59  1  0.87824628  0.27007999  0.49691304  1
  H+  H60  1  0.78384168  0.46618160  0.45799362  1
  H+  H61  1  0.11263274  0.23534657  0.00322337  1
  H+  H62  1  0.61560324  0.72407720  0.67113529  1
  H+  H63  1  0.16073203  0.12422856  0.32786311  1
  H+  H64  1  0.89388183  0.88310670  0.64914310  1
  H+  H65  1  0.76884884  0.38705658  0.83133764  1
  H+  H66  1  0.94783939  0.57540186  0.35395773  1
  H+  H67  1  0.93171509  0.08159072  0.83586423  1
  H+  H68  1  0.39139951  0.28464822  0.84355683  1
  H+  H69  1  0.83460900  0.87974824  0.87551671  1
  H+  H70  1  0.22934353  0.61497271  0.32964958  1
  H+  H71  1  0.08227266  0.42745095  0.10862456  1
  H+  H72  1  0.87589630  0.89111705  0.33514037  1
  H+  H73  1  0.91255660  0.82409399  0.56341036  1
  H+  H74  1  0.10977756  0.72060177  0.16160096  1
  H+  H75  1  0.19610679  0.88829517  0.16551840  1
  H+  H76  1  0.46994877  0.61806381  0.33516370  1
  H+  H77  1  0.60337668  0.88031760  0.81871357  1
  H+  H78  1  0.34115096  0.35354415  0.17102211  1
  H+  H79  1  0.27876297  0.13708560  0.82594492  1
  H+  H80  1  0.05457303  0.66017396  0.32219495  1
  H+  H81  1  0.06637240  0.17259699  0.84563663  1
  H+  H82  1  0.38565830  0.77519548  0.66132138  1
  H+  H83  1  0.02673205  0.64090397  1.00674724  1
  H+  H84  1  0.58336201  0.91592533  0.71919240  1
  H+  H85  1  0.32960836  0.17336281  0.00698180  1
  H+  H86  1  0.09618399  0.96238649  0.00605616  1
  H+  H87  1  0.72102480  0.11675345  0.65456701  1
  H+  H88  1  0.88864591  0.37526114  0.84291528  1
  H+  H89  1  0.01105819  0.87474512  0.00690870  1
  H+  H90  1  0.27377532  0.11280604  0.35116810  1
  H+  H91  1  0.66172440  0.57218140  0.25175310  1
  H+  H92  1  0.91286697  0.33530733  0.93784764  1
  H+  H93  1  0.61267449  0.22131157  1.01876251  1
  H+  H94  1  0.29292175  0.87042113  0.17311205  1
  H+  H95  1  0.15128261  0.39463845  0.84546815  1
  H+  H96  1  0.43422328  0.09473141  0.27463949  1
  H+  H97  1  0.61607246  0.22596649  0.17490944  1
  H+  H98  1  0.33312798  0.66905520  0.43535926  1
  H+  H99  1  0.40335555  0.31311598  1.00019198  1
  H+  H100  1  0.22508462  0.36874703  -0.00168885  1
  H+  H101  1  0.86458609  0.75658082  0.16284922  1
  H+  H102  1  0.89743099  0.52193442  -0.00423430  1
  H+  H103  1  0.13399028  0.62728777  -0.02540917  1
  H+  H104  1  0.37086917  0.23557469  0.67853683  1
  H+  H105  1  0.15374246  0.75764207  0.50778257  1
  H+  H106  1  0.88531351  0.10096300  0.18176919  1
  H+  H107  1  0.63265401  0.36165776  0.66124469  1
  H+  H108  1  0.86949194  0.98112087  0.65068370  1
  H+  H109  1  0.52343379  0.88734074  0.66112866  1
  H+  H110  1  0.96319648  0.12969229  0.51524349  1
  H+  H111  1  0.34087246  0.17142383  0.74615989  1
  H+  H112  1  0.58662868  0.65446137  0.29696631  1
  H+  H113  1  0.52430133  0.38379288  0.34646789  1
  H+  H114  1  0.13408907  0.26778229  0.50681448  1
  H+  H115  1  0.85469356  0.22853925  0.66923038  1
  H+  H116  1  0.11219552  0.96952581  0.30803380  1
  H+  H117  1  0.40320536  0.59034952  -0.06301402  1
  H+  H118  1  0.12443523  0.14924759  0.15909422  1
  H+  H119  1  0.71999926  0.85883338  0.64582584  1
  H+  H120  1  0.37397504  0.53392227  0.99724500  1
  H+  H121  1  0.33157142  0.41513749  0.40392212  1
  H+  H122  1  0.35634773  0.87015735  1.01301232  1
  H+  H123  1  0.63658623  0.85984651  0.18052591  1
  H+  H124  1  0.34394155  0.14711765  0.41545793  1
  H+  H125  1  0.22338756  0.11966111  0.66956694  1
  H+  H126  1  0.71799342  0.60097702  0.19152885  1
  H+  H127  1  0.85633803  0.98311949  0.00783804  1
  H+  H128  1  -0.02455269  0.85212632  0.30518403  1
  H+  H129  1  0.62170826  0.11526096  0.33222702  1
  H+  H130  1  0.87137637  0.12107428  0.50833644  1
  H+  H131  1  0.87137627  0.63968242  0.49482084  1
  H+  H132  1  0.61297897  0.22992440  0.66991218  1
  H+  H133  1  0.38278752  0.87675515  0.16521809  1
  H+  H134  1  0.82988065  -0.03428836  0.87159183  1
  H+  H135  1  0.45463657  0.18400761  0.96906557  1
  H+  H136  1  0.36817297  0.40803949  0.00990863  1
  H+  H137  1  0.60390042  0.13604694  0.81752013  1
  H+  H138  1  0.32261546  0.41444917  0.07016857  1
  H+  H139  1  0.25638141  0.61474409  0.82544922  1
  H+  H140  1  0.02422282  0.39679682  0.16821952  1
  H+  H141  1  0.70976317  0.34398636  0.32105256  1
  H+  H142  1  0.28469339  0.40412566  0.83343608  1
  H+  H143  1  0.64713829  0.87071074  0.32758809  1
  H+  H144  1  0.88140483  0.60460900  0.33397795  1
  H+  H145  1  0.62934408  0.48487001  1.01015958  1
  H+  H146  1  0.71548586  0.57239142  0.64815984  1
  H+  H147  1  1.11121230  0.39072469  0.65751573  1
  H+  H148  1  0.47698212  0.11891232  0.66752935  1
  H+  H149  1  0.62581390  0.31995160  0.50604007  1
  H+  H150  1  0.91361337  0.09792692  0.60909084  1
  H+  H151  1  0.76848111  0.38501471  0.16298062  1
  H+  H152  1  0.85785809  0.39037264  0.67255994  1
  H+  H153  1  0.11160033  0.48141947  0.65529398  1
  H+  H154  1  1.02130895  0.39048646  1.01405714  1
  H+  H155  1  0.26095646  0.37371048  0.32304499  1
  H+  H156  1  0.17014795  0.83147421  0.90294190  1
  H+  H157  1  0.48640397  0.85834983  0.17873281  1
  H+  H158  1  0.63167048  0.35948811  0.17074155  1
  H+  H159  1  0.21417657  0.61522818  0.97875210  1
  H+  H160  1  0.86291509  0.21412010  0.33546903  1
  H+  H161  1  0.78135845  0.57985140  0.11987566  1
  H+  H162  1  1.02256726  0.64557857  0.67567038  1
  H+  H163  1  0.13646689  1.02867627  0.52316900  1
  H+  H164  1  0.88001899  0.36268236  -0.00243863  1
  H+  H165  1  0.33794733  0.71422458  0.01842195  1
  H+  H166  1  0.86102394  0.47173849  0.16471902  1
  H+  H167  1  0.83738994  0.91916482  0.59167371  1
  H+  H168  1  0.66171204  0.33322847  0.23202819  1
  H+  H169  1  0.62659514  0.74276454  0.33181954  1
  H+  H170  1  0.50360871  0.27958548  0.46459995  1
  H+  H171  1  0.78016816  0.13627347  0.18112718  1
  H+  H172  1  0.36090354  0.71404141  0.16309571  1
  H+  H173  1  0.76190600  0.14211081  0.48309178  1
  H+  H174  1  0.88055801  0.87573092  -0.00794511  1
  H+  H175  1  0.58732179  0.66713185  0.77032222  1
  H+  H176  1  -0.02701986  0.61230880  0.83811028  1
  H+  H177  1  0.13678215  0.62142360  0.66071078  1
  H+  H178  1  0.48514792  0.11311680  0.18344094  1
  H+  H179  1  0.03312613  0.88838932  0.82829013  1
  H+  H180  1  0.75959468  0.38474574  0.49688886  1
  H+  H181  1  0.13913918  0.86243417  -0.00077360  1
  H+  H182  1  0.63214094  0.86045695  0.65234213  1
  H+  H183  1  0.13902007  0.35772181  0.52053646  1
  H+  H184  1  0.88831332  0.27525631  0.18235184  1
  H+  H185  1  0.03149526  0.10809890  0.45318787  1
  H+  H186  1  0.36537637  0.72986149  0.34155491  1
  H+  H187  1  0.36527975  0.12880119  0.17018102  1
  H+  H188  1  0.89416083  0.78919606  0.67311368  1
  H+  H189  1  0.56869321  0.36823337  0.43348194  1
  H+  H190  1  0.39122450  0.37382277  0.84160553  1
  H+  H191  1  0.78409339  0.15546178  1.03093989  1
  H+  H192  1  0.76463587  0.88738270  0.51068958  1
  H+  H193  1  0.27391174  0.64485593  0.67581689  1
  H+  H194  1  0.77691813  0.67975746  0.69172495  1
  H+  H195  1  0.10474086  0.14165586  0.00212811  1
  H+  H196  1  0.52552446  0.89386513  0.48744027  1
  H+  H197  1  0.39436108  0.53107209  0.84099818  1
  H+  H198  1  0.79434908  0.90130965  0.33949181  1
  H+  H199  1  0.77770098  0.12287844  0.32570422  1
  H+  H200  1  0.87002979  0.72327758  0.33584788  1
  H+  H201  1  0.22760588  0.86089530  0.84308628  1
  H+  H202  1  0.13757572  0.77193803  1.00018545  1
  H+  H203  1  0.22069747  0.61069656  0.17970178  1
  H+  H204  1  0.61543460  0.76480804  0.84270730  1
  H+  H205  1  0.89306472  0.52995338  0.51274150  1
  H+  H206  1  0.27384803  0.89283915  0.67400306  1
  H+  H207  1  0.64229881  0.61243556  -0.00320898  1
  H+  H208  1  0.11373867  0.63301981  0.16504987  1
  H+  H209  1  0.11563747  0.13113430  0.49109355  1
  H+  H210  1  0.85959387  0.74060820  0.00392851  1
  H+  H211  1  0.61102998  0.72192239  0.17041757  1
  H+  H212  1  0.62134719  0.97892153  0.32123398  1
  H+  H213  1  0.53691350  0.40394815  0.00935838  1
  H+  H214  1  0.10663350  0.13929774  0.68434790  1
  H+  H215  1  0.16691978  0.27798329  0.31046298  1
  H+  H216  1  0.63364345  0.02627173  0.65056774  1
  H+  H217  1  0.46892667  0.77904459  0.88210351  1
  H+  H218  1  0.85893716  0.48003495  0.67596040  1
  H+  H219  1  0.36648030  -0.01593876  0.82813485  1
  H+  H220  1  0.14626671  0.02457058  0.83843145  1
  H+  H221  1  0.11799404  0.88513579  0.30433326  1
  H+  H222  1  0.52391609  0.63647296  0.82822164  1
  H+  H223  1  0.38397851  0.60311667  0.49956099  1
  H+  H224  1  0.16165009  0.78307676  0.32212684  1
  H+  H225  1  0.84664343  0.87712553  0.15488982  1
  H+  H226  1  0.61193726  0.13255199  0.02082929  1
  H+  H227  1  0.63520428  0.36428194  0.84481082  1
  H+  H228  1  0.51661924  0.87965669  0.81405461  1
  H+  H229  1  0.71607913  0.86868946  -0.00385539  1
  H+  H230  1  0.04736187  0.15246049  0.33046987  1
  H+  H231  1  0.64398141  0.82943204  0.94401466  1
  H+  H232  1  0.35806592  0.38484363  0.67979046  1
  H+  H233  1  0.63305085  0.35800067  0.00127393  1
  H+  H234  1  -0.09411305  0.11641501  0.32875990  1
  H+  H235  1  0.47071610  0.35839538  0.17809722  1
  H+  H236  1  0.59905973  0.46694291  0.67144661  1
  H+  H237  1  0.72466107  0.85985012  0.17376463  1
  H+  H238  1  0.63236022  0.27439706  0.84108442  1
  H+  H239  1  0.90336378  0.86022770  0.81082795  1
  H+  H240  1  0.62282204  1.01470396  0.81870803  1
  H+  H241  1  0.61447173  0.63454460  0.67227187  1
  H+  H242  1  0.14317656  0.52746973  0.51642458  1
  H+  H243  1  0.36767158  0.89644769  0.82880946  1
  H+  H244  1  0.19730996  0.08486236  0.99955716  1
  H+  H245  1  1.03467424  0.38990553  0.50850874  1
  H+  H246  1  0.23104174  0.61757391  0.50563550  1
  H+  H247  1  0.91304575  0.03148859  0.33105569  1
  H+  H248  1  0.36204336  0.46986503  0.49206622  1
  H+  H249  1  0.38450060  0.61372162  0.83694084  1
  H+  H250  1  0.11482612  0.63051232  0.48836908  1
  H+  H251  1  0.64382042  0.11049417  0.21387503  1
  H+  H252  1  0.38051586  0.60338529  0.18416583  1
  H+  H253  1  0.99334179  0.87951975  0.66699756  1
  H+  H254  1  0.47301003  0.61659500  0.67651522  1
  H+  H255  1  1.01216114  0.38988847  0.35954382  1
  H+  H256  1  0.98506555  0.61547893  0.50802197  1
  H+  H257  1  0.61040224  0.13876659  0.66882860  1
  H+  H258  1  0.97690413  0.12404403  0.99299582  1
  H+  H259  1  0.38579057  1.02864341  0.66759351  1
  H+  H260  1  0.02983719  0.88760521  0.52051138  1
  H+  H261  1  0.08125474  0.87792056  0.16613210  1
  H+  H262  1  0.64095894  0.20274338  0.50669880  1
  H+  H263  1  0.14120432  0.55020309  0.89195439  1
  H+  H264  1  0.61664132  0.46899869  0.35676767  1
  H+  H265  1  0.98112761  0.60890535  0.17749178  1
  H+  H266  1  0.36667195  0.72651622  0.49516271  1
  H+  H267  1  0.72017630  0.16555401  0.94613555  1
  H+  H268  1  0.88188111  0.36093185  0.17895006  1
  H+  H269  1  0.91548624  0.32533231  0.27177955  1
  H+  H270  1  0.13626668  0.03074174  0.66631331  1
  H+  H271  1  0.47190057  0.60930268  0.18627153  1
  H+  H272  1  0.60294680  0.47173751  0.16960256  1
  H+  H273  1  0.36138485  0.63887255  0.34385513  1
  H+  H274  1  0.64713659  0.07104649  0.87882120  1
  H+  H275  1  0.86671372  0.72582992  0.49062749  1
  H+  H276  1  0.84847522  0.14293589  0.82710119  1
  H+  H277  1  0.76178083  0.14376124  0.81869549  1
  H+  H278  1  0.60468083  0.88504290  0.01594743  1
  H+  H279  1  0.89412093  0.29061363  0.83962712  1
  H+  H280  1  0.39625854  0.86758243  0.32557214  1
  H+  H281  1  0.65789112  0.32419062  -0.05852711  1
  H+  H282  1  0.16951883  0.34600984  0.93768855  1
  H+  H283  1  0.69725043  0.85399851  0.86177913  1
  H+  H284  1  0.96561510  0.36365784  0.65052233  1
  H+  H285  1  0.85752515  0.61278691  0.16625703  1
  H+  H286  1  0.18830899  0.09247528  0.26978439  1
  H+  H287  1  0.85285822  -0.02010237  0.51166785  1
  H+  H288  1  0.16671739  0.10263222  0.57001556  1
  H+  H289  1  0.66815164  0.31828844  0.56989506  1
  H+  H290  1  0.17140408  0.59770243  0.60073168  1
  H+  H291  1  0.86640169  0.63857299  0.83090836  1
  H+  H292  1  0.07604609  0.91478563  0.41201598  1
  H+  H293  1  0.91734537  0.59326785  0.60489131  1
  H+  H294  1  0.17177381  0.84094295  0.23097947  1
  H+  H295  1  0.92034354  0.07009894  0.23600881  1
  H+  H296  1  0.67179990  0.58606899  0.90205795  1
  H+  H297  1  0.40266289  0.14822332  0.50050897  1
  H+  H298  1  0.15303897  0.11817492  0.84017365  1
  H+  H299  1  0.12737751  1.02368230  0.17759178  1
  H+  H300  1  0.91248000  0.84607998  0.93284439  1
  H+  H301  1  0.67785083  0.84014153  0.26950357  1
  H+  H302  1  0.58955957  0.15860696  0.12168064  1
  H+  H303  1  0.31976433  0.66237871  0.76885292  1
  H+  H304  1  0.32871680  0.89771918  0.07953598  1
  H+  H305  1  0.10241844  0.62038195  0.82297520  1
  H+  H306  1  0.82661910  0.41695085  0.77062067  1
  H+  H307  1  0.92255246  0.57681277  0.23831460  1
  H+  H308  1  0.60047009  0.13281501  0.40022758  1
  H+  H309  1  0.12434420  0.94129461  0.41198688  1
  H+  H310  1  0.33834417  0.42301696  0.77172241  1
  H+  H311  1  0.84461164  0.66920716  0.39963774  1
  H+  H312  1  0.38126747  0.35900071  0.51285934  1
  H+  H313  1  0.37631240  0.98300266  0.49516863  1
  H+  H314  1  0.59145490  0.92958814  0.11498667  1
  H+  H315  1  0.33865472  0.62745739  0.00934329  1
  H+  H316  1  0.58543695  0.66348048  0.42556755  1
  H+  H317  1  0.46684046  0.85824048  1.00610798  1
  H+  H318  1  0.65397562  0.09934216  0.56066710  1
  H+  H319  1  0.33834112  0.17053087  0.11548626  1
  H+  H320  1  0.42928893  0.36023080  0.93577870  1
  H+  H321  1  0.16678513  0.58262962  0.27044272  1
  H+  H322  1  0.27303605  0.37876748  0.49563102  1
  H+  H323  1  0.21987303  0.34174256  0.24909283  1
  H+  H324  1  0.16871523  0.32475415  0.60618390  1
  H+  H325  1  0.61946206  0.48216278  0.82855022  1
  H+  H326  1  0.08691978  0.91750232  0.73385713  1
  H+  H327  1  0.82621800  0.90083047  0.76034454  1
  H+  H328  1  0.89965123  0.32995842  0.59652111  1
  H+  H329  1  0.27006875  0.38615120  0.67967708  1
  H+  H330  1  0.92494122  0.58172593  0.93716407  1
  H+  H331  1  0.13139472  0.64114230  0.33518552  1
  H+  H332  1  0.42444213  0.33750476  0.27694717  1
  H+  H333  1  0.90537853  0.09119397  0.90534935  1
  H+  H334  1  0.60996725  0.98545412  0.48644866  1
  H+  H335  1  0.42390844  0.09655252  0.89376507  1
  H+  H336  1  0.40738020  0.32457640  0.60874823  1
  H+  H337  1  0.34685037  0.92531177  0.39586961  1
  H+  H338  1  0.41214171  0.58368922  0.27417088  1
  H+  H339  1  0.37056208  0.14038234  0.82511154  1
  H+  H340  1  0.87393378  0.93194673  0.76042791  1
  H+  H341  1  0.01743589  0.13974798  0.68593650  1
  H+  H342  1  0.66234228  0.57736980  0.59229766  1
  H+  H343  1  0.59192033  0.93003313  0.38690591  1
  H+  H344  1  0.22321281  0.10528173  0.17607718  1
  H+  H345  1  0.88727981  0.77201092  0.83817312  1
  H+  H346  1  0.82324005  0.15855143  0.42493151  1
  H+  H347  1  0.40935829  0.82130640  0.94555631  1
  H+  H348  1  0.82953094  0.41356174  0.06999557  1
  H+  H349  1  0.16126950  0.07547958  0.93219335  1
  H+  H350  1  0.12055726  0.88553357  0.82907168  1
  H+  H351  1  0.17001371  0.83433797  0.60498578  1
  H+  H352  1  0.85408713  0.97009797  0.16329495  1
  H+  H353  1  0.23158460  0.78078774  0.54995804  1
  H+  H354  1  0.42205976  0.83717261  0.56378769  1
  H+  H355  1  0.87187904  0.24061132  0.01693502  1
  H+  H356  1  0.88971995  0.12598930  0.99902205  1
  H+  H357  1  0.42194546  0.82621204  0.23544276  1
  H+  H358  1  0.72785355  0.61487209  0.50629012  1
  H+  H359  1  0.59207102  0.66252504  0.07444929  1
  H+  H360  1  0.36281514  0.64337259  0.68302765  1
  H+  H361  1  0.06434664  0.90831700  0.10207460  1
  H+  H362  1  0.63950407  0.61567533  0.50404148  1
  H+  H363  1  0.57912109  0.17371116  0.76103665  1
  H+  H364  1  0.83725617  0.68467303  0.74657719  1
  H+  H365  1  0.08854426  0.66623582  0.42955760  1
  H+  H366  1  0.63067546  0.86499612  0.49695202  1
  H+  H367  1  0.81628091  0.39685329  0.39670240  1
  H+  H368  1  0.09522488  0.17913612  0.77564063  1
  H+  H369  1  0.83628479  0.16782957  0.11934323  1
  H+  H370  1  0.82442608  0.17357520  0.73053970  1
  H+  H371  1  0.33467334  0.92044547  0.73228536  1
  H+  H372  1  0.57945753  0.41561476  0.73483454  1
  H+  H373  1  0.11212162  0.18978278  0.38651531  1
  H+  H374  1  0.08760360  0.66911438  0.06615274  1
  H+  H375  1  0.31870177  0.65037962  0.10675202  1
  H+  H376  1  0.64812808  0.82485333  0.55676912  1
  H+  H377  1  0.12901767  0.52269928  0.17838695  1
  H+  H378  1  0.73267101  0.61758476  -0.00756233  1
  H+  H379  1  0.89694185  0.81332771  0.26041512  1
  H+  H380  1  0.84239160  0.68002078  0.06042734  1
  H+  H381  1  0.82530263  0.92130267  0.06645547  1
  H+  H382  1  0.09710739  0.18321373  0.10013289  1
  H+  H383  1  0.87886051  0.11461000  0.67008952  1
  O2-  O384  1  0.11289343  0.19429049  0.14367725  1
  O2-  O385  1  0.08292722  0.15750740  0.46937436  1
  O2-  O386  1  0.11572633  0.18827604  0.81948264  1
  O2-  O387  1  0.08421888  0.43161677  0.15401658  1
  O2-  O388  1  0.09235155  0.41781082  0.52696522  1
  O2-  O389  1  0.09942193  0.45297230  0.82933459  1
  O2-  O390  1  0.08056902  0.66055192  0.14752836  1
  O2-  O391  1  0.08514411  0.66293606  0.47480465  1
  O2-  O392  1  0.07966310  0.65861049  0.81141908  1
  O2-  O393  1  0.05732906  0.91106638  0.14701835  1
  O2-  O394  1  0.09070805  0.91776216  0.53384456  1
  O2-  O395  1  0.09297930  0.91840169  0.81275941  1
  O2-  O396  1  0.33226986  0.15829567  0.15941336  1
  O2-  O397  1  0.39010554  0.18643174  0.47469357  1
  O2-  O398  1  0.33910426  0.17064036  0.80959568  1
  O2-  O399  1  0.30557766  0.37259877  0.14716073  1
  O2-  O400  1  0.33243386  0.40673890  0.47884336  1
  O2-  O401  1  0.34409676  0.42630661  0.81733211  1
  O2-  O402  1  0.32490696  0.65271726  0.15219209  1
  O2-  O403  1  0.33261616  0.66604067  0.48095164  1
  O2-  O404  1  0.31717096  0.65424665  0.81445254  1
  O2-  O405  1  0.34720985  0.90488785  0.15149730  1
  O2-  O406  1  0.34768247  0.92577710  0.47465424  1
  O2-  O407  1  0.33526113  0.92273446  0.81349477  1
  O2-  O408  1  0.58818197  0.16225533  0.16642988  1
  O2-  O409  1  0.60697733  0.14051069  0.49354196  1
  O2-  O410  1  0.57690461  0.17119257  0.80677375  1
  O2-  O411  1  0.57419711  0.41381849  0.15045202  1
  O2-  O412  1  0.55250644  0.33706442  0.47402511  1
  O2-  O413  1  0.58799794  0.42151945  0.81309705  1
  O2-  O414  1  0.57840538  0.66054508  0.15722029  1
  O2-  O415  1  0.58419215  0.66339203  0.47015807  1
  O2-  O416  1  0.58601698  0.66679959  0.81574436  1
  O2-  O417  1  0.59014096  0.92136196  0.15961258  1
  O2-  O418  1  0.58559956  0.92613522  0.47112137  1
  O2-  O419  1  0.57592408  0.91148347  0.79844877  1
  O2-  O420  1  0.83909474  0.16718581  0.16423572  1
  O2-  O421  1  0.82257817  0.16535477  0.47068027  1
  O2-  O422  1  0.82434926  0.17743087  0.80982570  1
  O2-  O423  1  0.82930366  0.41268578  0.14766371  1
  O2-  O424  1  0.80959531  0.43379306  0.47438290  1
  O2-  O425  1  0.82917760  0.41888091  0.81596038  1
  O2-  O426  1  0.81521682  0.62769848  0.14736904  1
  O2-  O427  1  0.83834214  0.66504047  0.47646355  1
  O2-  O428  1  0.83719043  0.67194879  0.81733192  1
  O2-  O429  1  0.82000907  0.91163761  0.14216220  1
  O2-  O430  1  0.82806854  0.91775657  0.52019696  1
  O2-  O431  1  0.79782583  0.90425637  0.88300712  1
  O2-  O432  1  0.16402191  0.08335592  0.19224261  1
  O2-  O433  1  0.16321982  0.09236079  0.52579609  1
  O2-  O434  1  0.17936315  0.08422217  0.85550881  1
  O2-  O435  1  0.22466106  0.34139347  0.17964514  1
  O2-  O436  1  0.16889485  0.32353133  0.52696949  1
  O2-  O437  1  0.18144442  0.36310183  0.85794276  1
  O2-  O438  1  0.16060680  0.58519344  0.19508837  1
  O2-  O439  1  0.17049340  0.59124359  0.52161972  1
  O2-  O440  1  0.14050001  0.54465492  0.84520425  1
  O2-  O441  1  0.15756024  0.83434908  0.18578639  1
  O2-  O442  1  0.19946424  0.80632413  0.53268864  1
  O2-  O443  1  0.16724238  0.82952886  0.85769894  1
  O2-  O444  1  0.42268235  0.08204753  0.19645008  1
  O2-  O445  1  0.43751984  0.08234105  0.53057842  1
  O2-  O446  1  0.41746570  0.08893116  0.84855513  1
  O2-  O447  1  0.41248899  0.32686917  0.19737716  1
  O2-  O448  1  0.40813090  0.32795497  0.53376175  1
  O2-  O449  1  0.42271582  0.34455128  0.85805672  1
  O2-  O450  1  0.41401982  0.58073608  0.20525134  1
  O2-  O451  1  0.41107363  0.56815177  0.50879073  1
  O2-  O452  1  0.42168275  0.59246274  0.85416136  1
  O2-  O453  1  0.42393154  0.82601471  0.18957978  1
  O2-  O454  1  0.42427231  0.83677374  0.51834337  1
  O2-  O455  1  0.42840739  0.79814581  0.87108798  1
  O2-  O456  1  0.67385933  0.07796429  0.22270127  1
  O2-  O457  1  0.65623996  0.09994209  0.51454575  1
  O2-  O458  1  0.65049844  0.07555559  0.83425878  1
  O2-  O459  1  0.66461314  0.33200166  0.18525542  1
  O2-  O460  1  0.67022031  0.30824803  0.52525773  1
  O2-  O461  1  0.66314452  0.33207341  0.86064839  1
  O2-  O462  1  0.65827909  0.57457073  0.20648457  1
  O2-  O463  1  0.66888215  0.58697383  0.52297224  1
  O2-  O464  1  0.67406073  0.58730877  0.85602952  1
  O2-  O465  1  0.66622126  0.82840406  0.19377146  1
  O2-  O466  1  0.65677748  0.83050624  0.51181118  1
  O2-  O467  1  0.63281471  0.82322596  0.86004021  1
  O2-  O468  1  0.90746057  0.06198930  0.19186811  1
  O2-  O469  1  0.90372775  0.09552566  0.52915935  1
  O2-  O470  1  0.88564934  0.07818323  0.86106270  1
  O2-  O471  1  0.91598904  0.33609792  0.19610749  1
  O2-  O472  1  0.90884790  0.32811937  0.51649137  1
  O2-  O473  1  0.92278063  0.34870367  0.85785147  1
  O2-  O474  1  0.92035275  0.57832657  0.19346777  1
  O2-  O475  1  0.92644437  0.59030917  0.52675186  1
  O2-  O476  1  0.91303942  0.58637049  0.85350761  1
  O2-  O477  1  0.89016883  0.81463828  0.17977350  1
  O2-  O478  1  0.91540282  0.82976109  0.51893921  1
  O2-  O479  1  0.91778587  0.83657607  0.84607274  1
  O2-  O480  1  0.19003791  0.09200485  0.31530512  1
  O2-  O481  1  0.16327413  0.09280566  0.65615079  1
  O2-  O482  1  0.14539788  0.06957936  0.97657804  1
  O2-  O483  1  0.20557964  0.33913164  0.29498672  1
  O2-  O484  1  0.16711609  0.33305725  0.65110542  1
  O2-  O485  1  0.16492517  0.33596795  0.98228595  1
  O2-  O486  1  0.16808866  0.58652179  0.31627345  1
  O2-  O487  1  0.16884810  0.59298115  0.64616701  1
  O2-  O488  1  0.16895364  0.60976538  0.95022367  1
  O2-  O489  1  0.18825917  0.84133042  0.30333791  1
  O2-  O490  1  0.16553959  0.84068032  0.64947582  1
  O2-  O491  1  0.17362987  0.83541295  0.98658209  1
  O2-  O492  1  0.43427420  0.09336999  0.32010008  1
  O2-  O493  1  0.41481147  0.09060214  0.65425946  1
  O2-  O494  1  0.43441405  0.12262398  0.97028017  1
  O2-  O495  1  0.42838846  0.34067444  0.32204098  1
  O2-  O496  1  0.40784225  0.32137478  0.65486227  1
  O2-  O497  1  0.43462597  0.37004601  0.98081436  1
  O2-  O498  1  0.40994753  0.58369443  0.32153894  1
  O2-  O499  1  0.41124275  0.59191685  0.66819799  1
  O2-  O500  1  0.39525151  0.59252202  0.98127196  1
  O2-  O501  1  0.42205764  0.83282738  0.31100912  1
  O2-  O502  1  0.41683646  0.83465088  0.64301014  1
  O2-  O503  1  0.40654547  0.83019102  0.99019753  1
  O2-  O504  1  0.67626578  0.07548723  0.29124532  1
  O2-  O505  1  0.66105035  0.08798742  0.63803371  1
  O2-  O506  1  0.69293089  0.10511697  0.95818656  1
  O2-  O507  1  0.65409932  0.32648433  0.30140766  1
  O2-  O508  1  0.66471388  0.33306732  0.64676469  1
  O2-  O509  1  0.65741348  0.32151384  0.98685782  1
  O2-  O510  1  0.67326969  0.57659455  0.33086767  1
  O2-  O511  1  0.66186815  0.57133985  0.63947049  1
  O2-  O512  1  0.67149259  0.58205068  0.97816443  1
  O2-  O513  1  0.67855614  0.84008207  0.31528572  1
  O2-  O514  1  0.65811570  0.82581066  0.63681964  1
  O2-  O515  1  0.65277252  0.83737050  0.98860088  1
  O2-  O516  1  0.94367540  0.09304885  0.31639477  1
  O2-  O517  1  0.91287783  0.08831054  0.65385141  1
  O2-  O518  1  0.91558559  0.09498661  0.97825798  1
  O2-  O519  1  0.91027964  0.31543982  0.31691549  1
  O2-  O520  1  0.90256620  0.33284009  0.64186032  1
  O2-  O521  1  0.90822493  0.32962748  0.98299931  1
  O2-  O522  1  0.90761916  0.56792106  0.32158766  1
  O2-  O523  1  0.91398774  0.59177789  0.65040531  1
  O2-  O524  1  0.93350554  0.58166433  0.98147468  1
  O2-  O525  1  0.91077853  0.81830844  0.30458363  1
  O2-  O526  1  0.92883173  0.84689460  0.65133933  1
  O2-  O527  1  0.91223431  0.84597936  0.97751119  1
  O2-  O528  1  0.07827964  0.17399110  0.01855398  1
  O2-  O529  1  0.11087296  0.18566311  0.34160420  1
  O2-  O530  1  0.07756937  0.16960358  0.70173934  1
  O2-  O531  1  0.07969616  0.42081591  0.03109091  1
  O2-  O532  1  0.05686763  0.43122973  0.38718844  1
  O2-  O533  1  0.07594593  0.41808241  0.64868363  1
  O2-  O534  1  0.08869867  0.67746684  0.02131278  1
  O2-  O535  1  0.10383046  0.67804096  0.34894489  1
  O2-  O536  1  0.08389159  0.67664384  0.68849502  1
  O2-  O537  1  0.07152483  0.90344369  0.02257914  1
  O2-  O538  1  0.08102258  0.90954263  0.29405808  1
  O2-  O539  1  0.08209675  0.91943110  0.68840936  1
  O2-  O540  1  0.33262202  0.21229870  0.03914390  1
  O2-  O541  1  0.32270670  0.11286965  0.37539229  1
  O2-  O542  1  0.34077951  0.17153247  0.69671665  1
  O2-  O543  1  0.32699128  0.42496644  0.02578625  1
  O2-  O544  1  0.33682203  0.42087674  0.35806356  1
  O2-  O545  1  0.33005603  0.41597390  0.69606174  1
  O2-  O546  1  0.30519695  0.65307783  0.02931304  1
  O2-  O547  1  0.33176737  0.67035983  0.35824205  1
  O2-  O548  1  0.33253554  0.67682196  0.69395618  1
  O2-  O549  1  0.32312910  0.89772180  0.03305808  1
  O2-  O550  1  0.34765047  0.92460478  0.35045337  1
  O2-  O551  1  0.33531348  0.92340233  0.68708585  1
  O2-  O552  1  0.58086453  0.16074433  0.03503422  1
  O2-  O553  1  0.58746805  0.13431250  0.35714853  1
  O2-  O554  1  0.58026868  0.16896196  0.68497704  1
  O2-  O555  1  0.59522950  0.42428287  0.02656326  1
  O2-  O556  1  0.58402786  0.40628862  0.36449569  1
  O2-  O557  1  0.57245720  0.40826617  0.68943548  1
  O2-  O558  1  0.60146780  0.66488528  0.02997396  1
  O2-  O559  1  0.59290313  0.67696433  0.33820867  1
  O2-  O560  1  0.58971621  0.66688692  0.69141426  1
  O2-  O561  1  0.57223437  0.91398071  0.03242197  1
  O2-  O562  1  0.58948707  0.92038310  0.34233787  1
  O2-  O563  1  0.58535352  0.91856005  0.67391120  1
  O2-  O564  1  0.84588078  0.18100297  0.03659020  1
  O2-  O565  1  0.83298068  0.15209666  0.34938722  1
  O2-  O566  1  0.82434607  0.16820480  0.68527860  1
  O2-  O567  1  0.83005141  0.41296174  0.02438304  1
  O2-  O568  1  0.81708638  0.39141558  0.35202850  1
  O2-  O569  1  0.82765708  0.41954462  0.69024381  1
  O2-  O570  1  0.83149645  0.67971323  0.01695430  1
  O2-  O571  1  0.84162981  0.66333807  0.35416845  1
  O2-  O572  1  0.83615400  0.69472480  0.70045672  1
  O2-  O573  1  0.82554995  0.92207895  0.02051817  1
  O2-  O574  1  0.85535652  0.92896714  0.35161838  1
  O2-  O575  1  0.84447400  0.91897050  0.63806505  1
