# generated using pymatgen
data_H2O
_symmetry_space_group_name_H-M   'P 1'
_cell_length_a   17.98811135
_cell_length_b   17.99184315
_cell_length_c   22.00471316
_cell_angle_alpha   89.99571877
_cell_angle_beta   90.00005981
_cell_angle_gamma   119.99950537
_symmetry_Int_Tables_number   1
_chemical_formula_structural   H2O
_chemical_formula_sum   'H384 O192'
_cell_volume   6167.50811951
_cell_formula_units_Z   192
loop_
 _symmetry_equiv_pos_site_id
 _symmetry_equiv_pos_as_xyz
  1  'x, y, z'
loop_
 _atom_type_symbol
 _atom_type_oxidation_number
  H+  1.0
  O2-  -2.0
loop_
 _atom_site_type_symbol
 _atom_site_label
 _atom_site_symmetry_multiplicity
 _atom_site_fract_x
 _atom_site_fract_y
 _atom_site_fract_z
 _atom_site_occupancy
  H+  H0  1  0.11572227  0.62904072  -0.00393831  1
  H+  H1  1  0.12812664  0.24609951  0.68892932  1
  H+  H2  1  0.22150814  0.87550631  0.84181502  1
  H+  H3  1  0.14658270  0.04878335  0.54720225  1
  H+  H4  1  0.60153608  0.62939220  0.15935603  1
  H+  H5  1  0.61182633  0.87706840  0.83162374  1
  H+  H6  1  0.08467544  0.45014673  0.48532894  1
  H+  H7  1  0.88163884  1.01904612  -0.00728537  1
  H+  H8  1  0.64441093  0.52740129  0.32883956  1
  H+  H9  1  0.05575124  0.62199081  0.07726574  1
  H+  H10  1  0.63724497  0.86016974  0.16975993  1
  H+  H11  1  0.88271488  0.86414805  -0.00640941  1
  H+  H12  1  0.51296442  0.38881325  0.00374455  1
  H+  H13  1  0.67449538  0.88400092  0.50020279  1
  H+  H14  1  0.10855144  0.13628117  0.84387328  1
  H+  H15  1  0.59098100  0.65584291  0.72965016  1
  H+  H16  1  0.23174481  0.37812793  0.49979299  1
  H+  H17  1  0.89133271  0.36655219  0.84127752  1
  H+  H18  1  0.88707878  0.27043606  0.16779485  1
  H+  H19  1  0.90237781  0.07487363  0.22228284  1
  H+  H20  1  0.63439883  0.99611512  0.49608788  1
  H+  H21  1  0.14823878  0.60901955  0.84941408  1
  H+  H22  1  0.65102019  0.57542832  0.23231645  1
  H+  H23  1  0.69250394  0.94413555  0.69098985  1
  H+  H24  1  0.13846130  0.85120080  -0.00655778  1
  H+  H25  1  0.77138991  0.38231334  0.67373604  1
  H+  H26  1  0.39829281  0.11562306  0.51591516  1
  H+  H27  1  0.48583512  0.10886135  0.12443537  1
  H+  H28  1  0.16289611  0.06821880  0.94472816  1
  H+  H29  1  0.01768755  0.12403567  0.00746497  1
  H+  H30  1  0.37494505  0.84814467  -0.00318253  1
  H+  H31  1  0.86472824  0.13610781  0.82946305  1
  H+  H32  1  0.39628078  0.11710295  0.86508171  1
  H+  H33  1  0.34555758  0.88548193  0.49785526  1
  H+  H34  1  0.61628159  0.47270349  0.67583248  1
  H+  H35  1  0.42412807  0.33824983  0.92499864  1
  H+  H36  1  0.38418906  0.23018511  0.85131909  1
  H+  H37  1  0.35449286  0.99759935  0.83114423  1
  H+  H38  1  0.87420287  0.23055121  0.67613162  1
  H+  H39  1  0.76691250  0.88165076  0.00460929  1
  H+  H40  1  0.37217000  0.72633092  0.01242100  1
  H+  H41  1  0.89353877  0.02732997  0.49075575  1
  H+  H42  1  0.31728263  0.88591862  0.08683411  1
  H+  H43  1  0.77108417  0.13664868  0.15604625  1
  H+  H44  1  0.21973730  0.86761529  0.65775588  1
  H+  H45  1  0.11890781  0.65821324  0.49455812  1
  H+  H46  1  0.85914789  0.37808546  0.49805556  1
  H+  H47  1  0.58473193  0.64878720  0.42597748  1
  H+  H48  1  0.97056727  0.85061519  0.49965400  1
  H+  H49  1  0.61671590  0.73043711  0.33507598  1
  H+  H50  1  0.86753819  0.63200096  0.49009279  1
  H+  H51  1  0.90309247  0.27823605  -0.00956868  1
  H+  H52  1  0.87394816  0.38503624  0.01559479  1
  H+  H53  1  -0.02154840  0.59351815  0.64191087  1
  H+  H54  1  0.38912653  0.01696892  0.66263882  1
  H+  H55  1  0.38691933  0.60175726  0.88292052  1
  H+  H56  1  0.61327790  0.97389916  0.15940204  1
  H+  H57  1  0.13288857  0.04379190  0.67605124  1
  H+  H58  1  0.11861346  -0.00174666  0.18795243  1
  H+  H59  1  0.47396235  0.35618124  0.66223263  1
  H+  H60  1  0.61696505  0.38112584  0.49133971  1
  H+  H61  1  0.86544537  0.72402063  0.15480891  1
  H+  H62  1  0.48340022  0.36422423  0.50252868  1
  H+  H63  1  0.75562106  0.87198989  0.49790535  1
  H+  H64  1  0.36461685  -0.03821672  0.13457843  1
  H+  H65  1  0.73804347  0.60614565  0.50457951  1
  H+  H66  1  0.63680841  0.11162646  0.16538936  1
  H+  H67  1  0.29150441  0.65417927  0.48510920  1
  H+  H68  1  0.77809061  0.38604669  0.82842702  1
  H+  H69  1  0.28067269  0.15900924  0.34103991  1
  H+  H70  1  0.35338685  0.39386188  -0.00751961  1
  H+  H71  1  0.27519581  0.88688039  0.33701294  1
  H+  H72  1  0.87132391  0.12103068  0.32103876  1
  H+  H73  1  0.77761200  0.89251455  0.32922598  1
  H+  H74  1  0.47375503  0.60611104  0.16806537  1
  H+  H75  1  0.35128089  0.09851069  0.69930207  1
  H+  H76  1  0.36371423  0.37346838  0.67596183  1
  H+  H77  1  0.56441017  0.40684683  0.06629597  1
  H+  H78  1  0.87825071  0.87567914  0.65125779  1
  H+  H79  1  0.64147842  0.12194722  0.51071158  1
  H+  H80  1  0.86674618  0.47536140  0.82514790  1
  H+  H81  1  0.97180976  0.10659356  0.84288104  1
  H+  H82  1  0.88972874  0.61581565  0.83225872  1
  H+  H83  1  0.78006960  0.64529261  0.67562414  1
  H+  H84  1  0.95910693  0.59433066  0.15794784  1
  H+  H85  1  0.00534811  0.52918701  0.10452635  1
  H+  H86  1  0.86484236  0.98329067  0.32886335  1
  H+  H87  1  0.36303807  0.47670130  0.49267697  1
  H+  H88  1  0.86399994  0.39242210  0.33608510  1
  H+  H89  1  0.63350230  0.76906329  0.16980661  1
  H+  H90  1  0.39641271  0.27531424  0.50330833  1
  H+  H91  1  0.13124077  0.26115209  0.16533117  1
  H+  H92  1  0.52804086  0.64135262  0.33099587  1
  H+  H93  1  0.85894231  0.88131244  0.82538802  1
  H+  H94  1  0.51947917  0.37855300  0.83321872  1
  H+  H95  1  0.26973827  0.31233566  0.89610236  1
  H+  H96  1  0.47645832  0.85265497  0.83964449  1
  H+  H97  1  0.55137473  0.17624178  0.00482288  1
  H+  H98  1  0.14723302  0.50847093  0.15412515  1
  H+  H99  1  0.52372604  0.88633658  0.33772616  1
  H+  H100  1  1.01040729  0.38740236  0.82968492  1
  H+  H101  1  0.12213606  1.00839918  0.15453905  1
  H+  H102  1  0.87945673  0.01895494  0.83887509  1
  H+  H103  1  0.14047664  0.60834710  0.64738652  1
  H+  H104  1  0.15310444  0.52080991  0.99658274  1
  H+  H105  1  0.67718403  0.57431580  0.60020522  1
  H+  H106  1  0.86690013  0.64284675  0.00177753  1
  H+  H107  1  0.36456176  0.65854450  0.65539585  1
  H+  H108  1  0.32073183  0.91801302  0.72879740  1
  H+  H109  1  0.13710181  0.58942246  0.14807484  1
  H+  H110  1  0.79271389  0.39791931  0.01343513  1
  H+  H111  1  0.47492167  0.60206643  0.66886347  1
  H+  H112  1  0.38538779  0.61211275  0.31607292  1
  H+  H113  1  0.44860454  0.85936094  0.65869928  1
  H+  H114  1  0.20429516  0.39463588  0.00101192  1
  H+  H115  1  0.60908451  0.72501008  1.00462314  1
  H+  H116  1  0.63177080  0.86180322  0.99482675  1
  H+  H117  1  0.85904736  0.96536468  0.15585504  1
  H+  H118  1  0.92759184  0.06528114  0.71303540  1
  H+  H119  1  0.40451519  0.28150519  0.15099219  1
  H+  H120  1  0.85420501  0.22651704  0.33296165  1
  H+  H121  1  0.97582921  0.62109188  0.98544306  1
  H+  H122  1  0.38756644  0.85049036  0.83838745  1
  H+  H123  1  0.29403674  0.37613800  0.84161444  1
  H+  H124  1  0.86338586  0.73373161  0.33821323  1
  H+  H125  1  0.23088396  0.36442481  0.67496244  1
  H+  H126  1  0.89355876  0.11418423  0.67383000  1
  H+  H127  1  0.49117225  0.61201555  0.97408940  1
  H+  H128  1  0.63313963  0.51593687  0.84021193  1
  H+  H129  1  0.88913732  0.36035706  0.17183927  1
  H+  H130  1  0.87736207  0.26202456  0.50739393  1
  H+  H131  1  0.28290625  0.63306033  0.15684865  1
  H+  H132  1  0.90625180  0.64919033  0.31203265  1
  H+  H133  1  0.40050222  0.29380062  0.31014852  1
  H+  H134  1  0.86159259  0.13401834  0.48240072  1
  H+  H135  1  0.38522121  0.60729934  0.16831646  1
  H+  H136  1  0.61904231  0.23103120  0.49953396  1
  H+  H137  1  0.64623302  0.60001322  0.50295709  1
  H+  H138  1  0.53147314  0.39443434  0.33697993  1
  H+  H139  1  0.61607281  0.13877763  0.83095885  1
  H+  H140  1  0.11268757  0.37678019  0.49187083  1
  H+  H141  1  0.36105119  0.98073327  0.49443584  1
  H+  H142  1  0.02327244  0.37135559  0.15324885  1
  H+  H143  1  0.38682873  0.12396338  0.35586370  1
  H+  H144  1  -0.02674284  0.61030069  0.50218425  1
  H+  H145  1  0.66002850  0.29760898  0.99270987  1
  H+  H146  1  0.75586471  0.87226647  0.65873286  1
  H+  H147  1  0.72282867  0.35688290  0.17753567  1
  H+  H148  1  0.12161017  0.85117649  0.66091998  1
  H+  H149  1  0.51934871  0.88309005  0.00667750  1
  H+  H150  1  0.86089008  0.46816859  0.49345745  1
  H+  H151  1  0.77077619  0.87578618  0.15796174  1
  H+  H152  1  0.96531026  0.14766933  0.29981138  1
  H+  H153  1  0.39067107  0.76917728  0.17370919  1
  H+  H154  1  0.97587669  0.11870867  0.50228416  1
  H+  H155  1  0.72849669  0.11118143  0.83776655  1
  H+  H156  1  0.21941217  0.10178081  1.00508080  1
  H+  H157  1  0.03951371  0.13592756  0.36308650  1
  H+  H158  1  0.64834246  0.31982746  0.25800730  1
  H+  H159  1  0.10318064  0.85454419  0.14628960  1
  H+  H160  1  0.12765644  0.13922158  0.34953605  1
  H+  H161  1  0.77389600  0.63460859  0.82904980  1
  H+  H162  1  0.39552070  0.10409872  0.12691677  1
  H+  H163  1  0.72346896  0.85611303  0.84084667  1
  H+  H164  1  0.39003013  0.33386415  0.84485190  1
  H+  H165  1  0.62106457  0.35663693  0.32365313  1
  H+  H166  1  0.36133706  0.71069303  0.82100513  1
  H+  H167  1  -0.02095463  0.61518613  0.83723075  1
  H+  H168  1  0.26449253  0.10056878  0.70912134  1
  H+  H169  1  0.52488580  0.13977372  0.67954073  1
  H+  H170  1  0.65363163  0.05038680  0.67214462  1
  H+  H171  1  0.36715506  0.16387372  0.01180671  1
  H+  H172  1  0.34324526  0.93962252  0.00715012  1
  H+  H173  1  0.72795605  0.36027599  0.50961909  1
  H+  H174  1  0.39150509  0.61848300  0.50065080  1
  H+  H175  1  0.85518820  0.74243793  0.67470567  1
  H+  H176  1  0.11195139  0.63545851  0.35766725  1
  H+  H177  1  0.09383603  0.96461388  0.46981525  1
  H+  H178  1  0.64015937  0.86595501  0.32244660  1
  H+  H179  1  0.48267706  0.11257528  0.85729365  1
  H+  H180  1  0.10886676  0.88525369  0.48432883  1
  H+  H181  1  0.85774075  0.13266242  0.15380147  1
  H+  H182  1  0.10837579  0.14094007  0.15935516  1
  H+  H183  1  0.88513272  0.35797413  0.66173738  1
  H+  H184  1  0.63784027  0.36803537  0.66359069  1
  H+  H185  1  0.02196674  0.39066289  0.67506797  1
  H+  H186  1  0.71613646  0.11591211  0.32336566  1
  H+  H187  1  0.21103838  0.22780497  0.22015187  1
  H+  H188  1  0.86702367  0.22675262  0.83022325  1
  H+  H189  1  0.67605793  0.81728196  0.57905499  1
  H+  H190  1  0.23220077  0.60177019  0.83541656  1
  H+  H191  1  0.22493791  0.35007374  0.16302853  1
  H+  H192  1  0.11342864  0.38062397  0.33730580  1
  H+  H193  1  0.34888222  0.87851748  0.67007070  1
  H+  H194  1  0.72255199  0.60953386  0.99595780  1
  H+  H195  1  -0.00503407  0.85983770  0.67667182  1
  H+  H196  1  0.61482264  0.92748707  0.64924906  1
  H+  H197  1  0.66221092  0.08443860  0.22787135  1
  H+  H198  1  0.61858695  0.81370255  0.63659454  1
  H+  H199  1  0.64023928  0.61460617  0.32710300  1
  H+  H200  1  0.60711879  0.50775038  0.17896180  1
  H+  H201  1  0.15244294  0.27782475  0.32777831  1
  H+  H202  1  0.37997403  0.03084650  0.35940647  1
  H+  H203  1  0.23595057  0.11438558  0.85985781  1
  H+  H204  1  0.63575330  0.27860804  0.66411040  1
  H+  H205  1  0.14947620  1.02985390  0.32212998  1
  H+  H206  1  0.64830204  0.37934084  -0.00695540  1
  H+  H207  1  0.63929538  1.02111337  0.83753067  1
  H+  H208  1  0.10816414  0.74108783  0.49595653  1
  H+  H209  1  0.13989401  0.77074268  0.32269810  1
  H+  H210  1  0.96786498  0.34600526  0.50838311  1
  H+  H211  1  0.62102592  0.02258345  0.99109691  1
  H+  H212  1  0.88501159  0.85449015  0.16534400  1
  H+  H213  1  0.10877994  0.88094057  0.83730095  1
  H+  H214  1  0.14438833  0.28987909  0.51203383  1
  H+  H215  1  0.16801557  0.57890007  0.46625240  1
  H+  H216  1  0.22170257  0.59990261  0.36800904  1
  H+  H217  1  -0.03281169  0.10369303  0.16566343  1
  H+  H218  1  0.48539814  0.11334500  0.51083804  1
  H+  H219  1  0.34030993  0.15159049  0.79960770  1
  H+  H220  1  0.10333135  0.11762675  1.01272502  1
  H+  H221  1  0.66654742  0.33429039  0.56888144  1
  H+  H222  1  0.84049986  0.97005324  0.66564010  1
  H+  H223  1  0.88800866  0.50925730  0.65248956  1
  H+  H224  1  0.62301903  0.47244265  0.49085843  1
  H+  H225  1  0.24241696  0.88403341  0.16412833  1
  H+  H226  1  0.77312019  0.13564108  0.48941572  1
  H+  H227  1  0.84524633  0.17950706  0.05977797  1
  H+  H228  1  0.52593784  0.56512737  0.46147703  1
  H+  H229  1  0.42788168  0.09192999  1.02854176  1
  H+  H230  1  0.51619410  0.13669121  0.35974868  1
  H+  H231  1  0.37895065  0.28806005  0.98801014  1
  H+  H232  1  0.27763968  0.13566581  0.50753226  1
  H+  H233  1  0.11330248  0.48008200  0.67356153  1
  H+  H234  1  0.62944706  1.02527490  0.32257254  1
  H+  H235  1  0.13295341  0.51095635  0.36953219  1
  H+  H236  1  0.66782672  0.83329744  0.26317565  1
  H+  H237  1  0.01240562  0.87996601  0.00238706  1
  H+  H238  1  0.45400441  0.88133425  0.51476875  1
  H+  H239  1  0.12566120  0.15578564  0.51400707  1
  H+  H240  1  0.99360606  0.64694374  0.31224084  1
  H+  H241  1  0.28432370  0.39429271  0.31946542  1
  H+  H242  1  0.56871115  0.89567055  0.50209896  1
  H+  H243  1  0.87591961  0.88497018  0.48114447  1
  H+  H244  1  0.52436418  0.88445197  0.16059979  1
  H+  H245  1  -0.01905391  0.86848997  0.31453793  1
  H+  H246  1  0.64358964  0.27881461  0.84442199  1
  H+  H247  1  0.18741943  0.11147854  0.27456420  1
  H+  H248  1  0.41777562  0.83348629  0.26534207  1
  H+  H249  1  0.26508757  0.19841291  0.18299194  1
  H+  H250  1  0.12844903  0.73153322  0.83998691  1
  H+  H251  1  0.85999327  0.72909092  0.00687907  1
  H+  H252  1  0.38805819  0.86221257  0.32549465  1
  H+  H253  1  0.11601472  0.71910277  -0.00031579  1
  H+  H254  1  0.77734955  0.64234488  0.33815573  1
  H+  H255  1  0.63641119  0.76574101  0.84064315  1
  H+  H256  1  0.36493696  0.46347320  0.67175922  1
  H+  H257  1  0.11822551  0.88685696  0.32504030  1
  H+  H258  1  0.87691720  0.14683292  0.00355489  1
  H+  H259  1  0.37843038  0.50252146  0.31332936  1
  H+  H260  1  0.35851076  0.46067472  0.14922608  1
  H+  H261  1  0.61566668  0.70293722  0.66426741  1
  H+  H262  1  0.53239598  0.62861104  0.82301145  1
  H+  H263  1  0.91569469  0.32640697  0.60295680  1
  H+  H264  1  0.17143749  0.57853680  0.54240772  1
  H+  H265  1  0.82292551  0.90736954  0.76665312  1
  H+  H266  1  0.36281962  0.72171506  0.33170695  1
  H+  H267  1  0.61924686  0.15145849  0.67975121  1
  H+  H268  1  0.88148018  0.76312026  0.50385498  1
  H+  H269  1  0.37754222  0.74031708  0.48883000  1
  H+  H270  1  0.00329896  0.84026625  0.14672514  1
  H+  H271  1  0.11083029  0.36705806  0.15819607  1
  H+  H272  1  0.86953498  0.62988981  0.15447849  1
  H+  H273  1  0.14607763  1.02683740  0.84942814  1
  H+  H274  1  0.22253043  0.87831963  0.50351814  1
  H+  H275  1  0.88361802  0.77080996  0.84207201  1
  H+  H276  1  0.61513004  0.25721744  0.32490450  1
  H+  H277  1  0.64076234  0.60013880  0.65797885  1
  H+  H278  1  0.35262635  0.74185467  0.66288840  1
  H+  H279  1  0.62045327  0.62876319  0.82742027  1
  H+  H280  1  0.97304103  0.35376623  0.32245919  1
  H+  H281  1  0.97297801  0.86089923  0.84457840  1
  H+  H282  1  0.60378308  0.13547909  0.33957792  1
  H+  H283  1  0.83226196  0.67485226  0.76918152  1
  H+  H284  1  0.85075765  0.46630921  0.16734622  1
  H+  H285  1  0.11276895  0.48007540  0.82908640  1
  H+  H286  1  0.61212791  0.22211000  0.15571581  1
  H+  H287  1  0.62587449  0.15185591  0.99903916  1
  H+  H288  1  0.17101158  0.32669373  0.26332307  1
  H+  H289  1  0.09943736  0.40014432  0.06349677  1
  H+  H290  1  0.58149530  0.41439470  0.73623010  1
  H+  H291  1  0.89279829  0.87140317  0.31533171  1
  H+  H292  1  0.58176700  0.91504002  0.06447016  1
  H+  H293  1  0.11920837  0.73287374  0.65789555  1
  H+  H294  1  0.32388664  0.41666846  0.08464429  1
  H+  H295  1  0.41345575  0.82452852  0.93793412  1
  H+  H296  1  0.38083306  0.40267435  0.31036409  1
  H+  H297  1  0.11774287  0.67236880  0.78378594  1
  H+  H298  1  0.23054662  0.84813762  0.99756913  1
  H+  H299  1  0.58627435  0.90859314  0.77200560  1
  H+  H300  1  0.07487054  0.42309373  0.76317110  1
  H+  H301  1  0.82381989  0.16618269  0.39324288  1
  H+  H302  1  0.05729080  0.66822728  0.70765305  1
  H+  H303  1  0.36108246  0.38751473  0.49299774  1
  H+  H304  1  0.82772901  0.90882643  0.06343421  1
  H+  H305  1  0.43800659  0.13013878  0.23871256  1
  H+  H306  1  0.66144684  0.82988590  0.93611898  1
  H+  H307  1  0.32939721  0.66429272  0.75736648  1
  H+  H308  1  0.45659252  0.35227375  0.25369319  1
  H+  H309  1  0.14234812  0.36743380  0.67811130  1
  H+  H310  1  0.60509201  0.18025051  0.08999572  1
  H+  H311  1  0.91366804  0.59426566  0.92840312  1
  H+  H312  1  0.34321371  0.21941775  0.39294525  1
  H+  H313  1  0.99301780  0.36644235  0.98778485  1
  H+  H314  1  0.67858243  0.34661387  0.89966624  1
  H+  H315  1  0.84757323  0.91743670  0.42095402  1
  H+  H316  1  0.34636996  0.44684356  0.76231440  1
  H+  H317  1  0.63129034  0.52246965  0.99721563  1
  H+  H318  1  0.16083886  0.84841726  0.56283332  1
  H+  H319  1  0.41635105  0.58360829  0.25166303  1
  H+  H320  1  0.91232093  0.83300716  0.93409350  1
  H+  H321  1  0.58976945  0.92261024  0.39422479  1
  H+  H322  1  0.04273772  0.15185426  0.68215397  1
  H+  H323  1  0.91669535  0.82687999  0.22566306  1
  H+  H324  1  0.32812282  0.91184141  0.39907471  1
  H+  H325  1  0.18151624  0.57701239  0.93686546  1
  H+  H326  1  0.42293081  0.08284743  0.60759634  1
  H+  H327  1  0.83437051  0.41645777  0.39520321  1
  H+  H328  1  0.91086971  0.57152916  0.55971327  1
  H+  H329  1  0.43090728  0.10191347  0.95335340  1
  H+  H330  1  0.28524319  0.63772667  0.01481751  1
  H+  H331  1  0.33947681  0.30924260  0.12705570  1
  H+  H332  1  0.19095666  0.11915060  0.59529545  1
  H+  H333  1  0.29438561  0.99911976  0.78074925  1
  H+  H334  1  0.84116605  0.17152516  0.73677822  1
  H+  H335  1  0.20771766  0.93865159  0.19863895  1
  H+  H336  1  0.39732291  0.83515951  0.57695849  1
  H+  H337  1  0.63051970  0.35384554  0.17416776  1
  H+  H338  1  0.35843052  0.48329920  -0.01011710  1
  H+  H339  1  0.32077399  0.11870522  0.44930364  1
  H+  H340  1  0.91005106  0.84213001  0.59324662  1
  H+  H341  1  0.17070400  0.83178226  0.90551143  1
  H+  H342  1  0.83872504  0.66646854  0.08876808  1
  H+  H343  1  0.34837573  0.67004461  0.10194236  1
  H+  H344  1  0.58961424  0.41350997  0.39812741  1
  H+  H345  1  0.91263758  0.07800199  0.93328395  1
  H+  H346  1  0.65306419  0.07983163  0.93076645  1
  H+  H347  1  0.66422009  0.57728882  0.89957881  1
  H+  H348  1  0.22959803  0.61257542  0.65082137  1
  H+  H349  1  0.17283894  0.83295359  0.26293025  1
  H+  H350  1  0.58211080  0.17132076  0.77594038  1
  H+  H351  1  0.57667207  0.66289551  0.09867003  1
  H+  H352  1  0.47518888  0.61586152  0.51584166  1
  H+  H353  1  0.61299206  0.63732769  0.00451016  1
  H+  H354  1  0.10423826  0.17915855  0.44899478  1
  H+  H355  1  0.38435212  0.85459470  0.16870208  1
  H+  H356  1  0.31281481  0.50021168  0.79792143  1
  H+  H357  1  0.41804996  0.33125577  0.60250277  1
  H+  H358  1  0.06980332  0.38953625  0.39868265  1
  H+  H359  1  0.15446359  0.63157784  0.26036399  1
  H+  H360  1  0.43076506  0.08516092  0.23957822  1
  H+  H361  1  0.35088539  0.67158825  0.39311126  1
  H+  H362  1  0.83833817  0.66638101  0.43167509  1
  H+  H363  1  0.00001330  0.79090300  0.71492717  1
  H+  H364  1  0.91697568  0.32760365  0.26150496  1
  H+  H365  1  0.82950284  0.40650958  0.10822432  1
  H+  H366  1  0.92367276  0.60467245  0.22419402  1
  H+  H367  1  0.06294649  0.87549619  0.07430114  1
  H+  H368  1  0.33201851  0.20232247  0.06380045  1
  H+  H369  1  0.08278240  0.91172238  0.38284861  1
  H+  H370  1  0.39289363  0.58553621  0.70389519  1
  H+  H371  1  0.83313636  0.41107560  0.73251803  1
  H+  H372  1  0.08499165  0.16883932  0.78400187  1
  H+  H373  1  0.61471109  0.38972041  0.82748270  1
  H+  H374  1  0.10880639  0.96755523  0.01276038  1
  H+  H375  1  0.07376639  0.90282656  0.77776699  1
  H+  H376  1  0.14929925  0.13861896  0.68439108  1
  H+  H377  1  0.11663032  0.58713620  0.26301856  1
  H+  H378  1  0.74262261  0.13432134  0.66620863  1
  H+  H379  1  0.67543639  0.09626125  0.57067982  1
  H+  H380  1  0.08029014  0.67923376  0.40327787  1
  H+  H381  1  0.92774200  0.33981689  0.90106048  1
  H+  H382  1  0.59154813  0.17273938  0.43917585  1
  H+  H383  1  0.07233745  0.15460000  0.09458539  1
  O2-  O384  1  0.07054944  0.16031442  0.14201380  1
  O2-  O385  1  0.09285506  0.17880454  0.49302755  1
  O2-  O386  1  0.06976880  0.15532938  0.82739410  1
  O2-  O387  1  0.08330681  0.39591817  0.13710835  1
  O2-  O388  1  0.06548717  0.39096847  0.47421513  1
  O2-  O389  1  0.07378652  0.42051554  0.81047075  1
  O2-  O390  1  0.03631723  0.58918686  0.11729865  1
  O2-  O391  1  0.08063059  0.68048667  0.48157364  1
  O2-  O392  1  0.10139758  0.66921060  0.82633357  1
  O2-  O393  1  0.05011699  0.83985549  0.12134134  1
  O2-  O394  1  0.07081086  0.90382271  0.46173188  1
  O2-  O395  1  0.08033913  0.91323915  0.82208622  1
  O2-  O396  1  0.34452203  0.25728064  0.13330991  1
  O2-  O397  1  0.33248819  0.15600860  0.48459604  1
  O2-  O398  1  0.34470462  0.16235505  0.84399283  1
  O2-  O399  1  0.32264314  0.40416431  0.12934206  1
  O2-  O400  1  0.33135393  0.41687038  0.47665229  1
  O2-  O401  1  0.35159196  0.47748018  0.80176863  1
  O2-  O402  1  0.34634606  0.66732461  0.14853495  1
  O2-  O403  1  0.35205684  0.68190015  0.47068007  1
  O2-  O404  1  0.32831048  0.65315007  0.80188817  1
  O2-  O405  1  0.32533918  0.89870540  0.13485505  1
  O2-  O406  1  0.32270412  0.92088534  0.47911400  1
  O2-  O407  1  0.30719815  0.95843985  0.80249393  1
  O2-  O408  1  0.58975332  0.16588724  0.13462977  1
  O2-  O409  1  0.58962896  0.16947770  0.48441411  1
  O2-  O410  1  0.58491135  0.17027502  0.82122554  1
  O2-  O411  1  0.56270370  0.39307901  0.15573194  1
  O2-  O412  1  0.58890076  0.41268358  0.47386474  1
  O2-  O413  1  0.58108170  0.41696612  0.81423617  1
  O2-  O414  1  0.57593963  0.66486902  0.14401166  1
  O2-  O415  1  0.57425076  0.62299092  0.46757113  1
  O2-  O416  1  0.59202997  0.66094545  0.80947350  1
  O2-  O417  1  0.58467184  0.91309833  0.14494650  1
  O2-  O418  1  0.61392819  0.93803285  0.47621683  1
  O2-  O419  1  0.58108760  0.90754535  0.81642466  1
  O2-  O420  1  0.83217572  0.16850448  0.14206149  1
  O2-  O421  1  0.83047014  0.16561111  0.46960772  1
  O2-  O422  1  0.83566784  0.16772347  0.81320029  1
  O2-  O423  1  0.82452645  0.40537815  0.15458767  1
  O2-  O424  1  0.82660893  0.40582549  0.48303955  1
  O2-  O425  1  0.83886894  0.41388704  0.81238264  1
  O2-  O426  1  0.83992402  0.66436355  0.13659322  1
  O2-  O427  1  0.83782180  0.66461782  0.47727264  1
  O2-  O428  1  0.83474634  0.66893651  0.81480771  1
  O2-  O429  1  0.83134395  0.90402715  0.14225414  1
  O2-  O430  1  0.85067946  0.92018181  0.46617343  1
  O2-  O431  1  0.82633522  0.91006367  0.81155457  1
  O2-  O432  1  0.21390560  0.17603434  0.21105003  1
  O2-  O433  1  0.18602517  0.11044784  0.54954035  1
  O2-  O434  1  0.17294291  0.08309833  0.87020776  1
  O2-  O435  1  0.16916983  0.31803299  0.18609013  1
  O2-  O436  1  0.17108592  0.35292914  0.51568680  1
  O2-  O437  1  0.26901774  0.31468267  0.85196033  1
  O2-  O438  1  0.17698692  0.57081279  0.16254817  1
  O2-  O439  1  0.18441189  0.61281339  0.50483789  1
  O2-  O440  1  0.17413221  0.57187917  0.85620894  1
  O2-  O441  1  0.18886852  0.87970466  0.18642077  1
  O2-  O442  1  0.16064583  0.84894580  0.51720952  1
  O2-  O443  1  0.16514853  0.83138217  0.85926379  1
  O2-  O444  1  0.42351184  0.07356424  0.11135031  1
  O2-  O445  1  0.42547368  0.08155387  0.52763252  1
  O2-  O446  1  0.42455502  0.08157754  0.87641483  1
  O2-  O447  1  0.49542716  0.33101233  0.18721948  1
  O2-  O448  1  0.42288326  0.33481612  0.51764093  1
  O2-  O449  1  0.43349949  0.32192085  0.86216681  1
  O2-  O450  1  0.41310507  0.57360762  0.18405788  1
  O2-  O451  1  0.41257964  0.58190021  0.51883697  1
  O2-  O452  1  0.42484471  0.63633854  0.91611650  1
  O2-  O453  1  0.41845747  0.83079407  0.18781824  1
  O2-  O454  1  0.39797569  0.83519651  0.52735203  1
  O2-  O455  1  0.41487323  0.81887354  0.85317221  1
  O2-  O456  1  0.66595713  0.08133049  0.18277800  1
  O2-  O457  1  0.67194451  0.09096803  0.52558561  1
  O2-  O458  1  0.66697246  0.08204707  0.85035588  1
  O2-  O459  1  0.66065410  0.32402804  0.19101394  1
  O2-  O460  1  0.66588442  0.33049221  0.52333042  1
  O2-  O461  1  0.67702197  0.34137238  0.85418332  1
  O2-  O462  1  0.63765763  0.56973278  0.18828471  1
  O2-  O463  1  0.67778623  0.57286460  0.52098272  1
  O2-  O464  1  0.66614331  0.57824288  0.85419835  1
  O2-  O465  1  0.66730486  0.82962593  0.18531070  1
  O2-  O466  1  0.69575650  0.84629579  0.51491893  1
  O2-  O467  1  0.66271874  0.82596212  0.85578769  1
  O2-  O468  1  0.90479221  0.07109604  0.17752250  1
  O2-  O469  1  0.91264003  0.08620486  0.50564241  1
  O2-  O470  1  0.90819290  0.07885798  0.85421705  1
  O2-  O471  1  0.92219117  0.33115256  0.18288812  1
  O2-  O472  1  0.90885717  0.32069882  0.52611407  1
  O2-  O473  1  0.92618035  0.33943419  0.85449560  1
  O2-  O474  1  0.90567851  0.58280212  0.18023017  1
  O2-  O475  1  0.91160756  0.57562123  0.51362558  1
  O2-  O476  1  0.91745984  0.58293268  0.84763342  1
  O2-  O477  1  0.91416383  0.82213828  0.17983803  1
  O2-  O478  1  0.91191674  0.82554259  0.51691359  1
  O2-  O479  1  0.91122475  0.83185359  0.85707167  1
  O2-  O480  1  0.17919160  0.09406579  0.31833888  1
  O2-  O481  1  0.17726929  0.10329149  0.66922317  1
  O2-  O482  1  0.15919081  0.06263955  0.99058972  1
  O2-  O483  1  0.17945944  0.33538311  0.30843676  1
  O2-  O484  1  0.16810549  0.33291766  0.66509916  1
  O2-  O485  1  0.14143696  0.36153816  0.99281474  1
  O2-  O486  1  0.16372350  0.57052155  0.38665550  1
  O2-  O487  1  0.16904126  0.57590349  0.63533039  1
  O2-  O488  1  0.17664399  0.58058102  0.98157371  1
  O2-  O489  1  0.17024564  0.83192234  0.30793028  1
  O2-  O490  1  0.16019623  0.83527639  0.63908587  1
  O2-  O491  1  0.16683342  0.82075263  0.97739678  1
  O2-  O492  1  0.41140320  0.09114915  0.37439405  1
  O2-  O493  1  0.42168519  0.07982322  0.65285896  1
  O2-  O494  1  0.44120123  0.13140088  0.99379737  1
  O2-  O495  1  0.43556965  0.35424591  0.29573878  1
  O2-  O496  1  0.41373468  0.32678616  0.64730456  1
  O2-  O497  1  0.41359523  0.34723572  0.97220387  1
  O2-  O498  1  0.41629652  0.58219601  0.29944140  1
  O2-  O499  1  0.41165438  0.57870117  0.66386832  1
  O2-  O500  1  0.44232850  0.57364526  0.94582189  1
  O2-  O501  1  0.41811267  0.83156215  0.31108632  1
  O2-  O502  1  0.39119504  0.83195881  0.64126913  1
  O2-  O503  1  0.41632720  0.82807235  0.98270930  1
  O2-  O504  1  0.65527177  0.08599901  0.30839382  1
  O2-  O505  1  0.68088199  0.10664282  0.65199076  1
  O2-  O506  1  0.64295018  0.08127352  0.97481591  1
  O2-  O507  1  0.64188288  0.31738267  0.30539642  1
  O2-  O508  1  0.66834579  0.33794242  0.64700355  1
  O2-  O509  1  0.68585492  0.35804287  0.97717077  1
  O2-  O510  1  0.67306623  0.58687413  0.31253665  1
  O2-  O511  1  0.67706077  0.57517995  0.64565218  1
  O2-  O512  1  0.66294209  0.58190556  0.97991502  1
  O2-  O513  1  0.67095056  0.83553454  0.30885229  1
  O2-  O514  1  0.66424415  0.80212512  0.62553124  1
  O2-  O515  1  0.66240642  0.83049657  0.98139653  1
  O2-  O516  1  0.90859361  0.09713683  0.30400518  1
  O2-  O517  1  0.92168383  0.07792173  0.67076243  1
  O2-  O518  1  0.91578640  0.07960814  0.97862759  1
  O2-  O519  1  0.91302993  0.32365255  0.30685851  1
  O2-  O520  1  0.91948167  0.33052942  0.64863389  1
  O2-  O521  1  0.93285397  0.34027228  0.97402751  1
  O2-  O522  1  0.95149263  0.65055023  0.28537475  1
  O2-  O523  1  0.91724220  0.56633107  0.63201934  1
  O2-  O524  1  0.91636415  0.60383490  0.97288793  1
  O2-  O525  1  0.91968782  0.83732918  0.30128129  1
  O2-  O526  1  0.91176325  0.84832580  0.63858619  1
  O2-  O527  1  0.91514250  0.83462391  0.97981191  1
  O2-  O528  1  0.07516543  0.14955293  0.02750248  1
  O2-  O529  1  0.10154707  0.17340073  0.36619860  1
  O2-  O530  1  0.09891621  0.18143405  0.70274625  1
  O2-  O531  1  0.10701803  0.41357938  0.01824799  1
  O2-  O532  1  0.07702629  0.40276498  0.35384260  1
  O2-  O533  1  0.08016878  0.42298983  0.69472145  1
  O2-  O534  1  0.08156073  0.65602502  0.00955366  1
  O2-  O535  1  0.08744143  0.67391828  0.35867303  1
  O2-  O536  1  0.09232840  0.67155723  0.67294424  1
  O2-  O537  1  0.07202241  0.90263787  0.02136363  1
  O2-  O538  1  0.09006878  0.92056492  0.33805091  1
  O2-  O539  1  0.03658127  0.85047188  0.70201595  1
  O2-  O540  1  0.32221590  0.17904450  0.02171138  1
  O2-  O541  1  0.34265880  0.19888654  0.35171498  1
  O2-  O542  1  0.30832890  0.09232672  0.73032967  1
  O2-  O543  1  0.32369648  0.42532584  0.00775170  1
  O2-  O544  1  0.34841332  0.43132992  0.32597944  1
  O2-  O545  1  0.33508514  0.40631749  0.69149293  1
  O2-  O546  1  0.34432394  0.66801030  0.03104394  1
  O2-  O547  1  0.33898288  0.66227956  0.34838519  1
  O2-  O548  1  0.32925145  0.67797173  0.67674171  1
  O2-  O549  1  0.31285513  0.88051310  0.02141610  1
  O2-  O550  1  0.33466163  0.91738857  0.35401403  1
  O2-  O551  1  0.31900639  0.91234598  0.68399515  1
  O2-  O552  1  0.61163490  0.19576838  0.01738442  1
  O2-  O553  1  0.58097193  0.17093406  0.35856943  1
  O2-  O554  1  0.58463782  0.17629470  0.69565726  1
  O2-  O555  1  0.57249925  0.41552315  0.02197794  1
  O2-  O556  1  0.59112064  0.41590549  0.35213697  1
  O2-  O557  1  0.58291252  0.41213135  0.69057429  1
  O2-  O558  1  0.57774456  0.66340341  0.01784567  1
  O2-  O559  1  0.58631224  0.66907863  0.34892150  1
  O2-  O560  1  0.58315566  0.64639529  0.68475906  1
  O2-  O561  1  0.58143892  0.91472929  0.01913766  1
  O2-  O562  1  0.58601167  0.91927568  0.34930761  1
  O2-  O563  1  0.63486953  0.93729162  0.69135026  1
  O2-  O564  1  0.85484083  0.18557055  0.01535768  1
  O2-  O565  1  0.82082541  0.16463686  0.34744558  1
  O2-  O566  1  0.84209937  0.16924086  0.69102081  1
  O2-  O567  1  0.84494033  0.41188559  0.03710374  1
  O2-  O568  1  0.84212989  0.42914971  0.35142772  1
  O2-  O569  1  0.83283762  0.40848667  0.68714435  1
  O2-  O570  1  0.83300896  0.66877072  0.02211332  1
  O2-  O571  1  0.83739621  0.67430716  0.35435256  1
  O2-  O572  1  0.83539646  0.68696951  0.69533760  1
  O2-  O573  1  0.82861848  0.91105246  0.01802332  1
  O2-  O574  1  0.83968782  0.92292178  0.34185267  1
  O2-  O575  1  0.80741095  0.91164320  0.68377337  1
