# generated using pymatgen
data_H2O
_symmetry_space_group_name_H-M   'P 1'
_cell_length_a   17.98761562
_cell_length_b   17.98346258
_cell_length_c   22.00608627
_cell_angle_alpha   90.01404280
_cell_angle_beta   89.98078024
_cell_angle_gamma   120.00855437
_symmetry_Int_Tables_number   1
_chemical_formula_structural   H2O
_chemical_formula_sum   'H384 O192'
_cell_volume   6164.28753752
_cell_formula_units_Z   192
loop_
 _symmetry_equiv_pos_site_id
 _symmetry_equiv_pos_as_xyz
  1  'x, y, z'
loop_
 _atom_type_symbol
 _atom_type_oxidation_number
  H+  1.0
  O2-  -2.0
loop_
 _atom_site_type_symbol
 _atom_site_label
 _atom_site_symmetry_multiplicity
 _atom_site_fract_x
 _atom_site_fract_y
 _atom_site_fract_z
 _atom_site_occupancy
  H+  H0  1  0.11633286  0.38412358  0.50500729  1
  H+  H1  1  0.36878290  0.39413763  0.31231268  1
  H+  H2  1  0.35908992  0.87007769  0.82832809  1
  H+  H3  1  0.22550857  0.87016500  0.16256334  1
  H+  H4  1  0.61468645  -0.05124430  1.00660884  1
  H+  H5  1  0.88973584  0.60212061  0.51320195  1
  H+  H6  1  0.34402473  0.66611772  0.40725688  1
  H+  H7  1  0.85708590  0.22170152  0.18430444  1
  H+  H8  1  0.12696373  0.84577569  0.31763397  1
  H+  H9  1  0.63148976  0.36333264  0.33013448  1
  H+  H10  1  0.50858804  0.10824857  0.99957492  1
  H+  H11  1  0.48438702  0.37161120  0.17535884  1
  H+  H12  1  1.01481375  0.88792856  0.14916244  1
  H+  H13  1  0.88664835  0.35592365  0.20571453  1
  H+  H14  1  0.08888751  0.64001415  0.02313200  1
  H+  H15  1  0.74826435  0.63451320  0.98047129  1
  H+  H16  1  0.37397344  0.76908913  0.33037119  1
  H+  H17  1  0.97695255  0.60156677  0.51077418  1
  H+  H18  1  0.86058569  0.66690967  0.03381825  1
  H+  H19  1  0.72876595  0.60619935  0.34605521  1
  H+  H20  1  0.04004507  0.16653108  0.49409508  1
  H+  H21  1  0.01784865  0.13384546  0.83092584  1
  H+  H22  1  0.87681015  0.60449122  0.34399001  1
  H+  H23  1  0.12259372  0.21790749  0.68075147  1
  H+  H24  1  0.13484835  0.76961661  0.84445010  1
  H+  H25  1  0.61472303  0.39658862  0.82478826  1
  H+  H26  1  0.76765558  1.02073769  0.46039975  1
  H+  H27  1  0.62450729  0.22892442  0.16602150  1
  H+  H28  1  0.64312489  0.61432671  0.98804646  1
  H+  H29  1  0.27880184  0.13861147  0.34217184  1
  H+  H30  1  0.12949398  0.34335521  1.00175680  1
  H+  H31  1  0.48190991  0.62209079  0.32720529  1
  H+  H32  1  0.37002435  0.37392794  0.67737529  1
  H+  H33  1  0.15371680  0.90745967  0.00764917  1
  H+  H34  1  0.10540374  0.70758857  0.33783924  1
  H+  H35  1  0.36761993  0.85445803  0.32644975  1
  H+  H36  1  0.16158130  0.07006437  0.56474073  1
  H+  H37  1  0.11307873  0.87961332  0.67520863  1
  H+  H38  1  0.13748500  0.60260444  0.34067351  1
  H+  H39  1  0.61949749  0.64714691  0.34556156  1
  H+  H40  1  0.22829859  0.86269170  0.66373000  1
  H+  H41  1  -0.01240163  0.87075880  0.83794044  1
  H+  H42  1  -0.02933034  0.11193081  0.16978058  1
  H+  H43  1  0.24542934  0.35623224  0.67041132  1
  H+  H44  1  0.03367393  0.90109681  0.33135747  1
  H+  H45  1  0.61463732  0.47611028  0.49275427  1
  H+  H46  1  -0.03627173  0.96854381  0.28949067  1
  H+  H47  1  0.88334840  1.02045640  0.83553640  1
  H+  H48  1  0.64356600  0.14214904  0.83463782  1
  H+  H49  1  0.97298928  0.35819113  0.19411263  1
  H+  H50  1  0.10742763  0.22395398  0.83165236  1
  H+  H51  1  0.28500745  0.88352134  1.00748519  1
  H+  H52  1  0.62159374  0.48192406  0.17188421  1
  H+  H53  1  0.63208496  0.27369598  0.33050035  1
  H+  H54  1  0.61046442  0.74559214  0.67707460  1
  H+  H55  1  0.77976080  0.63584528  0.50287874  1
  H+  H56  1  0.48390334  0.12250850  0.32538138  1
  H+  H57  1  0.77704795  0.88259405  0.82205627  1
  H+  H58  1  0.46349558  0.60165175  0.83103970  1
  H+  H59  1  0.61666122  0.97760897  0.66986607  1
  H+  H60  1  0.64046447  0.61853085  0.82980074  1
  H+  H61  1  0.87939513  0.97816453  0.67237912  1
  H+  H62  1  0.23321282  0.61257782  0.34467358  1
  H+  H63  1  0.38388359  0.10835793  0.66701291  1
  H+  H64  1  0.87065214  0.22813503  0.81865543  1
  H+  H65  1  0.13540536  0.26112033  0.99290486  1
  H+  H66  1  0.35160618  0.47406015  0.82730572  1
  H+  H67  1  0.39345615  0.26234781  0.66840417  1
  H+  H68  1  0.12294003  0.13929938  0.34494672  1
  H+  H69  1  0.74776259  0.12125485  0.17334152  1
  H+  H70  1  0.35392710  0.72432008  0.67356979  1
  H+  H71  1  0.11428863  0.38998907  0.82614051  1
  H+  H72  1  0.88761206  0.36655460  0.97909468  1
  H+  H73  1  0.36954004  0.12878796  0.14170623  1
  H+  H74  1  0.36169440  0.97410507  0.67890538  1
  H+  H75  1  0.64119448  0.36496854  0.50484232  1
  H+  H76  1  0.73142242  0.36557738  0.18566997  1
  H+  H77  1  0.93299371  0.20299145  0.50469329  1
  H+  H78  1  0.60631603  0.22756490  0.49475382  1
  H+  H79  1  0.72741672  0.08410423  0.98379408  1
  H+  H80  1  0.65667551  0.87632201  0.66148333  1
  H+  H81  1  0.16813710  0.81986462  0.93731671  1
  H+  H82  1  0.51151479  0.60935524  0.00155795  1
  H+  H83  1  0.12634760  0.76773114  1.00017908  1
  H+  H84  1  0.37872997  0.96976611  0.00780704  1
  H+  H85  1  0.36270413  0.72264087  0.82761380  1
  H+  H86  1  0.42191535  0.11069610  0.99394452  1
  H+  H87  1  0.35777404  0.12780770  0.49611805  1
  H+  H88  1  0.86377912  0.46666471  0.50033246  1
  H+  H89  1  0.58034239  0.41438526  0.40114701  1
  H+  H90  1  0.38494175  0.47753812  0.53513253  1
  H+  H91  1  0.10187695  0.88033921  0.14996339  1
  H+  H92  1  0.89010948  0.87370170  0.66220699  1
  H+  H93  1  -0.01352811  0.86631968  0.66642499  1
  H+  H94  1  0.66520923  0.84404754  0.26187183  1
  H+  H95  1  0.09598782  0.39832418  0.64946562  1
  H+  H96  1  0.38538169  0.35483107  0.99671436  1
  H+  H97  1  0.36270641  0.24144712  0.82703320  1
  H+  H98  1  0.27127784  0.37835439  0.00730110  1
  H+  H99  1  0.27731729  0.11897023  0.14027124  1
  H+  H100  1  0.13603715  0.48577530  0.35507679  1
  H+  H101  1  0.12862640  0.38532966  0.34984546  1
  H+  H102  1  0.84946502  0.97159103  0.15612099  1
  H+  H103  1  0.23972620  0.60760524  0.18931887  1
  H+  H104  1  0.26163483  0.55474341  0.04750143  1
  H+  H105  1  0.13251704  0.11085539  0.83734080  1
  H+  H106  1  0.63369939  0.52690071  0.33830426  1
  H+  H107  1  0.86367410  0.48355095  0.97230574  1
  H+  H108  1  0.20992464  0.83645883  0.31229535  1
  H+  H109  1  -0.02138807  0.36671273  0.82992340  1
  H+  H110  1  0.86017421  0.21517400  0.66826501  1
  H+  H111  1  0.61068617  0.22510879  0.66569530  1
  H+  H112  1  0.02778575  0.63633122  0.69031542  1
  H+  H113  1  -0.11055941  0.50723578  0.69591646  1
  H+  H114  1  0.65625991  0.08561564  0.26879405  1
  H+  H115  1  0.87498198  0.48735588  0.17848997  1
  H+  H116  1  0.36869767  0.89160593  0.16091023  1
  H+  H117  1  0.85786428  0.13162109  0.17467880  1
  H+  H118  1  0.47318291  0.10931530  0.66136546  1
  H+  H119  1  0.30667793  0.09683054  -0.01756333  1
  H+  H120  1  0.39310151  0.53266488  0.31383215  1
  H+  H121  1  0.14174963  0.52051726  0.50989716  1
  H+  H122  1  0.71265723  0.12006219  0.49927320  1
  H+  H123  1  0.22481558  0.61633960  0.66147400  1
  H+  H124  1  0.36562264  0.87963277  0.49840760  1
  H+  H125  1  0.26715087  0.63272998  1.01188355  1
  H+  H126  1  0.39717345  1.02711133  0.16927043  1
  H+  H127  1  0.37922533  0.61218352  0.83652323  1
  H+  H128  1  0.62232152  0.39347090  0.16751163  1
  H+  H129  1  0.22048044  0.10171963  0.50553326  1
  H+  H130  1  0.92016233  0.07533851  0.23112429  1
  H+  H131  1  0.58252660  0.17032370  0.75870839  1
  H+  H132  1  0.63511665  0.61558967  0.19388626  1
  H+  H133  1  0.22705813  0.85582087  0.84453839  1
  H+  H134  1  -0.00508375  0.10310611  0.32645578  1
  H+  H135  1  0.38043649  0.59832048  0.99265718  1
  H+  H136  1  0.11310426  0.14027373  0.16201019  1
  H+  H137  1  0.52481638  0.38089745  0.67446991  1
  H+  H138  1  0.52844853  0.38287287  0.49759436  1
  H+  H139  1  0.88522210  0.35769123  0.35123032  1
  H+  H140  1  0.83402132  0.65116211  0.44119442  1
  H+  H141  1  0.63910079  0.79174157  0.18372865  1
  H+  H142  1  0.89183210  0.35340703  0.50434360  1
  H+  H143  1  0.14150666  0.76774171  0.50829172  1
  H+  H144  1  0.11803291  0.46654621  -0.03056744  1
  H+  H145  1  0.63050044  0.86828545  0.51838280  1
  H+  H146  1  0.96554380  0.35999966  0.66393551  1
  H+  H147  1  0.13513332  0.61630931  0.66006574  1
  H+  H148  1  -0.03285865  0.10278207  -0.00773950  1
  H+  H149  1  0.47873891  0.85646989  0.83901302  1
  H+  H150  1  0.39873613  0.35647881  0.52579336  1
  H+  H151  1  0.60585729  0.23266583  0.81735725  1
  H+  H152  1  0.71559086  0.86471478  0.32613725  1
  H+  H153  1  0.88232038  0.10936808  0.83691391  1
  H+  H154  1  0.61871010  1.02096273  0.32434106  1
  H+  H155  1  0.27996976  0.39394401  0.31549223  1
  H+  H156  1  0.87234025  0.73823331  0.82868857  1
  H+  H157  1  0.89748458  0.87089587  0.83534455  1
  H+  H158  1  0.92305675  0.56696097  0.75474724  1
  H+  H159  1  0.39177272  0.26983953  -0.01328202  1
  H+  H160  1  0.39006557  0.27716584  0.32615621  1
  H+  H161  1  0.17021718  0.83230149  0.60308890  1
  H+  H162  1  0.13746026  0.53046793  0.84898690  1
  H+  H163  1  0.62125271  0.23125050  0.00435197  1
  H+  H164  1  0.52168627  0.38787402  0.34037774  1
  H+  H165  1  0.08960511  0.48252053  0.98166505  1
  H+  H166  1  0.76818095  0.38934426  0.34417707  1
  H+  H167  1  0.01985880  0.63122371  0.82539810  1
  H+  H168  1  0.60730446  0.13613353  0.33819623  1
  H+  H169  1  0.22289571  0.13295553  0.98589594  1
  H+  H170  1  0.82208055  0.90833888  0.06623164  1
  H+  H171  1  0.60658427  0.85832828  1.01385620  1
  H+  H172  1  0.48507392  0.87002124  0.17595818  1
  H+  H173  1  0.27640809  0.87985886  0.49849466  1
  H+  H174  1  0.85827125  0.13436006  0.99710819  1
  H+  H175  1  0.63009049  0.74391529  0.49454094  1
  H+  H176  1  0.11253232  0.49012786  0.66802983  1
  H+  H177  1  0.33803391  0.40654469  0.73489272  1
  H+  H178  1  0.14027899  0.00047582  0.17550920  1
  H+  H179  1  0.87353204  0.86924282  0.16446314  1
  H+  H180  1  0.27040966  0.63687100  0.83029766  1
  H+  H181  1  0.96489754  0.34774364  0.99259131  1
  H+  H182  1  1.02409370  0.38129790  0.49880892  1
  H+  H183  1  0.82213568  0.98524277  0.43314754  1
  H+  H184  1  0.36201309  0.48016842  0.16233570  1
  H+  H185  1  0.14353739  0.02212579  0.33432199  1
  H+  H186  1  0.52809135  0.38658717  0.01197421  1
  H+  H187  1  0.42433084  0.33502208  0.26486930  1
  H+  H188  1  0.51199895  0.88628366  0.33025786  1
  H+  H189  1  0.15330275  0.03414126  0.99279587  1
  H+  H190  1  0.85358739  -0.03349301  1.00559935  1
  H+  H191  1  0.51004327  0.63359211  0.51549811  1
  H+  H192  1  0.21548021  0.71481535  0.97319051  1
  H+  H193  1  0.27946153  0.94245440  0.36556090  1
  H+  H194  1  0.08557406  0.91023281  0.73640421  1
  H+  H195  1  0.89594619  0.02909880  0.32956296  1
  H+  H196  1  0.11393468  0.13897474  0.49724033  1
  H+  H197  1  0.75436105  0.88519613  0.16417093  1
  H+  H198  1  0.61183391  0.13583001  0.66748191  1
  H+  H199  1  0.47859428  0.86301515  0.66372073  1
  H+  H200  1  0.39366247  0.62160902  0.17362245  1
  H+  H201  1  1.00153564  0.62911799  0.99937974  1
  H+  H202  1  0.62381733  0.49014676  0.82682479  1
  H+  H203  1  0.29204481  0.39452082  0.52967256  1
  H+  H204  1  0.52326280  0.66287576  0.65832827  1
  H+  H205  1  0.11491642  0.49120813  0.17028110  1
  H+  H206  1  0.03024170  0.87210800  0.49356341  1
  H+  H207  1  0.22960303  0.36736800  0.17420595  1
  H+  H208  1  0.87230750  0.34844125  0.66242413  1
  H+  H209  1  0.71357044  0.60322411  0.65261951  1
  H+  H210  1  0.22116237  0.36034837  0.84066064  1
  H+  H211  1  0.13790069  0.01455369  0.66380512  1
  H+  H212  1  0.64187681  0.75306916  -0.00599547  1
  H+  H213  1  0.72843259  0.35947974  0.50700697  1
  H+  H214  1  0.12170697  -0.02145484  0.82745499  1
  H+  H215  1  0.33337297  0.16256678  0.43637763  1
  H+  H216  1  0.71886590  0.36505445  -0.02480616  1
  H+  H217  1  0.61435810  0.73426564  0.33714998  1
  H+  H218  1  0.56220609  0.64752857  0.74910258  1
  H+  H219  1  0.35976592  0.38978904  0.83184536  1
  H+  H220  1  0.11302317  0.96628278  0.49063904  1
  H+  H221  1  0.52340291  0.64126321  0.16747239  1
  H+  H222  1  0.37126314  0.73498224  0.16300343  1
  H+  H223  1  0.37030646  0.64246231  0.34285399  1
  H+  H224  1  0.62386015  0.11710166  0.50557490  1
  H+  H225  1  0.78970654  0.81554834  0.48763863  1
  H+  H226  1  0.63471843  0.36242182  0.65850063  1
  H+  H227  1  0.36925777  0.14159130  0.33896165  1
  H+  H228  1  0.38698584  0.76713522  0.51384233  1
  H+  H229  1  0.62400159  0.89272736  0.83031976  1
  H+  H230  1  -0.14094286  0.47778497  0.34481154  1
  H+  H231  1  0.59084980  0.41776829  1.06902113  1
  H+  H232  1  0.83060020  0.41107012  0.43942246  1
  H+  H233  1  0.41278280  0.57909158  0.92900694  1
  H+  H234  1  0.11448312  0.72790472  0.67635033  1
  H+  H235  1  0.85822791  0.47181531  0.82266746  1
  H+  H236  1  0.36039377  0.46685388  0.00288199  1
  H+  H237  1  0.88471690  0.86048110  0.99214053  1
  H+  H238  1  0.70927023  0.17275738  0.88886246  1
  H+  H239  1  0.12090533  0.88802900  0.83144120  1
  H+  H240  1  0.87694155  0.74475871  -0.01381585  1
  H+  H241  1  0.89401270  0.74982983  0.51355132  1
  H+  H242  1  0.63118596  0.36453882  0.99043354  1
  H+  H243  1  0.61973589  0.97864059  0.82988503  1
  H+  H244  1  0.98169318  0.10521053  0.67121109  1
  H+  H245  1  0.48233257  0.38061057  0.84012847  1
  H+  H246  1  0.87808621  0.78355222  0.17830274  1
  H+  H247  1  0.77826946  0.14610965  0.82250466  1
  H+  H248  1  0.12109914  0.63449539  0.49593667  1
  H+  H249  1  0.72568240  0.89007134  0.51013890  1
  H+  H250  1  0.87841667  0.62224768  0.17823813  1
  H+  H251  1  0.00800784  0.28170328  0.06370121  1
  H+  H252  1  0.13429647  0.61762489  0.84393843  1
  H+  H253  1  0.72462385  0.10960239  0.65646903  1
  H+  H254  1  0.64188815  0.11341182  0.16660052  1
  H+  H255  1  0.71719890  0.36333668  0.83592836  1
  H+  H256  1  0.10400642  0.12872044  0.00442243  1
  H+  H257  1  0.11563384  0.93695218  0.06243903  1
  H+  H258  1  0.62538493  0.51888704  0.65062932  1
  H+  H259  1  0.37570633  0.63736260  0.50290360  1
  H+  H260  1  0.39468635  0.36893069  0.17684470  1
  H+  H261  1  0.88668462  0.61122132  0.95650374  1
  H+  H262  1  0.57737577  0.16688295  0.39859340  1
  H+  H263  1  0.14031349  0.36569252  0.17441292  1
  H+  H264  1  0.48316469  0.09631941  0.83989820  1
  H+  H265  1  0.75858735  0.63708733  0.18524347  1
  H+  H266  1  0.27530791  0.13039814  0.67996790  1
  H+  H267  1  0.82665415  0.85677943  0.47512549  1
  H+  H268  1  0.85501349  0.38031173  0.82645022  1
  H+  H269  1  0.39625316  1.03287079  0.32503708  1
  H+  H270  1  0.15880035  0.35517240  0.68723606  1
  H+  H271  1  0.86443119  0.89472665  0.33472096  1
  H+  H272  1  0.39307363  0.26563387  0.51112473  1
  H+  H273  1  0.64514063  0.61740951  0.50101784  1
  H+  H274  1  0.63994968  0.01713005  0.16696485  1
  H+  H275  1  0.39020534  0.86582413  0.66643411  1
  H+  H276  1  0.63465890  0.77378046  0.83612013  1
  H+  H277  1  0.89841758  0.10371949  0.50310557  1
  H+  H278  1  0.13876043  0.10351269  0.66569721  1
  H+  H279  1  0.90285949  0.84296167  0.51462185  1
  H+  H280  1  0.84518540  0.59403852  0.70176245  1
  H+  H281  1  0.14279300  0.85755423  0.50491503  1
  H+  H282  1  0.15021150  0.28206427  0.51618696  1
  H+  H283  1  0.53523968  0.14038172  0.16050439  1
  H+  H284  1  0.53072019  0.55380433  0.77442162  1
  H+  H285  1  0.33175465  0.91153636  0.73771539  1
  H+  H286  1  0.85144321  0.21874225  -0.01115056  1
  H+  H287  1  0.62588459  0.89270377  0.16976083  1
  H+  H288  1  0.80385923  0.66619791  0.12159144  1
  H+  H289  1  0.41662499  0.83615080  0.23128065  1
  H+  H290  1  0.33435729  0.16774109  0.74068907  1
  H+  H291  1  0.92023195  0.33231055  0.88926336  1
  H+  H292  1  0.03575324  0.47204143  0.12898687  1
  H+  H293  1  0.60512183  0.97524413  0.50794389  1
  H+  H294  1  0.90878633  0.07296754  0.93245563  1
  H+  H295  1  0.81561933  0.39422072  0.73653571  1
  H+  H296  1  0.09906317  0.41603282  0.41804843  1
  H+  H297  1  0.47924246  0.84714605  0.99188466  1
  H+  H298  1  0.13401252  0.26948837  0.33037267  1
  H+  H299  1  0.55555638  0.59387363  0.05865852  1
  H+  H300  1  0.59481400  0.68410406  0.43409587  1
  H+  H301  1  0.60160185  0.88857280  0.32973334  1
  H+  H302  1  0.15675857  0.32915475  0.27065982  1
  H+  H303  1  -0.00276032  0.64194316  0.12145134  1
  H+  H304  1  0.66274720  0.58014345  0.56178577  1
  H+  H305  1  0.08270926  0.90604284  0.39437291  1
  H+  H306  1  0.05568846  0.37886110  0.08409478  1
  H+  H307  1  0.22428035  0.02548135  0.21164504  1
  H+  H308  1  0.07665114  0.15958922  0.06465934  1
  H+  H309  1  0.09212017  0.17089432  0.40350804  1
  H+  H310  1  0.16199558  0.33104135  0.90027496  1
  H+  H311  1  0.51527350  0.13820362  0.49643368  1
  H+  H312  1  0.58900252  0.91355344  0.10673736  1
  H+  H313  1  0.15506792  0.82300939  0.21363825  1
  H+  H314  1  0.83744844  0.91231240  0.76260257  1
  H+  H315  1  0.38544504  1.01740178  0.51151467  1
  H+  H316  1  0.92082490  0.57549606  0.90066939  1
  H+  H317  1  0.39475338  0.85375299  -0.00889961  1
  H+  H318  1  0.51891832  0.88337158  0.50969326  1
  H+  H319  1  0.42199386  0.82482770  0.90041797  1
  H+  H320  1  0.33416181  0.14357596  0.04852330  1
  H+  H321  1  0.09065773  0.42482258  0.76632071  1
  H+  H322  1  0.42505660  0.34662291  0.90091062  1
  H+  H323  1  0.67969908  0.60457979  0.91694585  1
  H+  H324  1  0.82803028  0.43240886  0.03370278  1
  H+  H325  1  0.16384779  0.08372328  0.89614906  1
  H+  H326  1  0.44036646  0.06228017  0.90487374  1
  H+  H327  1  0.32340170  0.46982215  0.42350397  1
  H+  H328  1  0.91732826  0.31934550  0.30196105  1
  H+  H329  1  0.66484440  0.33233538  0.24024047  1
  H+  H330  1  0.34187038  0.91943532  0.10005384  1
  H+  H331  1  0.36667918  0.96154933  0.83286979  1
  H+  H332  1  0.66324936  0.08480463  0.59800963  1
  H+  H333  1  0.65413750  0.05188809  0.93362883  1
  H+  H334  1  0.78152111  0.55387831  0.39414715  1
  H+  H335  1  0.33246281  0.91853226  0.40947483  1
  H+  H336  1  0.41162823  0.82711462  0.57349227  1
  H+  H337  1  0.18007668  0.57171414  0.24960740  1
  H+  H338  1  0.89006316  0.10144389  0.66611701  1
  H+  H339  1  0.33192583  0.41880334  0.10344427  1
  H+  H340  1  0.65134468  0.33284423  0.89236837  1
  H+  H341  1  0.92607971  0.82748069  0.60370676  1
  H+  H342  1  0.83001410  0.15697135  0.72738718  1
  H+  H343  1  0.23446570  0.24025132  0.59391813  1
  H+  H344  1  0.89054323  0.60672829  0.82884271  1
  H+  H345  1  0.17132961  0.58372281  0.56725926  1
  H+  H346  1  0.68162483  0.84326854  0.60180453  1
  H+  H347  1  0.72784779  0.84562836  0.99416721  1
  H+  H348  1  0.78705134  0.88566127  0.66737211  1
  H+  H349  1  0.31225864  0.42387656  0.42025120  1
  H+  H350  1  0.08715823  0.66116420  0.43742081  1
  H+  H351  1  0.09257628  0.67122505  0.77322825  1
  H+  H352  1  0.66473253  0.33346393  0.59776317  1
  H+  H353  1  0.33161945  0.66422325  0.10881329  1
  H+  H354  1  0.59863866  0.69305495  0.11841711  1
  H+  H355  1  0.91911314  0.32807313  0.56572252  1
  H+  H356  1  0.42415405  0.59242978  0.23237919  1
  H+  H357  1  0.93588044  0.88256033  0.25138889  1
  H+  H358  1  0.16914832  0.33228455  0.57971431  1
  H+  H359  1  0.42469427  0.09017582  0.22686516  1
  H+  H360  1  0.17270502  0.07642001  0.27392566  1
  H+  H361  1  0.18209200  0.62838948  0.93620964  1
  H+  H362  1  0.26845159  0.22861201  0.58940294  1
  H+  H363  1  0.76408675  0.37590715  0.67288422  1
  H+  H364  1  0.32167090  0.66406258  0.73181815  1
  H+  H365  1  0.27530517  0.15063980  0.82814090  1
  H+  H366  1  0.91521678  0.59336979  0.27825922  1
  H+  H367  1  0.66674295  0.58730630  0.25486983  1
  H+  H368  1  0.42660705  0.31949204  0.60729203  1
  H+  H369  1  0.74038768  0.63496825  0.83817965  1
  H+  H370  1  0.41053108  0.07737739  0.57075287  1
  H+  H371  1  0.58755093  0.42237143  0.73145366  1
  H+  H372  1  0.85756184  0.41619892  0.13006128  1
  H+  H373  1  0.66833567  0.82079294  0.89972606  1
  H+  H374  1  0.11554984  0.22955044  0.16071371  1
  H+  H375  1  0.81231384  0.86535092  0.39539881  1
  H+  H376  1  0.82973449  0.66494764  0.77503780  1
  H+  H377  1  0.59300707  0.92044519  0.73011411  1
  H+  H378  1  0.08738906  0.15891116  0.73974268  1
  H+  H379  1  0.92230317  0.84225216  0.93040224  1
  H+  H380  1  0.60423410  0.17784714  0.06582441  1
  H+  H381  1  0.28272268  0.62962162  0.50120904  1
  H+  H382  1  0.01692830  0.62200544  0.34590147  1
  H+  H383  1  0.74987585  0.54916011  0.72325510  1
  O2-  O384  1  0.08329090  0.16867466  0.14561827  1
  O2-  O385  1  0.09917229  0.18105775  0.47990067  1
  O2-  O386  1  0.07907937  0.16326630  0.81684847  1
  O2-  O387  1  0.06370955  0.44212095  0.14601544  1
  O2-  O388  1  0.08722420  0.41318494  0.48519848  1
  O2-  O389  1  0.08678627  0.42316178  0.81118625  1
  O2-  O390  1  -0.00037319  0.65227903  0.16586978  1
  O2-  O391  1  0.09058544  0.66535757  0.48272044  1
  O2-  O392  1  0.08507340  0.66710140  0.81835828  1
  O2-  O393  1  0.07638883  0.91681354  0.13664619  1
  O2-  O394  1  0.08752572  0.90647518  0.47378415  1
  O2-  O395  1  0.09098145  0.91713075  0.81327736  1
  O2-  O396  1  0.33215291  0.14469964  0.11826291  1
  O2-  O397  1  0.32787946  0.15883828  0.48164727  1
  O2-  O398  1  0.33448917  0.18175017  0.81167363  1
  O2-  O399  1  0.32836679  0.41913030  0.14859618  1
  O2-  O400  1  0.35422838  0.41522399  0.52849600  1
  O2-  O401  1  0.32351394  0.41263989  0.81432088  1
  O2-  O402  1  0.33969736  0.67174180  0.15335131  1
  O2-  O403  1  0.34287414  0.66286767  0.48528860  1
  O2-  O404  1  0.32937520  0.66156126  0.81284051  1
  O2-  O405  1  0.33987230  0.92316618  0.14556583  1
  O2-  O406  1  0.33687066  0.91182973  0.48265897  1
  O2-  O407  1  0.32913816  0.90160101  0.81537361  1
  O2-  O408  1  0.59727959  0.16972539  0.14830114  1
  O2-  O409  1  0.57458688  0.16707424  0.47900032  1
  O2-  O410  1  0.58398178  0.17188775  0.80436799  1
  O2-  O411  1  0.59447842  0.42532768  0.15107813  1
  O2-  O412  1  0.58704740  0.41489296  0.47870205  1
  O2-  O413  1  0.58803663  0.43139704  0.81040065  1
  O2-  O414  1  0.58770695  0.67045963  0.15963255  1
  O2-  O415  1  0.60022741  0.68315419  0.47959877  1
  O2-  O416  1  0.55687583  0.61299645  0.78880617  1
  O2-  O417  1  0.59244221  0.92390628  0.15159310  1
  O2-  O418  1  0.58134770  0.91333121  0.50012574  1
  O2-  O419  1  0.59259720  0.92054627  0.81321781  1
  O2-  O420  1  0.82603749  0.16321171  0.16491844  1
  O2-  O421  1  0.81049059  0.16782275  0.44320585  1
  O2-  O422  1  0.83712844  0.16610929  0.80629119  1
  O2-  O423  1  0.84846361  0.42360405  0.17265797  1
  O2-  O424  1  0.83131950  0.40573198  0.48472845  1
  O2-  O425  1  0.82113350  0.40756385  0.81316693  1
  O2-  O426  1  0.81829664  0.66879069  0.16446517  1
  O2-  O427  1  0.84082872  0.66454163  0.48858553  1
  O2-  O428  1  0.83539141  0.67511695  0.81978076  1
  O2-  O429  1  0.81642956  0.91093390  0.14275225  1
  O2-  O430  1  0.80499109  0.99809672  0.47223206  1
  O2-  O431  1  0.83757829  0.91509683  0.80796685  1
  O2-  O432  1  0.18866207  0.04978284  0.19935550  1
  O2-  O433  1  0.15912464  0.06980662  0.51940569  1
  O2-  O434  1  0.16532168  0.08233244  0.85088824  1
  O2-  O435  1  0.16712416  0.33305188  0.18806938  1
  O2-  O436  1  0.17256682  0.34012403  0.53482615  1
  O2-  O437  1  0.15980800  0.33128213  0.85502999  1
  O2-  O438  1  0.18132675  0.56641319  0.20473988  1
  O2-  O439  1  0.17522215  0.58233231  0.52175310  1
  O2-  O440  1  0.16747928  0.59133243  0.86240633  1
  O2-  O441  1  0.16289822  0.84124500  0.17080471  1
  O2-  O442  1  0.17247510  0.82881109  0.52360167  1
  O2-  O443  1  0.16684716  0.82983424  0.86087053  1
  O2-  O444  1  0.42798353  0.08930849  0.18164618  1
  O2-  O445  1  0.41164918  0.07836481  0.52509397  1
  O2-  O446  1  0.42928931  0.05511515  0.86052756  1
  O2-  O447  1  0.42527529  0.34009763  0.19212736  1
  O2-  O448  1  0.42990556  0.32305009  0.53001332  1
  O2-  O449  1  0.42226144  0.35088640  0.85572370  1
  O2-  O450  1  0.42311408  0.58920508  0.18658576  1
  O2-  O451  1  0.44897629  0.60071889  0.53345100  1
  O2-  O452  1  0.40796121  0.57981219  0.85263683  1
  O2-  O453  1  0.42219922  0.83849733  0.18610750  1
  O2-  O454  1  0.41166564  0.82775480  0.52783562  1
  O2-  O455  1  0.41896604  0.82357913  0.85396845  1
  O2-  O456  1  0.67208729  0.08178775  0.18162708  1
  O2-  O457  1  0.65767193  0.08991617  0.52093274  1
  O2-  O458  1  0.68384825  0.12756373  0.85822825  1
  O2-  O459  1  0.66917816  0.33339015  0.19423730  1
  O2-  O460  1  0.66677824  0.33086197  0.52148567  1
  O2-  O461  1  0.65468116  0.33593398  0.84658216  1
  O2-  O462  1  0.66613774  0.58609805  0.20832158  1
  O2-  O463  1  0.66938593  0.58174877  0.51589140  1
  O2-  O464  1  0.67767438  0.60157914  0.85306439  1
  O2-  O465  1  0.67205303  0.85321240  0.19320732  1
  O2-  O466  1  0.67117339  0.84444832  0.52722692  1
  O2-  O467  1  0.66989335  0.83022227  0.85443099  1
  O2-  O468  1  0.91183048  0.08154895  0.18683788  1
  O2-  O469  1  0.94811067  0.15920289  0.51486141  1
  O2-  O470  1  0.91221545  0.07931799  0.85341326  1
  O2-  O471  1  0.91532974  0.32173593  0.21184652  1
  O2-  O472  1  0.92747759  0.32988015  0.52104014  1
  O2-  O473  1  0.91754794  0.33240897  0.84386683  1
  O2-  O474  1  0.91244685  0.59291232  0.18825725  1
  O2-  O475  1  0.91722711  0.56854600  0.52582124  1
  O2-  O476  1  0.91944646  0.57275057  0.83276241  1
  O2-  O477  1  0.91201708  0.84705943  0.18065980  1
  O2-  O478  1  0.93131842  0.81335396  0.53145981  1
  O2-  O479  1  0.92634528  0.84031753  0.85242054  1
  O2-  O480  1  0.17105709  0.08257152  0.31881454  1
  O2-  O481  1  0.16840900  0.07414849  0.64749533  1
  O2-  O482  1  0.16330737  0.09122311  0.97462804  1
  O2-  O483  1  0.16009513  0.33043328  0.31570425  1
  O2-  O484  1  0.17962641  0.32691278  0.65997140  1
  O2-  O485  1  0.16540867  0.32356076  0.98110553  1
  O2-  O486  1  0.17241330  0.57473567  0.32990503  1
  O2-  O487  1  0.16324133  0.58408660  0.64418628  1
  O2-  O488  1  0.19425773  0.65339952  0.97837040  1
  O2-  O489  1  0.14960008  0.80957389  0.30011062  1
  O2-  O490  1  0.16739025  0.83282504  0.64850226  1
  O2-  O491  1  0.17538095  0.82033533  0.98271947  1
  O2-  O492  1  0.42287912  0.09148107  0.30820922  1
  O2-  O493  1  0.41150871  0.07674278  0.64874501  1
  O2-  O494  1  0.44616955  0.07345664  0.98514094  1
  O2-  O495  1  0.42255865  0.33724701  0.31110070  1
  O2-  O496  1  0.42570315  0.32304783  0.65279556  1
  O2-  O497  1  0.42082160  0.33211168  0.97840090  1
  O2-  O498  1  0.42332571  0.59735317  0.30900195  1
  O2-  O499  1  0.45221823  0.62631958  0.59303002  1
  O2-  O500  1  0.41523139  0.57479893  0.97457638  1
  O2-  O501  1  0.39718913  0.82588520  0.30946106  1
  O2-  O502  1  0.41772232  0.83352972  0.64995845  1
  O2-  O503  1  0.42136987  0.82223734  0.97274881  1
  O2-  O504  1  0.64804344  0.08391088  0.31285257  1
  O2-  O505  1  0.66301588  0.08162120  0.64348651  1
  O2-  O506  1  0.67483914  0.03228304  0.96753438  1
  O2-  O507  1  0.66288468  0.33414221  0.31453613  1
  O2-  O508  1  0.66374143  0.33062712  0.64353864  1
  O2-  O509  1  0.65611525  0.33237996  0.96802132  1
  O2-  O510  1  0.66970958  0.58898548  0.32692342  1
  O2-  O511  1  0.65607837  0.57858070  0.63451191  1
  O2-  O512  1  0.68519490  0.60282234  0.96527336  1
  O2-  O513  1  0.65734120  0.83407301  0.30876949  1
  O2-  O514  1  0.68745692  0.84585947  0.64756812  1
  O2-  O515  1  0.66795250  0.81072391  0.97634680  1
  O2-  O516  1  0.94482509  0.05894152  0.30200565  1
  O2-  O517  1  0.92063740  0.06904858  0.65851720  1
  O2-  O518  1  0.90657577  0.07109467  0.97785250  1
  O2-  O519  1  0.91861420  0.32829919  0.34584548  1
  O2-  O520  1  0.90722036  0.32254095  0.64742000  1
  O2-  O521  1  0.91435599  0.33197583  0.96663104  1
  O2-  O522  1  0.91695468  0.58519855  0.32226392  1
  O2-  O523  1  0.92056070  0.56906791  0.70894974  1
  O2-  O524  1  0.91573289  0.57784926  0.94840870  1
  O2-  O525  1  0.95074673  0.90819377  0.29361685  1
  O2-  O526  1  0.92508472  0.83887234  0.64903949  1
  O2-  O527  1  0.91655212  0.83268409  0.97534864  1
  O2-  O528  1  0.07391348  0.15963168  0.01958813  1
  O2-  O529  1  0.08980955  0.16774385  0.35768841  1
  O2-  O530  1  0.08919266  0.15685812  0.69427572  1
  O2-  O531  1  0.04226387  0.34009666  0.04822894  1
  O2-  O532  1  0.10847751  0.42302987  0.37100821  1
  O2-  O533  1  0.08113017  0.42636659  0.68129968  1
  O2-  O534  1  0.04699885  0.65897919  0.03092758  1
  O2-  O535  1  0.07953202  0.65063448  0.35808220  1
  O2-  O536  1  0.09158830  0.66940618  0.69429549  1
  O2-  O537  1  0.14958550  0.95634710  0.02420267  1
  O2-  O538  1  0.08939252  0.91193078  0.34912485  1
  O2-  O539  1  0.08048876  0.90792956  0.69076666  1
  O2-  O540  1  0.34137977  0.15242035  0.00210780  1
  O2-  O541  1  0.33917482  0.17038201  0.35713763  1
  O2-  O542  1  0.33577337  0.16115281  0.69460241  1
  O2-  O543  1  0.33181357  0.40919874  0.02252235  1
  O2-  O544  1  0.34103045  0.42938975  0.30496925  1
  O2-  O545  1  0.33703364  0.40241390  0.68987624  1
  O2-  O546  1  0.30294808  0.61276645  0.03426363  1
  O2-  O547  1  0.33761547  0.66831261  0.36213053  1
  O2-  O548  1  0.31707977  0.66391106  0.68690858  1
  O2-  O549  1  0.34427342  0.90966798  0.02371753  1
  O2-  O550  1  0.32247968  0.92457739  0.36441572  1
  O2-  O551  1  0.33131633  0.91249754  0.69203366  1
  O2-  O552  1  0.60313702  0.17325820  0.02094601  1
  O2-  O553  1  0.57831335  0.16963185  0.35332375  1
  O2-  O554  1  0.58018536  0.16506085  0.68223452  1
  O2-  O555  1  0.58936325  0.41567743  0.02394857  1
  O2-  O556  1  0.58265737  0.41811712  0.35567090  1
  O2-  O557  1  0.58736229  0.41773686  0.68628319  1
  O2-  O558  1  0.56938859  0.62825198  0.02162728  1
  O2-  O559  1  0.58634616  0.67604411  0.35733286  1
  O2-  O560  1  0.55963523  0.69365465  0.69377308  1
  O2-  O561  1  0.57971059  0.89152487  0.02806006  1
  O2-  O562  1  0.57266647  0.92086335  0.34236305  1
  O2-  O563  1  0.59116421  0.91712570  0.68511063  1
  O2-  O564  1  0.82343325  0.16130860  0.00772341  1
  O2-  O565  1  0.81267659  0.13291245  0.39467785  1
  O2-  O566  1  0.82946160  0.15390588  0.68204080  1
  O2-  O567  1  0.83232359  0.42274543  -0.00930212  1
  O2-  O568  1  0.82680929  0.41864983  0.36219964  1
  O2-  O569  1  0.82279109  0.39885393  0.69116947  1
  O2-  O570  1  0.84394263  0.67535032  -0.00659903  1
  O2-  O571  1  0.81090142  0.61318581  0.37940256  1
  O2-  O572  1  0.79520397  0.60450046  0.70825356  1
  O2-  O573  1  0.82561102  0.90573128  0.02056008  1
  O2-  O574  1  0.82344860  0.90354884  0.36079521  1
  O2-  O575  1  0.84829447  0.91177999  0.68315677  1
