# generated using pymatgen
data_H2O
_symmetry_space_group_name_H-M   'P 1'
_cell_length_a   17.97427266
_cell_length_b   17.97996047
_cell_length_c   21.99149114
_cell_angle_alpha   90.05241523
_cell_angle_beta   89.95767499
_cell_angle_gamma   119.98459516
_symmetry_Int_Tables_number   1
_chemical_formula_structural   H2O
_chemical_formula_sum   'H384 O192'
_cell_volume   6155.91418965
_cell_formula_units_Z   192
loop_
 _symmetry_equiv_pos_site_id
 _symmetry_equiv_pos_as_xyz
  1  'x, y, z'
loop_
 _atom_type_symbol
 _atom_type_oxidation_number
  H+  1.0
  O2-  -2.0
loop_
 _atom_site_type_symbol
 _atom_site_label
 _atom_site_symmetry_multiplicity
 _atom_site_fract_x
 _atom_site_fract_y
 _atom_site_fract_z
 _atom_site_occupancy
  H+  H0  1  0.12948316  1.00382949  0.66349766  1
  H+  H1  1  0.71928170  0.60765271  0.32048587  1
  H+  H2  1  0.86031407  0.59712612  0.49570264  1
  H+  H3  1  0.59097299  0.19021034  0.17126496  1
  H+  H4  1  0.12834039  0.79467380  0.83806992  1
  H+  H5  1  0.11862429  0.60832171  0.71875273  1
  H+  H6  1  0.15108164  1.04829432  0.47776576  1
  H+  H7  1  0.76421618  0.54271828  0.71174782  1
  H+  H8  1  0.27025788  0.37898292  0.30926437  1
  H+  H9  1  0.91388348  0.82808217  0.23412361  1
  H+  H10  1  0.11925218  0.22003391  0.34558155  1
  H+  H11  1  1.03031031  0.14942506  0.50273330  1
  H+  H12  1  0.26440962  0.89896291  0.82459708  1
  H+  H13  1  0.47104268  0.11008575  0.84906589  1
  H+  H14  1  0.45305876  0.84525416  0.33144369  1
  H+  H15  1  0.72913034  0.34817295  0.31868860  1
  H+  H16  1  0.25187848  0.84187741  0.14938011  1
  H+  H17  1  0.01417665  0.12025739  0.80366070  1
  H+  H18  1  0.85818377  0.88464229  1.00817738  1
  H+  H19  1  -0.00669073  0.13245797  0.17257883  1
  H+  H20  1  0.28136122  0.60310580  0.84989138  1
  H+  H21  1  0.89180272  0.10563134  0.84477136  1
  H+  H22  1  0.35348246  0.68595748  0.81534805  1
  H+  H23  1  0.64087360  0.43550303  0.48534038  1
  H+  H24  1  0.75093277  0.12508409  0.34382177  1
  H+  H25  1  0.11406086  0.97208410  0.33920515  1
  H+  H26  1  0.01917126  0.65119067  0.48042844  1
  H+  H27  1  0.13064647  0.03377831  0.50850981  1
  H+  H28  1  0.51954658  0.62525462  0.33821030  1
  H+  H29  1  0.61949770  0.48987201  0.16321070  1
  H+  H30  1  0.87896490  0.76400177  1.00226835  1
  H+  H31  1  0.87174065  0.23881205  0.48849443  1
  H+  H32  1  0.87451754  0.25999920  1.02657568  1
  H+  H33  1  0.85044030  0.87696728  0.83329330  1
  H+  H34  1  0.35943069  0.62286631  0.15057897  1
  H+  H35  1  0.63557689  0.86809433  0.66817140  1
  H+  H36  1  0.62242192  0.74590938  0.01178734  1
  H+  H37  1  0.14776755  0.88394123  0.65314998  1
  H+  H38  1  0.68000044  0.19817605  0.54007912  1
  H+  H39  1  0.96382176  0.10722344  0.67490641  1
  H+  H40  1  0.50417081  0.60216385  0.65714053  1
  H+  H41  1  0.23107271  0.10541028  1.00802922  1
  H+  H42  1  0.35793655  0.12898847  0.34585995  1
  H+  H43  1  0.52248749  0.15378129  0.67761080  1
  H+  H44  1  0.37938762  0.38853712  0.16857753  1
  H+  H45  1  0.31247020  0.62267537  0.06333798  1
  H+  H46  1  0.42430387  0.59014516  0.22589416  1
  H+  H47  1  0.71474571  0.17787309  0.97422215  1
  H+  H48  1  0.27750124  0.88093151  0.49004301  1
  H+  H49  1  -0.03356772  0.61660927  0.83097496  1
  H+  H50  1  0.88690342  0.35680743  0.19224752  1
  H+  H51  1  0.87462251  0.39762465  0.47920241  1
  H+  H52  1  0.81267900  0.42189323  0.76069268  1
  H+  H53  1  0.03345908  0.40783784  0.68012547  1
  H+  H54  1  0.61661916  0.79664916  0.16504082  1
  H+  H55  1  0.09477377  0.11270405  0.70106371  1
  H+  H56  1  0.88216904  0.90214518  0.16001034  1
  H+  H57  1  0.87172048  0.60323712  0.64867203  1
  H+  H58  1  0.68656817  0.32652895  0.14081967  1
  H+  H59  1  0.12999053  0.62588555  0.47988177  1
  H+  H60  1  0.10453699  0.45961403  0.34329313  1
  H+  H61  1  0.17243275  0.84514303  0.56149120  1
  H+  H62  1  0.68173013  0.11692697  0.62387153  1
  H+  H63  1  0.88612842  0.86310577  0.32932239  1
  H+  H64  1  0.26462676  0.53340007  0.03075392  1
  H+  H65  1  0.76859483  0.12342676  1.01222900  1
  H+  H66  1  0.54136275  0.64449539  0.83242357  1
  H+  H67  1  0.48477520  0.35673160  0.33059430  1
  H+  H68  1  0.26431457  0.65680666  0.72319130  1
  H+  H69  1  -0.02638388  0.85793845  0.32745551  1
  H+  H70  1  0.89046822  0.30794393  0.76939149  1
  H+  H71  1  0.89049169  0.01682491  0.84147605  1
  H+  H72  1  0.40538734  0.79480737  0.98817796  1
  H+  H73  1  0.35421804  0.21705063  1.00925288  1
  H+  H74  1  0.38652745  0.60986756  0.32105354  1
  H+  H75  1  0.73674289  0.56630523  0.47205263  1
  H+  H76  1  0.47030956  0.35636426  1.00214057  1
  H+  H77  1  0.95894397  0.85720774  0.85630145  1
  H+  H78  1  0.72440960  0.60748576  0.84236349  1
  H+  H79  1  0.48330754  0.62253473  0.16601414  1
  H+  H80  1  0.36057948  0.88803323  -0.00098231  1
  H+  H81  1  0.87218436  0.13846657  0.16772973  1
  H+  H82  1  0.46963562  0.10746468  1.00155211  1
  H+  H83  1  0.35559966  0.97354277  0.00717912  1
  H+  H84  1  0.77331350  0.88733949  0.67921505  1
  H+  H85  1  0.84901269  0.42802720  0.29143469  1
  H+  H86  1  0.35245582  0.85926219  0.48504877  1
  H+  H87  1  0.22461520  0.86652112  0.98939654  1
  H+  H88  1  0.53408476  0.39597784  0.16799461  1
  H+  H89  1  0.47314308  0.84108311  0.16108749  1
  H+  H90  1  0.11135846  0.48617879  0.15772516  1
  H+  H91  1  0.39450717  0.03576154  0.66470131  1
  H+  H92  1  0.41861845  0.27885719  0.17421252  1
  H+  H93  1  0.33829897  0.18270970  0.43550731  1
  H+  H94  1  0.10468569  0.66041232  0.63797972  1
  H+  H95  1  0.71730708  0.10608947  0.85199058  1
  H+  H96  1  0.62764998  0.84576700  0.51216697  1
  H+  H97  1  0.60191463  0.67731090  0.77420020  1
  H+  H98  1  0.33496898  0.34132616  0.65137999  1
  H+  H99  1  0.13287416  0.52853501  0.72254783  1
  H+  H100  1  0.50651717  0.38813008  0.84617157  1
  H+  H101  1  0.37111134  0.23442506  0.83399084  1
  H+  H102  1  0.22715375  0.10727929  0.33116998  1
  H+  H103  1  0.38269923  0.83994872  0.15621228  1
  H+  H104  1  1.03540721  0.66827869  0.15940296  1
  H+  H105  1  0.41772005  0.84347685  0.89108706  1
  H+  H106  1  0.12067528  0.22037350  0.00931712  1
  H+  H107  1  0.50225262  0.37197240  0.65327287  1
  H+  H108  1  0.86498818  0.90455515  0.49939975  1
  H+  H109  1  0.12133537  0.32337820  0.84655479  1
  H+  H110  1  0.78756059  0.41052819  0.20166606  1
  H+  H111  1  0.90862426  0.04015381  0.17177331  1
  H+  H112  1  -0.04045422  0.35051295  0.82068035  1
  H+  H113  1  0.58224455  0.41887480  0.07117377  1
  H+  H114  1  0.35700796  0.12872941  0.00789327  1
  H+  H115  1  0.22050147  0.37956561  0.66320523  1
  H+  H116  1  0.85816258  0.36950472  -0.00441803  1
  H+  H117  1  0.27590237  0.89108690  0.67303202  1
  H+  H118  1  0.33810754  0.44804609  0.83862728  1
  H+  H119  1  0.87996568  0.49576023  0.20128785  1
  H+  H120  1  0.91452933  0.30891858  0.27010452  1
  H+  H121  1  0.17356281  0.78640454  0.34143000  1
  H+  H122  1  0.62291520  0.65702456  0.01415985  1
  H+  H123  1  0.63642759  0.28430419  0.63759265  1
  H+  H124  1  0.15467929  0.56531811  0.82297529  1
  H+  H125  1  0.77540128  0.14473879  0.69203004  1
  H+  H126  1  0.04095530  0.65786051  0.33273404  1
  H+  H127  1  0.29552363  0.26463524  0.60156922  1
  H+  H128  1  0.46620527  0.10564937  0.32789834  1
  H+  H129  1  0.64009725  0.87194983  0.32443051  1
  H+  H130  1  0.88122503  0.79750788  0.53280879  1
  H+  H131  1  0.33991189  0.17824404  0.74063471  1
  H+  H132  1  0.71895232  0.35355384  0.98593565  1
  H+  H133  1  0.94030111  0.08861917  0.26864678  1
  H+  H134  1  0.10883433  0.66325659  0.80982959  1
  H+  H135  1  0.89526357  0.63222968  0.32896989  1
  H+  H136  1  0.39535660  0.35763751  0.32103102  1
  H+  H137  1  0.59572135  -0.03642602  0.34541757  1
  H+  H138  1  0.13143195  0.23268571  0.16115112  1
  H+  H139  1  0.59015496  0.94497742  0.49337581  1
  H+  H140  1  0.27863012  0.15017182  0.82784938  1
  H+  H141  1  0.05264649  0.01059121  0.20887939  1
  H+  H142  1  0.37988169  0.36057770  0.84967982  1
  H+  H143  1  0.31634653  0.58687685  0.49884473  1
  H+  H144  1  0.13141788  0.00906363  1.00991893  1
  H+  H145  1  0.38579339  0.11839718  0.84574622  1
  H+  H146  1  0.72292427  0.62052563  0.17250714  1
  H+  H147  1  0.90749197  0.54994022  0.32745532  1
  H+  H148  1  0.38814441  0.12149054  0.67067258  1
  H+  H149  1  0.34399584  0.65122959  0.39977555  1
  H+  H150  1  0.63328723  0.10852717  0.32941117  1
  H+  H151  1  0.70693695  0.58970034  0.64789684  1
  H+  H152  1  0.85379740  0.21184357  0.83797951  1
  H+  H153  1  0.23041974  0.12230486  0.67507589  1
  H+  H154  1  0.38747275  0.52225517  0.30827367  1
  H+  H155  1  0.48920540  0.88813714  0.98592548  1
  H+  H156  1  0.59963311  0.38265938  0.83720194  1
  H+  H157  1  0.62378874  1.05480070  0.44082090  1
  H+  H158  1  0.37558691  0.17382076  0.10434873  1
  H+  H159  1  0.89260199  0.89404783  0.67215461  1
  H+  H160  1  -0.02655633  0.33872243  0.33063581  1
  H+  H161  1  0.60785746  0.38512233  0.01170301  1
  H+  H162  1  0.35939982  0.45673312  0.01011959  1
  H+  H163  1  0.14455213  0.05171988  0.85084798  1
  H+  H164  1  0.62680293  0.52932359  0.55563008  1
  H+  H165  1  -0.00449827  0.90179709  0.66832389  1
  H+  H166  1  0.83730649  0.39290446  -0.06954194  1
  H+  H167  1  0.08476399  0.68376098  0.42374511  1
  H+  H168  1  0.86186910  0.14524184  0.49879151  1
  H+  H169  1  0.59399559  0.38046854  0.65126861  1
  H+  H170  1  0.14381611  0.62856963  0.16347975  1
  H+  H171  1  0.38275498  0.74028966  0.51979320  1
  H+  H172  1  0.37523107  0.88055010  0.67833573  1
  H+  H173  1  0.73336990  0.38025161  0.48606305  1
  H+  H174  1  0.15626948  0.57412588  0.39609567  1
  H+  H175  1  0.22215141  0.37870627  0.50531752  1
  H+  H176  1  0.50462949  0.85534724  0.50028949  1
  H+  H177  1  0.77820578  0.89563590  0.33430847  1
  H+  H178  1  0.70722712  0.35887978  0.83468831  1
  H+  H179  1  0.85105286  0.72441823  0.82591232  1
  H+  H180  1  0.72829263  0.87926169  0.99839213  1
  H+  H181  1  0.76750529  0.88907507  0.83070528  1
  H+  H182  1  0.60718510  0.98256239  0.68022788  1
  H+  H183  1  0.58535965  0.12716211  0.47761234  1
  H+  H184  1  0.85928552  0.12352871  0.01041602  1
  H+  H185  1  0.46329137  0.06675898  0.17975686  1
  H+  H186  1  0.59812752  0.21499685  0.01713445  1
  H+  H187  1  0.13885144  0.10834625  0.33693849  1
  H+  H188  1  0.88822296  0.51921562  -0.01797794  1
  H+  H189  1  0.41394309  0.63751339  0.48884935  1
  H+  H190  1  0.88357991  0.03528713  0.51152441  1
  H+  H191  1  0.64018579  0.29833178  0.48699154  1
  H+  H192  1  0.35606840  0.98578675  0.82595143  1
  H+  H193  1  0.61617232  0.38079707  0.33286388  1
  H+  H194  1  0.88104113  0.51307308  0.49097691  1
  H+  H195  1  0.63982516  0.61452098  0.84517895  1
  H+  H196  1  1.02228835  0.64240318  1.00203140  1
  H+  H197  1  0.13420560  0.28727777  0.50913988  1
  H+  H198  1  0.10372617  0.90220743  0.84276549  1
  H+  H199  1  0.91298093  0.34375608  0.55481225  1
  H+  H200  1  0.22421512  0.61443654  0.16083215  1
  H+  H201  1  0.62300698  0.73414169  0.67872359  1
  H+  H202  1  0.38198085  0.78549505  0.68562304  1
  H+  H203  1  0.85938911  0.72521865  0.16236548  1
  H+  H204  1  0.60923277  0.48234341  0.84182763  1
  H+  H205  1  0.76203785  0.39831608  0.66035742  1
  H+  H206  1  0.23397209  0.37333329  0.17396432  1
  H+  H207  1  0.26224155  0.18354483  0.52380711  1
  H+  H208  1  0.09924539  0.43327399  0.84017923  1
  H+  H209  1  0.89256567  0.62503517  0.17331416  1
  H+  H210  1  0.86520027  0.27073042  0.65685474  1
  H+  H211  1  0.84337118  0.38772653  0.66473382  1
  H+  H212  1  0.61629552  0.66362258  0.16254749  1
  H+  H213  1  -0.03772874  0.35031588  0.02327021  1
  H+  H214  1  -0.01713834  0.37554283  0.49947188  1
  H+  H215  1  0.85929613  0.62932078  1.00781066  1
  H+  H216  1  0.40286645  0.14008266  0.16166171  1
  H+  H217  1  0.12008006  0.63952410  0.34247215  1
  H+  H218  1  0.36207296  0.21980498  0.34299528  1
  H+  H219  1  0.34943668  0.22415304  0.67431423  1
  H+  H220  1  0.11255337  0.39190714  0.49569290  1
  H+  H221  1  0.17445893  0.18670969  0.53036679  1
  H+  H222  1  0.11157910  0.48053516  0.48192145  1
  H+  H223  1  0.16339999  0.84744572  0.90054640  1
  H+  H224  1  0.43150763  0.54649233  0.79949088  1
  H+  H225  1  0.64037337  0.09044402  0.17961150  1
  H+  H226  1  0.41177523  0.08106939  0.94038163  1
  H+  H227  1  0.22154135  0.63290456  0.48526596  1
  H+  H228  1  0.38134562  0.57876662  0.98234623  1
  H+  H229  1  0.38571744  0.87244121  0.83374300  1
  H+  H230  1  0.13418804  0.77838633  -0.01270407  1
  H+  H231  1  0.64715263  0.32267860  0.93672249  1
  H+  H232  1  0.90386372  1.02363822  0.32499242  1
  H+  H233  1  0.05683539  0.89042014  0.42979794  1
  H+  H234  1  0.66251137  0.07174475  0.46135578  1
  H+  H235  1  0.09349519  0.86756451  0.48939188  1
  H+  H236  1  0.63414882  0.87121876  0.84152782  1
  H+  H237  1  0.62717768  0.95416327  0.17481416  1
  H+  H238  1  0.61628009  0.91087786  1.00259722  1
  H+  H239  1  0.85485287  0.21686836  0.34275977  1
  H+  H240  1  0.33622539  0.40843190  0.25589939  1
  H+  H241  1  0.35843791  0.83328712  0.32759985  1
  H+  H242  1  0.39687193  0.59933464  0.83899352  1
  H+  H243  1  0.38181636  0.26216525  0.48266275  1
  H+  H244  1  0.13981839  0.06149293  0.24330491  1
  H+  H245  1  0.98530854  0.11292768  0.99681178  1
  H+  H246  1  0.60943307  0.98145465  0.83488513  1
  H+  H247  1  0.08675631  0.68295553  0.05887862  1
  H+  H248  1  0.77166697  0.89275369  0.49852687  1
  H+  H249  1  0.12672065  0.61143322  0.98713658  1
  H+  H250  1  0.84563297  0.38669678  0.81316717  1
  H+  H251  1  0.85604045  0.63798687  0.82362300  1
  H+  H252  1  0.20586168  0.59296050  0.98953056  1
  H+  H253  1  0.36696995  0.47010412  0.68210621  1
  H+  H254  1  0.61663143  -0.00025143  1.00030606  1
  H+  H255  1  0.86573217  0.14772278  0.68507023  1
  H+  H256  1  0.10992934  0.93107540  0.16400165  1
  H+  H257  1  0.88363196  0.26656361  0.17616851  1
  H+  H258  1  0.40168369  0.15314921  0.51184595  1
  H+  H259  1  0.61204165  0.12885288  0.84391043  1
  H+  H260  1  0.13593156  0.78989293  0.65632398  1
  H+  H261  1  0.87797990  0.52518907  0.83240337  1
  H+  H262  1  0.97661483  0.86641530  0.51032322  1
  H+  H263  1  0.61120209  0.21961808  0.33276636  1
  H+  H264  1  0.63958235  0.78426145  0.84497715  1
  H+  H265  1  0.60671886  0.13110220  0.01091828  1
  H+  H266  1  0.79304208  0.66170830  0.49708122  1
  H+  H267  1  0.10977072  0.88483662  0.00645212  1
  H+  H268  1  0.61387462  0.50977127  0.64808027  1
  H+  H269  1  0.85919387  0.72968115  0.33754065  1
  H+  H270  1  0.96722771  0.85416355  0.99932536  1
  H+  H271  1  0.36257922  0.71295652  0.14180538  1
  H+  H272  1  0.51940898  0.89328429  0.82700796  1
  H+  H273  1  0.22353745  0.59968269  0.34495041  1
  H+  H274  1  0.48093431  0.41349258  0.51441693  1
  H+  H275  1  0.37838451  0.35131299  1.00436420  1
  H+  H276  1  0.58809978  0.60500696  0.49424310  1
  H+  H277  1  0.09677929  0.46432737  0.00456085  1
  H+  H278  1  0.13264075  0.35152290  0.32466347  1
  H+  H279  1  0.38109460  0.48150367  0.16622485  1
  H+  H280  1  0.13924092  0.78433131  0.50260772  1
  H+  H281  1  0.34667846  0.65319643  0.70376983  1
  H+  H282  1  0.63280740  0.52443697  1.00103870  1
  H+  H283  1  -0.02617532  0.84481077  0.17510220  1
  H+  H284  1  0.22156406  0.35443762  1.00421968  1
  H+  H285  1  0.35809828  0.41235615  0.48725938  1
  H+  H286  1  0.35631935  0.71313567  0.34267628  1
  H+  H287  1  0.76969736  0.62968192  1.01065283  1
  H+  H288  1  0.57983043  0.92455288  0.74038545  1
  H+  H289  1  0.80664922  0.27377279  0.60636570  1
  H+  H290  1  0.73365811  0.09985860  0.18257932  1
  H+  H291  1  0.90329064  0.57512571  0.55774713  1
  H+  H292  1  0.13646414  0.10811655  1.00684255  1
  H+  H293  1  0.56946366  0.64717760  0.40116894  1
  H+  H294  1  0.63942220  0.12535136  0.68286089  1
  H+  H295  1  0.84864277  0.43019167  0.41756496  1
  H+  H296  1  0.58830761  0.68897775  0.10043096  1
  H+  H297  1  0.64423898  0.37953566  0.16810745  1
  H+  H298  1  0.12364442  0.88923141  0.34583973  1
  H+  H299  1  0.75571395  0.17702431  0.53118840  1
  H+  H300  1  0.89320043  0.81639373  0.90962981  1
  H+  H301  1  0.18449106  0.12384526  0.61391203  1
  H+  H302  1  0.56462200  0.89520390  0.39932892  1
  H+  H303  1  0.66492461  0.83641565  0.60899909  1
  H+  H304  1  0.93257569  0.87018569  0.60648179  1
  H+  H305  1  0.87209351  0.45233595  0.09907777  1
  H+  H306  1  0.16352598  0.35603311  0.60243371  1
  H+  H307  1  0.91135382  0.49003936  0.08589627  1
  H+  H308  1  0.41741707  0.54739694  0.92855472  1
  H+  H309  1  0.18061555  0.59728852  0.61079811  1
  H+  H310  1  0.11521713  0.13445272  0.16640801  1
  H+  H311  1  0.82993655  0.15417967  0.10872690  1
  H+  H312  1  0.07267260  0.69223501  0.75648962  1
  H+  H313  1  0.05548918  0.93556348  0.79822191  1
  H+  H314  1  0.83083467  0.91641823  0.74120046  1
  H+  H315  1  0.15627876  0.55783064  0.89749064  1
  H+  H316  1  0.82852226  0.15334382  0.78164241  1
  H+  H317  1  0.52343321  0.16072333  0.50234516  1
  H+  H318  1  0.57351554  0.14119827  0.78228143  1
  H+  H319  1  0.91506424  0.58666475  0.92941212  1
  H+  H320  1  0.66389540  0.09221312  0.91590470  1
  H+  H321  1  0.31660547  0.42830292  0.42962735  1
  H+  H322  1  0.14387994  0.37296630  0.16973433  1
  H+  H323  1  0.47675770  0.87607771  0.67682885  1
  H+  H324  1  0.32897017  0.92237866  0.73866440  1
  H+  H325  1  0.66892352  0.84996674  0.93919388  1
  H+  H326  1  0.82238245  0.66126054  0.39297935  1
  H+  H327  1  0.91267443  0.09329775  0.57166364  1
  H+  H328  1  0.66864156  0.07493344  0.27275027  1
  H+  H329  1  0.93628450  0.61622925  0.23420833  1
  H+  H330  1  0.07693148  0.90085660  0.07032436  1
  H+  H331  1  0.11953850  0.40030688  0.67716672  1
  H+  H332  1  0.83151346  0.91994505  0.39687084  1
  H+  H333  1  0.16076820  0.31249010  0.90804239  1
  H+  H334  1  0.31682026  0.89188978  0.09536901  1
  H+  H335  1  0.03163201  0.13060760  0.34681183  1
  H+  H336  1  0.15860283  0.32416550  0.26250829  1
  H+  H337  1  0.07514322  0.39733986  0.39881321  1
  H+  H338  1  0.42991820  0.32824929  0.23781740  1
  H+  H339  1  0.87328844  0.02851054  0.66709757  1
  H+  H340  1  0.08275645  0.41725787  0.06903908  1
  H+  H341  1  0.57553597  0.14403842  0.10722256  1
  H+  H342  1  0.09024707  0.17415010  0.44324852  1
  H+  H343  1  0.62736423  0.64702969  0.67415673  1
  H+  H344  1  0.36813896  -0.01191425  0.17655003  1
  H+  H345  1  0.33280273  0.40826888  0.07556101  1
  H+  H346  1  0.83116003  0.66344274  0.10339387  1
  H+  H347  1  0.87114170  0.37315245  0.33408770  1
  H+  H348  1  0.66063026  0.58895677  0.23046557  1
  H+  H349  1  0.09412154  0.16411294  0.07030137  1
  H+  H350  1  0.09904378  0.83524484  0.15080285  1
  H+  H351  1  0.13127818  0.35380742  1.00072895  1
  H+  H352  1  0.58799736  0.22832467  0.72210278  1
  H+  H353  1  0.32080530  0.40741720  0.74042193  1
  H+  H354  1  0.93092135  0.08487627  0.93513375  1
  H+  H355  1  0.86887457  0.97874201  0.00536526  1
  H+  H356  1  0.57905260  0.17181500  0.39588250  1
  H+  H357  1  0.40187176  0.80782847  0.57407680  1
  H+  H358  1  0.25143817  0.35568190  0.83639548  1
  H+  H359  1  0.41416304  0.33610594  0.91206353  1
  H+  H360  1  0.48298135  0.59569461  0.55466799  1
  H+  H361  1  0.40194400  0.35233587  0.55718921  1
  H+  H362  1  0.14582155  0.13226261  0.82197799  1
  H+  H363  1  0.67485680  0.86323712  0.26093000  1
  H+  H364  1  0.87924647  0.52070565  0.64659408  1
  H+  H365  1  0.66781286  0.34818008  0.57951885  1
  H+  H366  1  0.80691997  0.63685654  0.73382630  1
  H+  H367  1  0.02644326  0.39178955  0.16234761  1
  H+  H368  1  0.01105055  0.63858358  0.65635852  1
  H+  H369  1  0.48622780  0.51660538  0.62742038  1
  H+  H370  1  0.62124159  0.26659650  0.83924910  1
  H+  H371  1  0.66946236  0.32302583  0.26005627  1
  H+  H372  1  0.07286162  0.38785619  0.77642699  1
  H+  H373  1  0.30183271  0.88772157  0.39523970  1
  H+  H374  1  0.81787793  0.16146402  0.40855079  1
  H+  H375  1  0.11591956  0.94376592  0.71985556  1
  H+  H376  1  0.39925351  0.06316455  0.27471927  1
  H+  H377  1  0.17740554  0.63362341  0.59613639  1
  H+  H378  1  0.66540612  0.58333024  0.94200969  1
  H+  H379  1  0.85257237  0.93376132  0.10173496  1
  H+  H380  1  0.63742211  0.76359432  0.51829070  1
  H+  H381  1  0.61374377  0.46819343  0.33292157  1
  H+  H382  1  0.42692529  0.11627225  0.57069495  1
  H+  H383  1  0.62726882  0.60041289  0.32720768  1
  O2-  O384  1  0.09865297  0.17301633  0.14492378  1
  O2-  O385  1  0.09055001  0.18378747  0.48845447  1
  O2-  O386  1  0.06829395  0.14810794  0.77808919  1
  O2-  O387  1  0.08547155  0.42347939  0.14540947  1
  O2-  O388  1  0.07889348  0.41739697  0.47574186  1
  O2-  O389  1  0.06096229  0.37632893  0.82075588  1
  O2-  O390  1  0.09223538  0.69478179  0.13759442  1
  O2-  O391  1  0.08044403  0.68171704  0.47009738  1
  O2-  O392  1  0.07283616  0.68845562  0.80116582  1
  O2-  O393  1  0.07342954  0.87656745  0.14290196  1
  O2-  O394  1  0.04227151  0.86775297  0.47220410  1
  O2-  O395  1  0.06776913  0.93103376  0.84071704  1
  O2-  O396  1  0.41369334  0.19302554  0.14003242  1
  O2-  O397  1  0.34713676  0.19874574  0.48016915  1
  O2-  O398  1  0.34176963  0.17595478  0.81590734  1
  O2-  O399  1  0.34478353  0.41700460  0.15943873  1
  O2-  O400  1  0.31904131  0.43379218  0.47373287  1
  O2-  O401  1  0.31429400  0.39099196  0.81982483  1
  O2-  O402  1  0.32777932  0.64898773  0.13094097  1
  O2-  O403  1  0.36110347  0.64304429  0.48456016  1
  O2-  O404  1  0.34451764  0.64225767  0.84550715  1
  O2-  O405  1  0.31414321  0.88267877  0.14010587  1
  O2-  O406  1  0.33122326  0.89559933  0.46795059  1
  O2-  O407  1  0.32375152  0.92681837  0.80688742  1
  O2-  O408  1  0.57745826  0.13569968  0.15245085  1
  O2-  O409  1  0.58520706  0.18086601  0.48430847  1
  O2-  O410  1  0.57860699  0.15687857  0.82526527  1
  O2-  O411  1  0.59352819  0.42785815  0.14976421  1
  O2-  O412  1  0.64716831  0.49242324  0.47384153  1
  O2-  O413  1  0.57106106  0.41855118  0.82907555  1
  O2-  O414  1  0.58358196  0.69053886  0.14687287  1
  O2-  O415  1  0.57286960  0.65127495  0.49031914  1
  O2-  O416  1  0.60271761  0.67802134  0.81966210  1
  O2-  O417  1  0.59389121  0.89353767  0.15984072  1
  O2-  O418  1  0.56434542  0.88435497  0.48269647  1
  O2-  O419  1  0.58197136  0.92396296  0.81398991  1
  O2-  O420  1  0.83378329  0.16158850  0.15399967  1
  O2-  O421  1  0.83229359  0.17601113  0.48163325  1
  O2-  O422  1  0.82771894  0.15059942  0.82693905  1
  O2-  O423  1  0.84735854  0.43479055  0.21641245  1
  O2-  O424  1  0.84609526  0.43051001  0.46284453  1
  O2-  O425  1  0.81405354  0.41877037  0.80591481  1
  O2-  O426  1  0.82999829  0.66341727  0.14889758  1
  O2-  O427  1  0.79878436  0.61933735  0.47294634  1
  O2-  O428  1  0.82257703  0.66489990  0.80804766  1
  O2-  O429  1  0.86827255  0.94571478  0.14536335  1
  O2-  O430  1  0.83115560  0.92979315  0.48310046  1
  O2-  O431  1  0.82789000  0.91257742  0.81460621  1
  O2-  O432  1  0.11414447  0.04600439  0.20121419  1
  O2-  O433  1  0.22234576  0.18764071  0.55401703  1
  O2-  O434  1  0.18078881  0.11420310  0.84591750  1
  O2-  O435  1  0.17191469  0.34042361  0.18497056  1
  O2-  O436  1  0.16262347  0.34866614  0.52331585  1
  O2-  O437  1  0.16172359  0.30629534  0.86309533  1
  O2-  O438  1  0.16381132  0.58862218  0.17533259  1
  O2-  O439  1  0.16135684  0.59268393  0.47644084  1
  O2-  O440  1  0.17015440  0.54056288  0.85719756  1
  O2-  O441  1  0.14025172  0.78322997  0.16243014  1
  O2-  O442  1  0.17075948  0.84518236  0.51652754  1
  O2-  O443  1  0.16139029  0.85365553  0.85448198  1
  O2-  O444  1  0.40379586  0.04736425  0.19296836  1
  O2-  O445  1  0.43596171  0.12680124  0.52662910  1
  O2-  O446  1  0.40927739  0.08152043  0.86100447  1
  O2-  O447  1  0.43247101  0.33585654  0.19239996  1
  O2-  O448  1  0.41942803  0.36967858  0.51416570  1
  O2-  O449  1  0.41973445  0.34065690  0.86592172  1
  O2-  O450  1  0.42244135  0.58315750  0.18050740  1
  O2-  O451  1  0.48223178  0.60417975  0.50966230  1
  O2-  O452  1  0.43234918  0.56795273  0.84037941  1
  O2-  O453  1  0.41070529  0.80576915  0.16582596  1
  O2-  O454  1  0.40489595  0.80192982  0.52984927  1
  O2-  O455  1  0.41722653  0.84293021  0.84567536  1
  O2-  O456  1  0.67324229  0.06569911  0.19896119  1
  O2-  O457  1  0.72369278  0.19091157  0.56235818  1
  O2-  O458  1  0.65746565  0.08136016  0.86704728  1
  O2-  O459  1  0.67502842  0.34618071  0.17910676  1
  O2-  O460  1  0.67417800  0.35828626  0.50165713  1
  O2-  O461  1  0.64733718  0.32849050  0.85101260  1
  O2-  O462  1  0.66122642  0.59242835  0.18478704  1
  O2-  O463  1  0.59281974  0.50763169  0.51656352  1
  O2-  O464  1  0.66433865  0.57777951  0.85924915  1
  O2-  O465  1  0.64766045  0.85815928  0.17981871  1
  O2-  O466  1  0.66450640  0.82461721  0.53063463  1
  O2-  O467  1  0.66831512  0.84552225  0.85781435  1
  O2-  O468  1  0.93415537  0.10040356  0.18947264  1
  O2-  O469  1  0.91442327  0.09605510  0.52646495  1
  O2-  O470  1  0.92742291  0.07848958  0.85329655  1
  O2-  O471  1  0.91782800  0.32450286  0.19625176  1
  O2-  O472  1  0.91903895  0.34698104  0.50985615  1
  O2-  O473  1  0.89642882  0.32772365  0.81148247  1
  O2-  O474  1  0.93205113  0.60490036  0.18972327  1
  O2-  O475  1  0.90247718  0.57529353  0.51069183  1
  O2-  O476  1  0.90762582  0.58541129  0.84813563  1
  O2-  O477  1  0.91401143  0.82660258  0.18871147  1
  O2-  O478  1  0.92339556  0.85826255  0.53731269  1
  O2-  O479  1  0.89628387  0.82004279  0.86376968  1
  O2-  O480  1  0.16546304  0.07661228  0.31746210  1
  O2-  O481  1  0.17178602  0.09810181  0.65606679  1
  O2-  O482  1  0.16593572  0.07275451  0.99559991  1
  O2-  O483  1  0.16319168  0.32245501  0.30783402  1
  O2-  O484  1  0.16124725  0.35717411  0.64769752  1
  O2-  O485  1  0.16195183  0.32301965  0.98722156  1
  O2-  O486  1  0.15937716  0.57090983  0.35116370  1
  O2-  O487  1  0.15442878  0.58861987  0.73898792  1
  O2-  O488  1  0.14789517  0.57320673  0.97126314  1
  O2-  O489  1  0.20144687  0.85038657  0.34093151  1
  O2-  O490  1  0.17633209  0.84953832  0.64367068  1
  O2-  O491  1  0.16368433  0.83993933  0.97367041  1
  O2-  O492  1  0.40465053  0.07882439  0.31831240  1
  O2-  O493  1  0.42416449  0.09734514  0.65434082  1
  O2-  O494  1  0.40900965  0.07976075  0.98571569  1
  O2-  O495  1  0.42334998  0.32280933  0.31495005  1
  O2-  O496  1  0.34849265  0.30357759  0.62566261  1
  O2-  O497  1  0.41032036  0.32412969  0.98557650  1
  O2-  O498  1  0.42098956  0.58565100  0.30252792  1
  O2-  O499  1  0.46086928  0.55339410  0.63152314  1
  O2-  O500  1  0.40957521  0.54516404  0.97259501  1
  O2-  O501  1  0.39249995  0.80501774  0.32031243  1
  O2-  O502  1  0.41212710  0.84366229  0.66465994  1
  O2-  O503  1  0.42623953  0.85166790  0.97078248  1
  O2-  O504  1  0.66676772  0.07916894  0.31884372  1
  O2-  O505  1  0.66844163  0.09519407  0.66645405  1
  O2-  O506  1  0.67686605  0.11600775  0.97840215  1
  O2-  O507  1  0.66849983  0.31955479  0.30493423  1
  O2-  O508  1  0.66490756  0.34538618  0.62509635  1
  O2-  O509  1  0.65524144  0.32590910  0.98137336  1
  O2-  O510  1  0.65893790  0.57371654  0.30666425  1
  O2-  O511  1  0.64908595  0.56915102  0.63015813  1
  O2-  O512  1  0.66737308  0.58519681  0.98701350  1
  O2-  O513  1  0.68395447  0.86200684  0.30501980  1
  O2-  O514  1  0.66763553  0.83917860  0.65457030  1
  O2-  O515  1  0.66725215  0.85187510  0.98428609  1
  O2-  O516  1  0.94223952  0.08473650  0.31370050  1
  O2-  O517  1  0.90791680  0.08963420  0.65450174  1
  O2-  O518  1  0.92578162  0.08426498  0.98026968  1
  O2-  O519  1  0.91174940  0.30716148  0.31630866  1
  O2-  O520  1  0.86065857  0.31230969  0.62896833  1
  O2-  O521  1  0.89904998  0.32340561  1.02797469  1
  O2-  O522  1  0.93421766  0.60997958  0.31449905  1
  O2-  O523  1  0.90760508  0.58129762  0.62927376  1
  O2-  O524  1  0.91588422  0.58204818  0.97444701  1
  O2-  O525  1  0.91264989  0.82874929  0.31374457  1
  O2-  O526  1  0.93364664  0.87226292  0.65354976  1
  O2-  O527  1  0.90653227  0.82386998  0.98527558  1
  O2-  O528  1  0.09296669  0.15933965  0.02448759  1
  O2-  O529  1  0.09158813  0.16319384  0.36610917  1
  O2-  O530  1  0.03953637  0.09731629  0.72174580  1
  O2-  O531  1  0.07733299  0.40748692  0.02368298  1
  O2-  O532  1  0.07465785  0.39680911  0.35328443  1
  O2-  O533  1  0.08752742  0.42671363  0.70142446  1
  O2-  O534  1  0.08422170  0.67522705  0.01361974  1
  O2-  O535  1  0.09877206  0.68036222  0.35168654  1
  O2-  O536  1  0.07275146  0.67033764  0.67034798  1
  O2-  O537  1  0.07925043  0.91334460  0.02511521  1
  O2-  O538  1  0.08288941  0.91029024  0.35259986  1
  O2-  O539  1  0.09868341  0.93920291  0.67730950  1
  O2-  O540  1  0.32412351  0.15641995  0.02440104  1
  O2-  O541  1  0.32842362  0.16117545  0.36113069  1
  O2-  O542  1  0.33345043  0.16886622  0.69510078  1
  O2-  O543  1  0.32528493  0.39878651  0.03092662  1
  O2-  O544  1  0.33387717  0.41113017  0.30048822  1
  O2-  O545  1  0.32138656  0.41263096  0.69506774  1
  O2-  O546  1  0.29507844  0.59443756  0.02080465  1
  O2-  O547  1  0.33070379  0.64993551  0.35618252  1
  O2-  O548  1  0.32823233  0.69219910  0.71938869  1
  O2-  O549  1  0.32392529  0.91054671  0.01600042  1
  O2-  O550  1  0.29316011  0.88206108  0.34956686  1
  O2-  O551  1  0.33527025  0.91872934  0.69158474  1
  O2-  O552  1  0.57008415  0.15440092  0.03077892  1
  O2-  O553  1  0.58159324  0.16129633  0.35209886  1
  O2-  O554  1  0.58550476  0.18991445  0.68974235  1
  O2-  O555  1  0.57736615  0.41556476  0.02566925  1
  O2-  O556  1  0.58529213  0.40861221  0.34956528  1
  O2-  O557  1  0.56102918  0.40689824  0.66792263  1
  O2-  O558  1  0.59396852  0.68729702  0.02981478  1
  O2-  O559  1  0.57674595  0.64517074  0.35720951  1
  O2-  O560  1  0.59714294  0.67379523  0.69437888  1
  O2-  O561  1  0.58133530  0.93885221  0.01082673  1
  O2-  O562  1  0.56385715  0.90152578  0.35471671  1
  O2-  O563  1  0.57451831  0.92153008  0.69402408  1
  O2-  O564  1  0.82715686  0.14820248  0.03104129  1
  O2-  O565  1  0.81476151  0.15758573  0.36227986  1
  O2-  O566  1  0.83766808  0.17926099  0.70291626  1
  O2-  O567  1  0.83117376  0.40141190  -0.02646990  1
  O2-  O568  1  0.84586283  0.41199536  0.33604059  1
  O2-  O569  1  0.82114421  0.42614815  0.67890123  1
  O2-  O570  1  0.83101935  0.66021915  0.02510239  1
  O2-  O571  1  0.83003837  0.66645788  0.34858102  1
  O2-  O572  1  0.79201675  0.60116908  0.69551326  1
  O2-  O573  1  0.83278883  0.91974976  0.02232354  1
  O2-  O574  1  0.83745877  0.91719635  0.35241240  1
  O2-  O575  1  0.83398486  0.91970252  0.69477006  1
