# generated using pymatgen
data_H2O
_symmetry_space_group_name_H-M   'P 1'
_cell_length_a   17.98581862
_cell_length_b   17.98687095
_cell_length_c   22.00486305
_cell_angle_alpha   90.02625308
_cell_angle_beta   89.99743122
_cell_angle_gamma   119.98944618
_symmetry_Int_Tables_number   1
_chemical_formula_structural   H2O
_chemical_formula_sum   'H384 O192'
_cell_volume   6165.68382663
_cell_formula_units_Z   192
loop_
 _symmetry_equiv_pos_site_id
 _symmetry_equiv_pos_as_xyz
  1  'x, y, z'
loop_
 _atom_type_symbol
 _atom_type_oxidation_number
  H+  1.0
  O2-  -2.0
loop_
 _atom_site_type_symbol
 _atom_site_label
 _atom_site_symmetry_multiplicity
 _atom_site_fract_x
 _atom_site_fract_y
 _atom_site_fract_z
 _atom_site_occupancy
  H+  H0  1  0.87844172  0.22090524  0.49217879  1
  H+  H1  1  0.61053789  0.84065401  0.83800995  1
  H+  H2  1  0.62386954  0.22109781  0.35994416  1
  H+  H3  1  0.38586675  0.51796703  0.66715964  1
  H+  H4  1  0.02090366  0.89403333  0.82583722  1
  H+  H5  1  0.38899780  0.76517691  0.84482302  1
  H+  H6  1  0.10328307  0.21976558  0.81917647  1
  H+  H7  1  0.36762197  0.12812535  0.79859720  1
  H+  H8  1  0.97968899  0.86847315  0.66234378  1
  H+  H9  1  0.61173297  0.47025401  0.50737771  1
  H+  H10  1  0.36702344  0.52310408  0.51875988  1
  H+  H11  1  0.47959790  0.11888399  0.51933547  1
  H+  H12  1  0.34848474  0.94639987  0.15349959  1
  H+  H13  1  0.78749345  0.38964249  0.67927760  1
  H+  H14  1  0.89426993  0.82359479  0.16993352  1
  H+  H15  1  0.13637134  0.76387609  0.32916544  1
  H+  H16  1  0.13618748  0.65609266  0.66489139  1
  H+  H17  1  0.88208968  0.11786860  0.81337303  1
  H+  H18  1  0.36557325  -0.01460268  0.50410435  1
  H+  H19  1  0.99225634  0.89400480  0.17689658  1
  H+  H20  1  0.37063652  0.23758897  0.00927411  1
  H+  H21  1  0.61442352  0.37884130  0.83374467  1
  H+  H22  1  0.85621414  0.20227077  0.34382153  1
  H+  H23  1  0.26439383  0.87318066  0.32752922  1
  H+  H24  1  0.86840914  0.72422120  0.67296045  1
  H+  H25  1  0.24102950  0.11624948  0.68202560  1
  H+  H26  1  0.66147754  0.07902973  0.89568998  1
  H+  H27  1  0.38252624  0.28006931  0.33572876  1
  H+  H28  1  0.52311377  0.13992175  0.00459687  1
  H+  H29  1  0.72041342  0.85176794  0.99488709  1
  H+  H30  1  0.61535227  0.14068970  0.67594038  1
  H+  H31  1  0.76509881  0.14459328  0.82664211  1
  H+  H32  1  0.97360698  0.33499468  0.32410239  1
  H+  H33  1  0.14576586  0.41942596  0.97805944  1
  H+  H34  1  0.78422140  0.67187538  0.14472114  1
  H+  H35  1  0.73809424  0.35347829  0.84277758  1
  H+  H36  1  0.63007320  0.65399590  0.36817254  1
  H+  H37  1  0.87496933  0.02832840  0.93990990  1
  H+  H38  1  0.62153893  0.88104277  0.15386117  1
  H+  H39  1  0.52247603  0.39627603  0.35326577  1
  H+  H40  1  0.78520249  0.89391213  0.34435089  1
  H+  H41  1  0.78497726  0.39506852  0.00204586  1
  H+  H42  1  0.89021658  0.77530264  0.83882743  1
  H+  H43  1  0.84838909  0.85992696  0.01620970  1
  H+  H44  1  0.76667712  0.88317220  0.49845527  1
  H+  H45  1  0.64152574  0.74367171  0.81873840  1
  H+  H46  1  0.39694015  0.37784783  0.17951847  1
  H+  H47  1  0.85579544  0.23522384  0.67096555  1
  H+  H48  1  0.23035997  0.43945977  0.93847709  1
  H+  H49  1  0.48571919  0.37744087  0.17555305  1
  H+  H50  1  0.52718083  0.37259769  -0.00691335  1
  H+  H51  1  0.14137026  0.61330688  0.50701758  1
  H+  H52  1  0.11231636  0.14011096  0.15141913  1
  H+  H53  1  0.61091027  0.97108766  0.82402518  1
  H+  H54  1  0.57702203  0.68201729  0.44656162  1
  H+  H55  1  0.29035922  0.88222925  0.67842244  1
  H+  H56  1  0.78367177  0.39211457  0.36273090  1
  H+  H57  1  0.36710261  0.73576730  0.49214786  1
  H+  H58  1  0.08325354  0.28762296  0.34060197  1
  H+  H59  1  0.15791260  0.56456092  0.27517897  1
  H+  H60  1  0.12671057  0.48230922  0.66563444  1
  H+  H61  1  0.57466663  0.41694030  0.41587960  1
  H+  H62  1  0.15521085  0.40180770  0.49736804  1
  H+  H63  1  0.19646472  0.34740092  0.59171191  1
  H+  H64  1  0.67161871  0.31674265  0.10696946  1
  H+  H65  1  0.62736747  0.73714200  0.14300425  1
  H+  H66  1  0.48099692  0.85395857  0.83862585  1
  H+  H67  1  0.72889890  0.85307347  0.09796287  1
  H+  H68  1  0.52675647  0.14301887  0.82497009  1
  H+  H69  1  0.37841123  0.61699758  0.51400155  1
  H+  H70  1  0.96621269  0.85446825  0.99421573  1
  H+  H71  1  0.11320245  0.62519061  0.16357226  1
  H+  H72  1  0.12895866  0.76012182  0.17053907  1
  H+  H73  1  0.64472871  0.01652173  0.17259909  1
  H+  H74  1  0.72445364  0.59522672  0.53016238  1
  H+  H75  1  0.03062597  0.38083768  0.16697677  1
  H+  H76  1  0.35306787  0.70497474  0.16024567  1
  H+  H77  1  0.33383707  0.38318128  0.35307155  1
  H+  H78  1  0.39232668  0.12038274  0.99422614  1
  H+  H79  1  0.32669852  0.56920602  0.86559048  1
  H+  H80  1  0.39298974  0.64079557  0.68400969  1
  H+  H81  1  0.21584491  0.59941213  0.18402040  1
  H+  H82  1  0.52389546  0.62223601  0.68243488  1
  H+  H83  1  0.26082892  0.40076520  0.01494775  1
  H+  H84  1  0.64358053  0.87203109  0.51798892  1
  H+  H85  1  0.14987678  0.03356070  0.51670035  1
  H+  H86  1  0.22849891  0.12753441  0.17692395  1
  H+  H87  1  0.63678722  0.09949465  0.16628023  1
  H+  H88  1  0.13020994  0.14379103  0.66784807  1
  H+  H89  1  0.85657146  0.72722737  0.53806526  1
  H+  H90  1  0.83846264  0.91958409  0.72964296  1
  H+  H91  1  0.12468056  0.23001402  0.65983915  1
  H+  H92  1  0.15005957  0.52725972  0.50671327  1
  H+  H93  1  0.03100701  0.63054053  0.34216605  1
  H+  H94  1  0.37714697  0.25599452  0.81317197  1
  H+  H95  1  0.87992452  1.01349556  0.51378446  1
  H+  H96  1  0.13757514  0.77593077  0.50738135  1
  H+  H97  1  0.89564697  0.53698203  0.51553558  1
  H+  H98  1  0.36058506  0.36294572  0.99764647  1
  H+  H99  1  0.14758168  0.03215527  0.67227563  1
  H+  H100  1  0.64275711  0.77096811  0.33318729  1
  H+  H101  1  0.89131569  0.87538842  0.33466532  1
  H+  H102  1  0.15160639  0.36818213  0.64829548  1
  H+  H103  1  0.51600920  0.63330793  0.00249448  1
  H+  H104  1  0.41815634  0.09468084  0.88955120  1
  H+  H105  1  0.27848304  0.64593167  0.49497949  1
  H+  H106  1  0.89199498  0.52216160  0.33620539  1
  H+  H107  1  0.63859620  0.37055863  0.36500407  1
  H+  H108  1  0.63913606  0.52098081  0.83500554  1
  H+  H109  1  0.60674601  0.72223865  -0.00177297  1
  H+  H110  1  0.01242532  0.14569277  0.34965876  1
  H+  H111  1  0.50371022  0.59478618  0.85956796  1
  H+  H112  1  0.78329069  0.63405330  0.82531030  1
  H+  H113  1  0.02503518  0.62545813  0.16062191  1
  H+  H114  1  0.63088313  0.36403804  0.51472439  1
  H+  H115  1  0.25264797  0.36548707  0.82302749  1
  H+  H116  1  0.78001317  0.12749276  0.15288419  1
  H+  H117  1  0.62891579  0.60856757  0.98690984  1
  H+  H118  1  0.62472319  0.40877161  0.13801218  1
  H+  H119  1  0.66961611  0.59253727  0.20385107  1
  H+  H120  1  0.90670231  0.80794759  0.46830790  1
  H+  H121  1  0.39877661  0.52710213  0.33847949  1
  H+  H122  1  0.27973083  0.38651011  0.67137622  1
  H+  H123  1  0.89520327  0.34640784  0.16876230  1
  H+  H124  1  0.37092767  0.35787803  0.51563996  1
  H+  H125  1  0.85434056  0.42480640  0.41227752  1
  H+  H126  1  0.13174328  0.26651755  0.00757554  1
  H+  H127  1  1.03036088  0.90220540  0.49374374  1
  H+  H128  1  0.28192252  0.14094535  0.49864239  1
  H+  H129  1  0.87383911  0.73979484  0.31665760  1
  H+  H130  1  0.78012547  0.16171518  0.00012819  1
  H+  H131  1  0.13616974  0.85437659  0.32815205  1
  H+  H132  1  0.62003824  0.49463074  0.13618255  1
  H+  H133  1  0.85174648  0.98034063  -0.05447572  1
  H+  H134  1  0.72228642  1.12113472  0.66815927  1
  H+  H135  1  0.27219795  0.14109576  0.35068264  1
  H+  H136  1  0.10208199  0.83302221  0.83584596  1
  H+  H137  1  0.33202012  0.41740980  0.11175264  1
  H+  H138  1  0.64962855  0.36188105  -0.01131847  1
  H+  H139  1  0.10536440  0.89161089  0.68052152  1
  H+  H140  1  0.14595895  0.16110174  0.49073706  1
  H+  H141  1  0.11461180  0.88784079  0.16391903  1
  H+  H142  1  0.61991214  0.89426436  0.67089489  1
  H+  H143  1  0.39095549  0.60880287  0.17926489  1
  H+  H144  1  0.38106853  0.27461010  0.50931695  1
  H+  H145  1  0.46598787  0.84278864  0.16533034  1
  H+  H146  1  0.48988412  0.87076623  0.65526603  1
  H+  H147  1  0.08594852  0.68997721  0.82372156  1
  H+  H148  1  0.65839572  0.65819407  0.81418002  1
  H+  H149  1  0.53333421  0.38645910  0.67483082  1
  H+  H150  1  0.39661127  1.02673226  0.67088303  1
  H+  H151  1  0.13170545  0.74244011  0.67349870  1
  H+  H152  1  0.02430653  0.62659804  0.00615429  1
  H+  H153  1  0.27803804  0.89695685  0.49920018  1
  H+  H154  1  0.52821625  0.89555919  0.50603387  1
  H+  H155  1  0.21912544  0.92479049  0.64175218  1
  H+  H156  1  0.92768751  0.36232551  0.48420271  1
  H+  H157  1  0.67280362  0.32485946  0.17848844  1
  H+  H158  1  0.99264786  0.39623807  0.96156078  1
  H+  H159  1  0.87103602  0.21205848  0.15854892  1
  H+  H160  1  0.41902936  0.09334024  0.57821939  1
  H+  H161  1  0.99256409  0.61928920  0.66590626  1
  H+  H162  1  0.36261914  0.88017595  0.32062093  1
  H+  H163  1  0.58164370  0.18481629  0.16658248  1
  H+  H164  1  0.73384285  0.88232367  0.66275875  1
  H+  H165  1  0.99473454  0.11202848  0.65393246  1
  H+  H166  1  0.84558972  0.24076024  0.82308117  1
  H+  H167  1  0.64560377  0.26841927  0.84101424  1
  H+  H168  1  0.15308497  0.14553256  -0.01148728  1
  H+  H169  1  0.67744340  0.08709767  0.26735278  1
  H+  H170  1  0.10595094  0.12447873  0.32246878  1
  H+  H171  1  0.37269072  0.48126814  0.16906540  1
  H+  H172  1  0.36578399  0.88913104  -0.00387734  1
  H+  H173  1  0.88463099  0.60520875  0.84317228  1
  H+  H174  1  0.89522451  0.51896597  0.84630920  1
  H+  H175  1  0.09582538  0.86125564  1.00739204  1
  H+  H176  1  0.73746679  0.62125368  0.35465513  1
  H+  H177  1  0.35321698  -0.02654229  0.32134262  1
  H+  H178  1  0.26155447  0.62673157  0.83221661  1
  H+  H179  1  0.68252102  0.32759440  0.93430938  1
  H+  H180  1  0.88368890  0.61255514  0.99063532  1
  H+  H181  1  0.39837041  0.02834943  0.83498343  1
  H+  H182  1  0.87673353  0.39126940  0.67295542  1
  H+  H183  1  0.86329905  0.11490849  0.34690547  1
  H+  H184  1  -0.00955306  0.37214515  0.65282493  1
  H+  H185  1  0.41457205  0.58152818  0.60851331  1
  H+  H186  1  0.42365105  0.82968585  0.92975875  1
  H+  H187  1  0.63016168  0.10772359  0.83668092  1
  H+  H188  1  0.76636042  0.63036100  -0.00429125  1
  H+  H189  1  0.12310984  0.39112648  0.16952220  1
  H+  H190  1  0.49031618  0.61006256  0.83207528  1
  H+  H191  1  0.23694419  0.60509994  0.00727130  1
  H+  H192  1  0.87824749  0.76797132  0.98334556  1
  H+  H193  1  0.13460536  0.86488022  0.50660330  1
  H+  H194  1  0.23030659  0.36330811  0.18196059  1
  H+  H195  1  0.63585482  0.86046367  -0.00635283  1
  H+  H196  1  0.96711114  0.11130612  0.80781150  1
  H+  H197  1  0.10593032  0.47057162  0.81587493  1
  H+  H198  1  0.89903515  1.01747821  0.66140151  1
  H+  H199  1  0.24253026  0.62291832  0.65672116  1
  H+  H200  1  0.64425320  0.63053375  0.14838754  1
  H+  H201  1  0.35428518  0.47735982  1.02320187  1
  H+  H202  1  0.64885116  0.27728463  0.66270473  1
  H+  H203  1  0.33180711  0.48269182  0.86205744  1
  H+  H204  1  0.88032681  0.09459820  0.16689005  1
  H+  H205  1  0.48466695  0.61928005  0.17387535  1
  H+  H206  1  0.52278230  0.88440120  0.00486679  1
  H+  H207  1  0.82035983  0.66584660  0.27023740  1
  H+  H208  1  0.99776240  0.17086409  0.97474131  1
  H+  H209  1  0.89608134  0.35450959  0.33279508  1
  H+  H210  1  0.80334249  0.39340567  0.14048135  1
  H+  H211  1  0.36395752  0.06498523  0.13410791  1
  H+  H212  1  0.66848861  0.33599896  0.41855352  1
  H+  H213  1  0.33736758  0.16484386  0.40512260  1
  H+  H214  1  0.14037044  0.27845879  0.17433448  1
  H+  H215  1  0.86017817  0.88959283  0.81764514  1
  H+  H216  1  0.22067703  0.85311527  -0.01451173  1
  H+  H217  1  0.90342360  0.30632229  -0.03107517  1
  H+  H218  1  0.64999117  0.36612032  0.66430282  1
  H+  H219  1  0.85623020  0.40209146  0.53057365  1
  H+  H220  1  0.58214082  0.67035200  0.08874728  1
  H+  H221  1  0.03315045  0.64130585  0.49782317  1
  H+  H222  1  0.38025342  0.61316216  0.00835493  1
  H+  H223  1  0.12579164  0.59666025  0.83051321  1
  H+  H224  1  0.92724609  0.85951787  0.27152874  1
  H+  H225  1  0.62133470  0.13204507  0.35054136  1
  H+  H226  1  0.38113201  0.88790791  0.67217194  1
  H+  H227  1  0.88394658  0.10479975  0.51525094  1
  H+  H228  1  0.82958903  0.91812753  0.43756545  1
  H+  H229  1  0.87265287  0.64808582  0.53783184  1
  H+  H230  1  0.91382431  0.17661620  0.97387493  1
  H+  H231  1  0.87537359  0.57282673  0.18404690  1
  H+  H232  1  0.38897223  0.02963602  0.98905063  1
  H+  H233  1  0.34288870  0.36564165  0.82353517  1
  H+  H234  1  0.63475687  0.11196812  0.99230148  1
  H+  H235  1  0.25738936  0.40583759  0.35676408  1
  H+  H236  1  0.12835455  0.80108716  0.89479055  1
  H+  H237  1  0.38717667  0.77111788  0.98893495  1
  H+  H238  1  0.34911871  0.72184318  0.33825064  1
  H+  H239  1  0.61100161  0.87533296  0.30031846  1
  H+  H240  1  0.89494312  0.61260984  0.32078930  1
  H+  H241  1  0.11079487  0.57342439  0.99086913  1
  H+  H242  1  0.89483751  0.47016164  0.15513664  1
  H+  H243  1  0.61804925  0.98405397  0.51513240  1
  H+  H244  1  0.51622566  0.64833505  0.50472971  1
  H+  H245  1  0.37198418  0.25093290  0.16983628  1
  H+  H246  1  0.87329479  0.63835967  0.67523699  1
  H+  H247  1  0.09225122  0.18994564  0.39894990  1
  H+  H248  1  0.73449642  0.12107481  0.51440132  1
  H+  H249  1  0.43869949  0.72591665  0.72224165  1
  H+  H250  1  0.46968539  0.85829119  0.30370526  1
  H+  H251  1  0.38157410  0.89545312  0.83255890  1
  H+  H252  1  0.63576264  0.77856597  0.51497664  1
  H+  H253  1  0.64505350  0.12262393  0.51507730  1
  H+  H254  1  0.40481058  0.37570829  0.66545882  1
  H+  H255  1  0.61223011  0.96575983  0.30083209  1
  H+  H256  1  0.43501845  0.39490923  0.95147655  1
  H+  H257  1  0.14940995  0.46366762  0.33973513  1
  H+  H258  1  0.12380307  -0.01777861  0.16023025  1
  H+  H259  1  0.12675385  0.51077107  0.18106149  1
  H+  H260  1  0.88370904  0.69889293  0.14392302  1
  H+  H261  1  0.02672742  0.88928840  0.34289188  1
  H+  H262  1  0.32727809  0.66874509  0.39999843  1
  H+  H263  1  0.87534511  -0.00917872  0.34675268  1
  H+  H264  1  0.45548129  0.08474435  0.15785287  1
  H+  H265  1  0.42928654  0.34429901  0.60551676  1
  H+  H266  1  0.22177800  0.60219988  0.33300408  1
  H+  H267  1  0.36709670  0.16137133  0.17647966  1
  H+  H268  1  0.66508426  0.08823129  0.60836578  1
  H+  H269  1  0.11316634  -0.01859013  0.82806615  1
  H+  H270  1  0.38702075  0.87270051  0.50365234  1
  H+  H271  1  0.13860763  0.75977950  0.99303540  1
  H+  H272  1  0.37487477  0.84040746  0.15850988  1
  H+  H273  1  0.64733779  0.53690051  0.36836738  1
  H+  H274  1  0.39044706  0.11223888  0.68243094  1
  H+  H275  1  0.88059775  0.51369475  0.99470260  1
  H+  H276  1  0.76982174  0.39332836  0.50735944  1
  H+  H277  1  0.11699605  0.62495461  0.34365831  1
  H+  H278  1  0.23267549  0.13094571  -0.00753940  1
  H+  H279  1  1.01320373  0.36376001  0.50062203  1
  H+  H280  1  0.86798208  0.89081761  0.66798350  1
  H+  H281  1  0.16322197  0.25715861  0.48710907  1
  H+  H282  1  0.72779411  0.09686860  0.32960540  1
  H+  H283  1  0.53902000  0.64420620  0.34909626  1
  H+  H284  1  0.73113631  0.60669822  0.66854824  1
  H+  H285  1  0.64453569  0.51377680  0.67325256  1
  H+  H286  1  0.11622566  0.35326446  0.82822530  1
  H+  H287  1  0.64139786  0.02724448  0.99224640  1
  H+  H288  1  0.68619363  0.81436977  0.26979822  1
  H+  H289  1  0.14817534  0.55779713  0.89077671  1
  H+  H290  1  0.63142723  0.51992362  0.98356187  1
  H+  H291  1  0.85539447  0.40654339  0.77260560  1
  H+  H292  1  0.15430723  0.09045236  0.22849488  1
  H+  H293  1  0.67346764  0.84643338  0.60509677  1
  H+  H294  1  0.31223841  0.63404797  0.10866670  1
  H+  H295  1  0.91188534  0.36260887  0.88148473  1
  H+  H296  1  0.26972376  0.69132992  0.04128801  1
  H+  H297  1  0.58278193  0.90181268  0.21261665  1
  H+  H298  1  0.18598381  0.09267903  0.57639719  1
  H+  H299  1  0.59360094  0.56837143  0.26683662  1
  H+  H300  1  0.40243564  0.78046298  0.65517515  1
  H+  H301  1  0.07775223  0.92330321  0.74074139  1
  H+  H302  1  0.83437905  0.15373112  0.43765955  1
  H+  H303  1  0.92537949  0.83579959  0.60090241  1
  H+  H304  1  0.25892206  0.86007530  0.15260002  1
  H+  H305  1  0.08237370  0.64822434  0.06572691  1
  H+  H306  1  0.32972730  0.41348070  0.73521415  1
  H+  H307  1  0.38206567  0.56261288  0.95007170  1
  H+  H308  1  0.83077823  0.67644005  0.05180051  1
  H+  H309  1  0.91544519  0.07573797  0.28454986  1
  H+  H310  1  0.52820405  0.14543338  0.67781330  1
  H+  H311  1  0.91162194  0.57839495  0.92577695  1
  H+  H312  1  0.88179123  0.87220943  0.49880451  1
  H+  H313  1  0.58444737  0.16048888  0.44524595  1
  H+  H314  1  0.93305858  0.34089123  0.59352312  1
  H+  H315  1  0.58286260  0.41594276  0.05187574  1
  H+  H316  1  0.65530836  0.55934253  0.57986176  1
  H+  H317  1  0.63428598  0.92195991  0.41870510  1
  H+  H318  1  0.66008031  0.91545808  0.39446262  1
  H+  H319  1  0.90430045  0.52764085  0.66973258  1
  H+  H320  1  0.02211998  0.13519027  0.15310799  1
  H+  H321  1  0.91241598  0.83684823  0.89637371  1
  H+  H322  1  0.60252314  0.25301820  0.23934610  1
  H+  H323  1  0.09085152  0.66703598  0.43675575  1
  H+  H324  1  0.07126428  0.89776368  0.06563967  1
  H+  H325  1  0.32855829  0.90821826  0.05536966  1
  H+  H326  1  0.35583147  0.92363640  0.77167819  1
  H+  H327  1  0.41413572  0.34406859  0.27984369  1
  H+  H328  1  0.41756686  0.83887622  0.56057958  1
  H+  H329  1  0.66994183  0.33643013  0.57136250  1
  H+  H330  1  0.08791415  0.16831814  0.75713865  1
  H+  H331  1  0.09340160  0.92897634  0.43724435  1
  H+  H332  1  0.11158886  0.97749853  0.33938805  1
  H+  H333  1  0.38166618  0.06521114  0.25589056  1
  H+  H334  1  0.30117270  0.40765587  0.45234108  1
  H+  H335  1  0.52249766  0.37325666  0.82792903  1
  H+  H336  1  0.75385169  0.89469123  0.16049495  1
  H+  H337  1  0.17373994  0.84809336  0.59583875  1
  H+  H338  1  0.58955380  0.17336345  0.76690307  1
  H+  H339  1  0.64074237  0.81100088  0.89766004  1
  H+  H340  1  0.09412917  0.19706051  0.06068983  1
  H+  H341  1  0.84814576  0.93917709  0.04785034  1
  H+  H342  1  0.82474130  0.18083001  0.73227812  1
  H+  H343  1  0.61320951  0.22627248  0.50209053  1
  H+  H344  1  0.12150027  0.42027680  0.43641581  1
  H+  H345  1  0.38715883  0.29410442  0.87966511  1
  H+  H346  1  0.08851031  0.65148906  0.76011516  1
  H+  H347  1  0.62001705  0.68127585  0.74899088  1
  H+  H348  1  0.85758470  0.42778354  0.05658979  1
  H+  H349  1  0.92309301  0.56500857  0.24211175  1
  H+  H350  1  0.16494510  0.08760575  0.89594933  1
  H+  H351  1  0.58014885  0.91672409  0.06436886  1
  H+  H352  1  0.58867892  0.40696179  0.73671618  1
  H+  H353  1  0.84634687  0.66652299  0.76838665  1
  H+  H354  1  0.33543665  0.65397592  0.78198964  1
  H+  H355  1  0.58397629  0.52245832  0.26551280  1
  H+  H356  1  0.93584886  0.58950790  0.57651236  1
  H+  H357  1  0.39783637  0.81806153  0.25452468  1
  H+  H358  1  0.37247869  0.14480628  0.49961085  1
  H+  H359  1  0.85587598  0.97597768  0.80671874  1
  H+  H360  1  0.66859979  0.58331986  0.89243703  1
  H+  H361  1  0.18293841  0.59323505  0.59738256  1
  H+  H362  1  0.51688783  0.38394452  0.50400266  1
  H+  H363  1  0.90097267  0.95288360  0.17626908  1
  H+  H364  1  0.13177235  0.10814877  0.83482725  1
  H+  H365  1  0.08994606  0.41746423  0.72163959  1
  H+  H366  1  0.01132484  0.39141016  0.80695959  1
  H+  H367  1  0.61698002  0.22623024  0.00735801  1
  H+  H368  1  0.84218086  0.18956391  0.05703598  1
  H+  H369  1  0.57141126  0.15102986  0.09674403  1
  H+  H370  1  0.34566415  0.18534947  0.07122227  1
  H+  H371  1  0.58207536  0.91397369  0.76312243  1
  H+  H372  1  0.92247933  0.07546915  0.59221509  1
  H+  H373  1  0.91289468  0.31456211  0.23268787  1
  H+  H374  1  0.64898013  0.27099032  0.24922301  1
  H+  H375  1  0.85672441  0.70287793  0.42627449  1
  H+  H376  1  0.43412546  0.57711384  0.27560864  1
  H+  H377  1  0.14728627  0.33343535  0.89047956  1
  H+  H378  1  0.16119778  0.81978841  0.22991852  1
  H+  H379  1  0.04598274  0.03923099  0.28995695  1
  H+  H380  1  0.61271072  0.61827406  0.67668544  1
  H+  H381  1  0.36515929  0.09717300  0.32071116  1
  H+  H382  1  0.88946236  0.68845266  0.42425715  1
  H+  H383  1  0.61176298  0.98052383  0.67458516  1
  O2-  O384  1  0.08173836  0.17071809  0.13839620  1
  O2-  O385  1  0.12852425  0.19811907  0.46951399  1
  O2-  O386  1  0.08001025  0.16125752  0.80190250  1
  O2-  O387  1  0.09104728  0.42065102  0.15579123  1
  O2-  O388  1  0.11576332  0.42325756  0.48124361  1
  O2-  O389  1  0.07226699  0.41114875  0.79745415  1
  O2-  O390  1  0.08431235  0.65605013  0.14451937  1
  O2-  O391  1  0.09366377  0.67088806  0.48206809  1
  O2-  O392  1  0.07608788  0.63588978  0.80341326  1
  O2-  O393  1  0.08684599  0.92039559  0.14926703  1
  O2-  O394  1  0.09213306  0.92818327  0.48249988  1
  O2-  O395  1  0.08073260  0.92068814  0.80992934  1
  O2-  O396  1  0.33944769  0.18885106  0.15523552  1
  O2-  O397  1  0.34099403  0.17173498  0.48011641  1
  O2-  O398  1  0.33769263  0.15831331  0.78161269  1
  O2-  O399  1  0.34187411  0.41926001  0.15648740  1
  O2-  O400  1  0.30426725  0.40844166  0.49792908  1
  O2-  O401  1  0.31548343  0.40050524  0.81373782  1
  O2-  O402  1  0.32271639  0.64150222  0.15287525  1
  O2-  O403  1  0.33840351  0.67373017  0.47930590  1
  O2-  O404  1  0.32577881  0.65392533  0.82631171  1
  O2-  O405  1  0.31906918  0.88793009  0.13572097  1
  O2-  O406  1  0.33857538  0.92702980  0.48597592  1
  O2-  O407  1  0.35834245  0.93099833  0.81642787  1
  O2-  O408  1  0.56015335  0.13333701  0.14143112  1
  O2-  O409  1  0.58316925  0.16443732  0.49110086  1
  O2-  O410  1  0.58897169  0.17117777  0.81279451  1
  O2-  O411  1  0.58705084  0.43193318  0.12659739  1
  O2-  O412  1  0.57713276  0.40852183  0.48926967  1
  O2-  O413  1  0.58456441  0.40895459  0.81838727  1
  O2-  O414  1  0.59034740  0.67501320  0.13448624  1
  O2-  O415  1  0.57630253  0.68400699  0.49158335  1
  O2-  O416  1  0.65785136  0.70608302  0.79104746  1
  O2-  O417  1  0.58357938  0.90387111  0.16618253  1
  O2-  O418  1  0.59156830  0.92287087  0.50321371  1
  O2-  O419  1  0.58011949  0.91049449  0.80885483  1
  O2-  O420  1  0.84058868  0.15368602  0.13893855  1
  O2-  O421  1  0.83775456  0.15978467  0.48329434  1
  O2-  O422  1  0.82425672  0.18096058  0.81026441  1
  O2-  O423  1  0.86482271  0.41495133  0.13232259  1
  O2-  O424  1  0.83379612  0.42231470  0.49814233  1
  O2-  O425  1  0.85460612  0.40522875  0.81870490  1
  O2-  O426  1  0.84269290  0.71502946  0.12905724  1
  O2-  O427  1  0.83149752  0.66686797  0.54965539  1
  O2-  O428  1  0.84513989  0.66426216  0.81411338  1
  O2-  O429  1  0.86724010  0.97968259  0.16097594  1
  O2-  O430  1  0.82917208  0.91441850  0.48325644  1
  O2-  O431  1  0.82651931  0.91247322  0.79781582  1
  O2-  O432  1  0.16614124  0.08904925  0.18432664  1
  O2-  O433  1  0.18446001  0.09373183  0.53105439  1
  O2-  O434  1  0.16042421  0.07745863  0.85124555  1
  O2-  O435  1  0.16923590  0.33559875  0.19380411  1
  O2-  O436  1  0.21213948  0.35860551  0.51674287  1
  O2-  O437  1  0.14666625  0.32451687  0.84601602  1
  O2-  O438  1  0.15503652  0.57363182  0.19701243  1
  O2-  O439  1  0.17454039  0.58667238  0.52351043  1
  O2-  O440  1  0.15854318  0.56660280  0.84638667  1
  O2-  O441  1  0.16063744  0.82146896  0.18472585  1
  O2-  O442  1  0.16488203  0.83579800  0.52382118  1
  O2-  O443  1  0.10769052  0.78516650  0.85269186  1
  O2-  O444  1  0.39306124  0.05840491  0.16948160  1
  O2-  O445  1  0.41852422  0.09310395  0.53282364  1
  O2-  O446  1  0.42224024  0.09192696  0.84488377  1
  O2-  O447  1  0.42849823  0.34768790  0.19492278  1
  O2-  O448  1  0.40918305  0.33463742  0.52534087  1
  O2-  O449  1  0.40207507  0.31138465  0.83724965  1
  O2-  O450  1  0.42752418  0.58435658  0.19273790  1
  O2-  O451  1  0.40315947  0.58315746  0.53275573  1
  O2-  O452  1  0.32520436  0.52222261  0.89077113  1
  O2-  O453  1  0.40430555  0.81063040  0.17661714  1
  O2-  O454  1  0.41577458  0.83863335  0.51540223  1
  O2-  O455  1  0.42259012  0.82624319  0.85832593  1
  O2-  O456  1  0.67468206  0.07901878  0.18228128  1
  O2-  O457  1  0.67573864  0.09387113  0.53218831  1
  O2-  O458  1  0.65988802  0.07615358  0.85046445  1
  O2-  O459  1  0.69074541  0.35809139  0.14045605  1
  O2-  O460  1  0.66779192  0.33771007  0.52540567  1
  O2-  O461  1  0.67885808  0.32857639  0.85862720  1
  O2-  O462  1  0.67895091  0.60130708  0.15995103  1
  O2-  O463  1  0.66153227  0.55716177  0.53503204  1
  O2-  O464  1  0.67321769  0.58249776  0.84729555  1
  O2-  O465  1  0.70252400  0.85166902  0.13787147  1
  O2-  O466  1  0.67551257  0.84065324  0.52805916  1
  O2-  O467  1  0.61482833  0.79245898  0.85685107  1
  O2-  O468  1  0.91187536  0.06679952  0.18665595  1
  O2-  O469  1  0.91200263  0.07286140  0.53125006  1
  O2-  O470  1  0.90409170  0.07980614  0.80143986  1
  O2-  O471  1  0.91793240  0.31176435  0.18774455  1
  O2-  O472  1  0.94975359  0.33469132  0.51093468  1
  O2-  O473  1  0.90137764  0.35907306  0.83313068  1
  O2-  O474  1  0.92143296  0.56226044  0.19580729  1
  O2-  O475  1  0.93487355  0.59555471  0.53094724  1
  O2-  O476  1  0.90703935  0.57251713  0.86673836  1
  O2-  O477  1  0.93258106  0.87700748  0.19211070  1
  O2-  O478  1  0.91841920  0.84269843  0.50501719  1
  O2-  O479  1  0.91517054  0.83635249  0.85116853  1
  O2-  O480  1  0.10647256  0.07425381  0.30117270  1
  O2-  O481  1  0.18601405  0.09181743  0.65739023  1
  O2-  O482  1  0.17585937  0.10868993  0.97398164  1
  O2-  O483  1  0.07706430  0.33904513  0.32902466  1
  O2-  O484  1  0.18326686  0.33798510  0.63687152  1
  O2-  O485  1  0.18649163  0.39446721  0.96493512  1
  O2-  O486  1  0.15945432  0.56141988  0.32066176  1
  O2-  O487  1  0.18282201  0.59582548  0.64345597  1
  O2-  O488  1  0.14182759  0.54578932  0.97196319  1
  O2-  O489  1  0.16518957  0.82375794  0.31171333  1
  O2-  O490  1  0.18369954  0.86226389  0.64115381  1
  O2-  O491  1  0.15848813  0.81805305  0.97665936  1
  O2-  O492  1  0.38400359  0.05981818  0.30016426  1
  O2-  O493  1  0.42149358  0.08773011  0.65829504  1
  O2-  O494  1  0.42253164  0.09132070  0.97702163  1
  O2-  O495  1  0.40745489  0.34136790  0.32462570  1
  O2-  O496  1  0.43967577  0.35120605  0.64988667  1
  O2-  O497  1  0.39738712  0.34392122  0.97518046  1
  O2-  O498  1  0.44697762  0.57743609  0.31920312  1
  O2-  O499  1  0.41935554  0.58025133  0.65402983  1
  O2-  O500  1  0.40708659  0.58126434  0.99261454  1
  O2-  O501  1  0.40584460  0.83017861  0.29917767  1
  O2-  O502  1  0.42792383  0.83963117  0.63953876  1
  O2-  O503  1  0.42125266  0.83128718  0.97627257  1
  O2-  O504  1  0.66867558  0.07371262  0.31131201  1
  O2-  O505  1  0.66007359  0.08594346  0.65377050  1
  O2-  O506  1  0.66834419  0.08641211  0.97580286  1
  O2-  O507  1  0.67366765  0.34223905  0.37437728  1
  O2-  O508  1  0.68212348  0.33812926  0.64745922  1
  O2-  O509  1  0.68101991  0.33042088  0.98029995  1
  O2-  O510  1  0.68131728  0.60002691  0.37397842  1
  O2-  O511  1  0.66915670  0.57408197  0.65764119  1
  O2-  O512  1  0.66238000  0.58142926  0.97161350  1
  O2-  O513  1  0.67436430  0.82880432  0.30989927  1
  O2-  O514  1  0.67276900  0.85386921  0.65008956  1
  O2-  O515  1  0.66103595  0.82590502  0.97802588  1
  O2-  O516  1  0.91607426  0.07567916  0.32898009  1
  O2-  O517  1  0.93194612  0.07843913  0.64159738  1
  O2-  O518  1  0.94865179  0.16012525  0.94898519  1
  O2-  O519  1  0.91323883  0.31601572  0.31308218  1
  O2-  O520  1  0.92969495  0.34611578  0.63801266  1
  O2-  O521  1  0.93370492  0.35866528  0.94387352  1
  O2-  O522  1  0.92438847  0.57870450  0.31446573  1
  O2-  O523  1  0.93152892  0.58666974  0.65213107  1
  O2-  O524  1  0.91540475  0.58238697  0.97690932  1
  O2-  O525  1  0.92322011  0.84654888  0.31591421  1
  O2-  O526  1  0.91985857  0.83313379  0.64524580  1
  O2-  O527  1  0.90566461  0.83094042  0.97721942  1
  O2-  O528  1  0.10261062  0.20495431  0.01587572  1
  O2-  O529  1  0.07634022  0.18981369  0.35498826  1
  O2-  O530  1  0.09348120  0.17021780  0.67621593  1
  O2-  O531  1  0.09128473  0.45528322  -0.00726382  1
  O2-  O532  1  0.14928964  0.41227121  0.35925820  1
  O2-  O533  1  0.09555014  0.42037787  0.67610960  1
  O2-  O534  1  0.08380616  0.64708707  0.02021420  1
  O2-  O535  1  0.09160819  0.66147064  0.35658233  1
  O2-  O536  1  0.10124187  0.68056302  0.68141518  1
  O2-  O537  1  0.05789453  0.88256551  0.02247855  1
  O2-  O538  1  0.08879307  0.91878621  0.35550353  1
  O2-  O539  1  0.07735038  0.92402799  0.69344529  1
  O2-  O540  1  0.34887654  0.17994722  0.02658596  1
  O2-  O541  1  0.33305014  0.16383106  0.35896833  1
  O2-  O542  1  0.33631635  0.15136642  0.71685669  1
  O2-  O543  1  0.31761021  0.41541850  0.03412111  1
  O2-  O544  1  0.31386223  0.41939937  0.37321179  1
  O2-  O545  1  0.33835027  0.41899888  0.69031658  1
  O2-  O546  1  0.28977431  0.65256778  0.02782757  1
  O2-  O547  1  0.31711153  0.66359670  0.35527925  1
  O2-  O548  1  0.38248791  0.68614788  0.70506953  1
  O2-  O549  1  0.33441236  0.91821550  0.01073032  1
  O2-  O550  1  0.32887069  0.90929801  0.33623476  1
  O2-  O551  1  0.35053709  0.91614789  0.69145920  1
  O2-  O552  1  0.58190036  0.16673656  0.02409618  1
  O2-  O553  1  0.59184851  0.15969751  0.37039633  1
  O2-  O554  1  0.58984354  0.17650379  0.69103682  1
  O2-  O555  1  0.58658985  0.40965745  0.00658869  1
  O2-  O556  1  0.58139831  0.42173446  0.36999109  1
  O2-  O557  1  0.59419634  0.41085966  0.69180677  1
  O2-  O558  1  0.57803508  0.66157384  0.01424167  1
  O2-  O559  1  0.59672796  0.68541204  0.36730757  1
  O2-  O560  1  0.58554418  0.65080779  0.69409077  1
  O2-  O561  1  0.58370828  0.91622591  0.02008638  1
  O2-  O562  1  0.57865841  0.90434061  0.28646832  1
  O2-  O563  1  0.58168292  0.91832316  0.68647663  1
  O2-  O564  1  0.83779832  0.20543808  0.01466251  1
  O2-  O565  1  0.82668877  0.14343672  0.36060630  1
  O2-  O566  1  0.81928121  0.17697677  0.68713977  1
  O2-  O567  1  0.84607399  0.43589960  0.01338831  1
  O2-  O568  1  0.84762328  0.42123371  0.36761955  1
  O2-  O569  1  0.84782628  0.41867645  0.69504689  1
  O2-  O570  1  0.82819874  0.66002550  0.00850654  1
  O2-  O571  1  0.84457171  0.67525855  0.31092875  1
  O2-  O572  1  0.84163756  0.66618861  0.69180618  1
  O2-  O573  1  0.81052958  0.87849072  0.03868970  1
  O2-  O574  1  0.84398362  0.92285098  0.36135685  1
  O2-  O575  1  0.84437491  0.92711062  0.68257796  1
