# generated using pymatgen
data_H2O
_symmetry_space_group_name_H-M   'P 1'
_cell_length_a   17.98071108
_cell_length_b   17.98290086
_cell_length_c   22.00003716
_cell_angle_alpha   89.99185837
_cell_angle_beta   89.98629693
_cell_angle_gamma   119.97647311
_symmetry_Int_Tables_number   1
_chemical_formula_structural   H2O
_chemical_formula_sum   'H384 O192'
_cell_volume   6162.02615317
_cell_formula_units_Z   192
loop_
 _symmetry_equiv_pos_site_id
 _symmetry_equiv_pos_as_xyz
  1  'x, y, z'
loop_
 _atom_type_symbol
 _atom_type_oxidation_number
  H+  1.0
  O2-  -2.0
loop_
 _atom_site_type_symbol
 _atom_site_label
 _atom_site_symmetry_multiplicity
 _atom_site_fract_x
 _atom_site_fract_y
 _atom_site_fract_z
 _atom_site_occupancy
  H+  H0  1  0.61661312  0.89844158  0.00650621  1
  H+  H1  1  0.38236987  0.77594409  0.50873376  1
  H+  H2  1  0.65785468  0.65633399  0.35168054  1
  H+  H3  1  0.77105933  0.12617989  0.00821289  1
  H+  H4  1  0.71498999  0.86512437  0.33165520  1
  H+  H5  1  0.85630472  0.84930125  0.18119715  1
  H+  H6  1  0.62555722  0.23133409  0.00459315  1
  H+  H7  1  0.75871677  0.62344010  0.52447468  1
  H+  H8  1  0.35614134  -0.02852099  0.33949327  1
  H+  H9  1  0.53777355  0.64432078  0.83632161  1
  H+  H10  1  0.74412509  0.38402672  0.83626861  1
  H+  H11  1  0.60597651  0.97652365  0.34460850  1
  H+  H12  1  0.61753043  0.46986694  0.50842534  1
  H+  H13  1  0.41966930  1.01183476  0.66176901  1
  H+  H14  1  0.74454311  0.60702269  0.68123672  1
  H+  H15  1  0.86799350  0.50232563  0.51839198  1
  H+  H16  1  0.09622612  0.46788361  0.49459686  1
  H+  H17  1  0.36212927  0.13807106  0.49965126  1
  H+  H18  1  0.06264597  0.80830082  0.96293045  1
  H+  H19  1  0.28838141  0.64167659  0.82477423  1
  H+  H20  1  0.88573025  0.10446402  0.99451692  1
  H+  H21  1  0.37259915  0.38999721  0.15565180  1
  H+  H22  1  0.12628559  0.52648356  0.32926244  1
  H+  H23  1  0.27691312  0.15062894  0.00094517  1
  H+  H24  1  0.39932452  0.36613031  0.83280767  1
  H+  H25  1  0.38538147  0.36539746  0.34953124  1
  H+  H26  1  0.72586428  0.11034976  0.17610826  1
  H+  H27  1  0.12980481  0.77603458  0.33445333  1
  H+  H28  1  0.12690762  0.61117381  0.50222490  1
  H+  H29  1  -0.01200275  0.35487424  0.00406420  1
  H+  H30  1  0.85902552  -0.02653009  0.49853958  1
  H+  H31  1  0.36363611  0.15911129  0.67122149  1
  H+  H32  1  0.12692217  0.11605724  0.48813422  1
  H+  H33  1  0.63331895  0.86754064  0.51154136  1
  H+  H34  1  0.16441511  0.59414193  0.77727766  1
  H+  H35  1  0.37973127  0.86357482  0.50914083  1
  H+  H36  1  0.34930293  0.67828692  0.07687673  1
  H+  H37  1  0.12936240  1.00032333  0.64280498  1
  H+  H38  1  0.09721867  0.65091370  0.81709224  1
  H+  H39  1  1.03187032  0.13190874  0.67999716  1
  H+  H40  1  0.30867795  0.41001312  0.78723820  1
  H+  H41  1  0.58934614  0.16808115  0.10050483  1
  H+  H42  1  0.59841828  0.61048659  0.68062125  1
  H+  H43  1  0.85457872  0.63904349  0.83612143  1
  H+  H44  1  0.61868743  0.48678095  0.83466723  1
  H+  H45  1  0.49249520  0.62218730  0.66785820  1
  H+  H46  1  0.21927046  0.86486465  0.33667077  1
  H+  H47  1  0.49238730  0.85800059  0.84637196  1
  H+  H48  1  0.61793047  0.96789751  0.83024730  1
  H+  H49  1  0.47104165  0.86236347  0.33295180  1
  H+  H50  1  0.21812282  0.61524370  0.33225055  1
  H+  H51  1  0.01753863  0.63965896  0.01165210  1
  H+  H52  1  0.52569562  0.89391455  0.49725599  1
  H+  H53  1  0.64451745  0.63026728  0.85027661  1
  H+  H54  1  0.17465319  0.08114410  0.92774535  1
  H+  H55  1  0.47692908  0.60263098  0.99766567  1
  H+  H56  1  0.10465212  0.88496603  0.34181898  1
  H+  H57  1  0.36539241  0.22694717  0.34565391  1
  H+  H58  1  0.15346280  0.86622250  0.17805290  1
  H+  H59  1  0.05233568  0.09136351  0.08948196  1
  H+  H60  1  0.61982925  0.47949490  0.34583724  1
  H+  H61  1  0.53105878  0.39169825  0.35137797  1
  H+  H62  1  0.88065812  0.10176322  0.16956343  1
  H+  H63  1  0.88285762  0.51353974  0.17527745  1
  H+  H64  1  -0.00721717  0.86728591  0.01318154  1
  H+  H65  1  0.72462665  0.88021985  0.99288036  1
  H+  H66  1  0.11502339  0.88430384  0.82342661  1
  H+  H67  1  -0.03128165  0.35595746  0.17347194  1
  H+  H68  1  0.36561784  0.39060848  0.50726747  1
  H+  H69  1  0.28866515  0.87728554  0.83112097  1
  H+  H70  1  0.62825685  0.39095867  -0.00732329  1
  H+  H71  1  0.84476470  0.56330106  0.69043938  1
  H+  H72  1  0.36733806  0.89450939  0.01399221  1
  H+  H73  1  0.75719464  0.12370502  0.49217458  1
  H+  H74  1  0.07290595  0.21529087  0.14722942  1
  H+  H75  1  1.00476351  0.91386205  1.01296741  1
  H+  H76  1  0.71104943  0.59609394  0.17212765  1
  H+  H77  1  0.17964960  1.01298255  0.00366223  1
  H+  H78  1  0.64453683  0.11616972  0.99578443  1
  H+  H79  1  0.27703727  0.38860360  0.35627999  1
  H+  H80  1  0.10939746  0.96953469  0.82485726  1
  H+  H81  1  0.34182057  0.92116274  0.10582265  1
  H+  H82  1  0.01389794  0.88446334  0.49763534  1
  H+  H83  1  0.84607686  0.87341291  0.67091058  1
  H+  H84  1  0.12650977  0.97868424  0.15448515  1
  H+  H85  1  0.88319151  1.01435685  -0.00538558  1
  H+  H86  1  0.87380617  0.48365776  0.33768003  1
  H+  H87  1  0.11532152  0.14347272  0.34491805  1
  H+  H88  1  1.03258678  0.15349801  0.34312783  1
  H+  H89  1  0.88096725  0.87096845  0.34039558  1
  H+  H90  1  0.14460778  0.82285398  0.55685007  1
  H+  H91  1  0.26911177  0.13744000  0.15202144  1
  H+  H92  1  0.06921415  0.69211847  0.66096762  1
  H+  H93  1  0.73898507  0.37237496  -0.00321815  1
  H+  H94  1  0.19036005  0.53818643  1.01072840  1
  H+  H95  1  0.34647059  0.66726088  0.73363876  1
  H+  H96  1  0.16821684  0.91097430  0.00433789  1
  H+  H97  1  0.36018995  0.47370365  1.00346424  1
  H+  H98  1  0.65257498  0.86574305  0.83108776  1
  H+  H99  1  0.64126371  0.73622194  0.35338210  1
  H+  H100  1  0.22864330  0.11581448  0.32866846  1
  H+  H101  1  0.89078514  0.53648773  1.00457264  1
  H+  H102  1  0.91219578  0.85257623  0.27000295  1
  H+  H103  1  0.39336481  0.61254711  0.99621005  1
  H+  H104  1  0.13818282  0.10418204  -0.01048315  1
  H+  H105  1  0.39122150  0.86675526  0.17695632  1
  H+  H106  1  0.12388367  0.34379265  0.99936017  1
  H+  H107  1  0.84681045  0.21403314  0.49653121  1
  H+  H108  1  0.35645146  0.72748231  0.34253617  1
  H+  H109  1  0.84208840  0.11976891  0.81916295  1
  H+  H110  1  0.86055891  0.37951359  0.16422345  1
  H+  H111  1  0.93964978  0.84010753  0.18205090  1
  H+  H112  1  0.99963569  0.86328376  0.67587747  1
  H+  H113  1  0.74023393  0.62982577  0.84638279  1
  H+  H114  1  0.50993163  0.62002912  0.32256768  1
  H+  H115  1  0.82194112  0.29816936  0.95800481  1
  H+  H116  1  0.62639831  0.86555193  0.33328516  1
  H+  H117  1  0.22045950  0.10933723  0.83929025  1
  H+  H118  1  0.36414906  0.22889580  0.14891728  1
  H+  H119  1  0.29296775  0.65866136  0.01782755  1
  H+  H120  1  0.28617209  0.89333405  0.16892066  1
  H+  H121  1  0.97711969  0.62088558  0.32487345  1
  H+  H122  1  0.85620230  0.34950950  0.52073840  1
  H+  H123  1  0.61160381  0.63022068  0.01269588  1
  H+  H124  1  0.00068174  0.33828006  0.83586134  1
  H+  H125  1  0.17184333  0.59413332  0.24166881  1
  H+  H126  1  0.11312910  0.76767896  0.99410549  1
  H+  H127  1  0.63175193  0.23426311  0.68124030  1
  H+  H128  1  0.91042064  0.32617784  0.23409477  1
  H+  H129  1  0.88470662  0.86730056  0.82161432  1
  H+  H130  1  0.64816913  0.12012590  0.66511379  1
  H+  H131  1  0.12464318  0.60410772  0.68971737  1
  H+  H132  1  0.13361459  0.61647464  0.17432582  1
  H+  H133  1  0.48477198  0.36331713  0.83933952  1
  H+  H134  1  0.86159501  0.21959961  0.16283235  1
  H+  H135  1  0.09504680  0.71490550  0.49215741  1
  H+  H136  1  0.64815165  0.56439497  0.58939534  1
  H+  H137  1  0.60814914  0.88411809  0.67480321  1
  H+  H138  1  0.06606466  0.44649649  -0.00292904  1
  H+  H139  1  0.77030197  0.13973738  0.34221763  1
  H+  H140  1  0.60799476  0.72353810  0.16569179  1
  H+  H141  1  0.62896934  0.73347577  0.82863192  1
  H+  H142  1  0.78637889  0.39575263  0.34204045  1
  H+  H143  1  0.85558160  0.72941906  0.82422383  1
  H+  H144  1  0.81890303  0.88164578  0.41872135  1
  H+  H145  1  0.52032189  0.88562941  0.67479797  1
  H+  H146  1  0.99843308  1.11101858  0.83928854  1
  H+  H147  1  0.35637342  0.88260095  0.34174652  1
  H+  H148  1  0.88801230  0.36993839  0.32591774  1
  H+  H149  1  0.38517817  0.42935284  0.74527736  1
  H+  H150  1  0.88020128  0.41396885  0.80116472  1
  H+  H151  1  0.39361680  0.62449681  0.66161107  1
  H+  H152  1  0.37355087  0.63220557  0.82975168  1
  H+  H153  1  0.01799000  0.11753145  -0.00251322  1
  H+  H154  1  0.48250125  0.61792248  0.51089011  1
  H+  H155  1  0.39074065  0.27793769  0.51549500  1
  H+  H156  1  0.83573044  0.87193995  0.00017324  1
  H+  H157  1  0.65708950  0.53247183  0.98858728  1
  H+  H158  1  0.53968461  0.39347573  0.98798500  1
  H+  H159  1  0.18104707  0.37203629  0.66264478  1
  H+  H160  1  0.34329726  0.59517546  0.32547268  1
  H+  H161  1  0.85056822  0.70195268  0.36739053  1
  H+  H162  1  0.88189766  0.01631159  0.65601502  1
  H+  H163  1  0.64060022  0.02739635  0.66194616  1
  H+  H164  1  0.23856309  0.62992900  0.17989606  1
  H+  H165  1  0.40081631  0.12425528  1.00327671  1
  H+  H166  1  0.82179307  0.65092527  0.10330494  1
  H+  H167  1  0.24153775  0.45662298  0.30651385  1
  H+  H168  1  0.21386391  0.85942815  0.50231920  1
  H+  H169  1  0.17877963  0.82332736  0.65097929  1
  H+  H170  1  0.12472815  0.08199330  0.16737529  1
  H+  H171  1  0.35404123  0.91651499  0.74935115  1
  H+  H172  1  0.53550720  0.20968113  0.37848268  1
  H+  H173  1  0.22507334  0.11261930  0.49187310  1
  H+  H174  1  0.83989266  0.70350382  0.16636450  1
  H+  H175  1  0.38189981  0.85787341  0.66568595  1
  H+  H176  1  0.37059388  0.98359578  0.01696445  1
  H+  H177  1  0.40962532  0.52988074  0.83746019  1
  H+  H178  1  0.38717899  0.52639970  0.17043853  1
  H+  H179  1  0.36948064  0.24451915  0.00475361  1
  H+  H180  1  0.19944477  0.31948399  0.84886771  1
  H+  H181  1  0.64639752  0.36993594  0.33412108  1
  H+  H182  1  0.10878223  0.64266374  1.00937156  1
  H+  H183  1  0.89138795  0.06632349  0.89856991  1
  H+  H184  1  0.88752960  0.12917250  0.32701622  1
  H+  H185  1  0.76731730  0.88580965  0.50535381  1
  H+  H186  1  0.09823892  0.83768257  0.65484897  1
  H+  H187  1  0.95207681  0.36035991  0.50871601  1
  H+  H188  1  0.01524626  0.39060574  0.33918216  1
  H+  H189  1  0.71897139  0.85723248  0.66509063  1
  H+  H190  1  0.36117353  0.51576879  0.33143114  1
  H+  H191  1  0.92388936  0.97157863  0.78283285  1
  H+  H192  1  0.47938141  0.86475981  0.17720261  1
  H+  H193  1  0.13514208  0.27469671  0.50797215  1
  H+  H194  1  0.87105234  1.01141863  0.83503327  1
  H+  H195  1  0.88791138  0.53649832  0.84936587  1
  H+  H196  1  0.32774432  0.66850845  0.40298648  1
  H+  H197  1  0.32871902  0.17538120  0.07538305  1
  H+  H198  1  0.61643741  0.72933691  0.50751808  1
  H+  H199  1  1.01787971  0.61557077  0.16427157  1
  H+  H200  1  0.88116814  0.10835891  0.50491055  1
  H+  H201  1  0.76137712  0.79454832  0.38012994  1
  H+  H202  1  0.64416586  0.27237913  0.17799721  1
  H+  H203  1  0.29811791  0.92407482  0.69521863  1
  H+  H204  1  0.24628213  0.39115374  0.17169734  1
  H+  H205  1  0.63759149  0.11237667  0.17383034  1
  H+  H206  1  0.41536225  0.83339735  0.27158692  1
  H+  H207  1  0.35877612  0.22352487  0.83045246  1
  H+  H208  1  0.35951374  0.09820309  0.85429221  1
  H+  H209  1  0.86288638  0.74822900  0.66315405  1
  H+  H210  1  0.63224265  0.22255231  0.49820821  1
  H+  H211  1  0.84855414  -0.03775958  0.16464591  1
  H+  H212  1  0.73121491  0.61069622  0.31610902  1
  H+  H213  1  1.02042468  0.13248180  0.49732550  1
  H+  H214  1  0.75691398  0.87501669  0.16388671  1
  H+  H215  1  0.27117236  0.63539049  0.49545138  1
  H+  H216  1  0.96764423  0.85392178  0.83284242  1
  H+  H217  1  0.87770409  0.76579458  0.51510265  1
  H+  H218  1  0.42654116  0.06662356  0.85075343  1
  H+  H219  1  0.88607014  0.62490710  1.00587964  1
  H+  H220  1  0.48301672  0.36340678  0.51474345  1
  H+  H221  1  0.11246692  0.40449460  0.15850502  1
  H+  H222  1  0.07679777  0.20224661  0.17934696  1
  H+  H223  1  0.36885233  0.73433354  0.16848790  1
  H+  H224  1  0.33440059  0.41641323  0.41792555  1
  H+  H225  1  0.27140997  0.38227621  0.00627953  1
  H+  H226  1  0.11167178  0.40454054  0.34124206  1
  H+  H227  1  0.62874146  0.86074693  0.17515692  1
  H+  H228  1  0.63077669  0.60514602  0.52895666  1
  H+  H229  1  -0.01009639  0.35122548  0.65720838  1
  H+  H230  1  0.86926115  0.64515630  0.32159585  1
  H+  H231  1  0.87502497  0.40614181  0.01622165  1
  H+  H232  1  0.46831054  0.10401790  0.32768177  1
  H+  H233  1  0.53946478  0.44559865  0.66960657  1
  H+  H234  1  0.65654167  0.57358305  0.26661076  1
  H+  H235  1  0.11395176  0.43728006  0.81841117  1
  H+  H236  1  0.52691157  0.13629741  0.15872582  1
  H+  H237  1  0.71465710  0.10239326  0.83873170  1
  H+  H238  1  0.48403234  0.36499346  0.14476888  1
  H+  H239  1  0.49685142  0.61130430  0.35551599  1
  H+  H240  1  0.52665100  0.89775435  1.01161727  1
  H+  H241  1  0.85329115  0.21214596  0.81755112  1
  H+  H242  1  0.36205894  0.72417904  0.67349125  1
  H+  H243  1  0.39210304  0.52890034  0.51510164  1
  H+  H244  1  0.59842175  0.47703946  0.14378261  1
  H+  H245  1  0.57302239  0.09049301  0.83185234  1
  H+  H246  1  0.59483506  0.44466388  0.76992461  1
  H+  H247  1  0.36390696  0.64116668  0.16754391  1
  H+  H248  1  0.87265835  0.72407545  0.03142323  1
  H+  H249  1  0.40018398  0.78519566  1.00276170  1
  H+  H250  1  0.82556529  0.74596099  0.96515211  1
  H+  H251  1  0.13428834  0.77795924  0.83172192  1
  H+  H252  1  0.58594432  0.91247713  0.76843779  1
  H+  H253  1  0.12996618  0.36085187  0.50570669  1
  H+  H254  1  0.62644286  0.60541352  0.17408314  1
  H+  H255  1  0.10667046  0.20509885  1.00873332  1
  H+  H256  1  0.40433302  0.76882549  0.84690888  1
  H+  H257  1  -0.00688256  0.06476034  0.14850579  1
  H+  H258  1  0.27523548  0.39032811  0.50519051  1
  H+  H259  1  0.11824109  0.33746590  0.83826150  1
  H+  H260  1  0.35872256  -0.02232366  0.49353597  1
  H+  H261  1  0.74290225  0.86838394  0.83141377  1
  H+  H262  1  0.61293408  0.97609818  0.16400048  1
  H+  H263  1  0.12759355  1.01698629  0.48889545  1
  H+  H264  1  0.80995767  0.63414407  0.46455107  1
  H+  H265  1  0.77456660  0.13762391  0.66344957  1
  H+  H266  1  0.61647697  -0.01364859  0.49462102  1
  H+  H267  1  0.69618864  0.33797950  0.60017108  1
  H+  H268  1  0.36229167  0.63879668  0.49735138  1
  H+  H269  1  0.48437921  0.11818495  0.50415500  1
  H+  H270  1  0.13890772  1.02859367  0.32738716  1
  H+  H271  1  0.85862818  0.21433762  0.00484821  1
  H+  H272  1  0.17348999  0.08213331  0.23021702  1
  H+  H273  1  0.00769942  0.64855452  0.82965212  1
  H+  H274  1  0.38762810  0.10981088  0.16830975  1
  H+  H275  1  0.63003025  0.76720517  0.66466063  1
  H+  H276  1  0.36284819  0.13614131  0.34136797  1
  H+  H277  1  0.88397496  0.27786558  0.32936586  1
  H+  H278  1  0.10837585  0.64050688  0.34042944  1
  H+  H279  1  0.67695033  0.37393209  0.50738462  1
  H+  H280  1  0.77084665  0.38058306  0.16568256  1
  H+  H281  1  0.53478379  0.14351101  0.00536051  1
  H+  H282  1  0.54632889  0.14392571  0.67411502  1
  H+  H283  1  0.39036665  0.02205051  0.17247907  1
  H+  H284  1  0.65331056  0.37635552  0.84104408  1
  H+  H285  1  0.63221397  0.11452512  0.32686709  1
  H+  H286  1  -0.01056039  0.89327079  0.32791460  1
  H+  H287  1  0.74742783  0.62457095  0.99986062  1
  H+  H288  1  0.80994254  0.64573321  0.73672262  1
  H+  H289  1  0.67506059  0.33275621  0.23671510  1
  H+  H290  1  0.88955976  0.25982396  0.65788525  1
  H+  H291  1  0.49457231  0.03504602  0.61575833  1
  H+  H292  1  0.59461386  0.41837745  0.44563594  1
  H+  H293  1  0.55406145  0.13460959  0.77753304  1
  H+  H294  1  0.51882799  0.63551019  0.16829683  1
  H+  H295  1  0.57428925  0.65246327  0.07140361  1
  H+  H296  1  0.42879326  0.59621464  0.59954433  1
  H+  H297  1  0.10820819  0.45874142  0.68565711  1
  H+  H298  1  0.00919649  0.62073978  0.49583069  1
  H+  H299  1  0.91339761  0.59364685  0.91137121  1
  H+  H300  1  0.87963577  0.59467232  0.52708462  1
  H+  H301  1  0.39351326  0.57222364  0.23346794  1
  H+  H302  1  0.16439587  0.83133340  0.89290497  1
  H+  H303  1  0.21978971  0.61155294  0.69061549  1
  H+  H304  1  0.05044028  0.89673924  0.11925705  1
  H+  H305  1  0.91881309  0.58463197  0.26443464  1
  H+  H306  1  0.57922192  0.91938375  0.40575678  1
  H+  H307  1  0.19105082  0.58138529  0.94897512  1
  H+  H308  1  0.07665464  0.15011509  0.74303594  1
  H+  H309  1  0.08819013  0.19812428  0.84403074  1
  H+  H310  1  0.10336238  0.88436909  0.49196965  1
  H+  H311  1  0.41767835  0.35562312  0.60639918  1
  H+  H312  1  0.58135365  0.42619067  0.07846643  1
  H+  H313  1  0.07997499  0.16778436  0.43650199  1
  H+  H314  1  0.32234038  0.38512341  0.65463047  1
  H+  H315  1  0.18586601  0.37450569  0.26932914  1
  H+  H316  1  0.83001167  0.16366892  0.72443068  1
  H+  H317  1  0.06484457  0.41059178  0.43581271  1
  H+  H318  1  0.58049975  0.16924691  0.41638308  1
  H+  H319  1  0.91314951  0.07934078  0.23017378  1
  H+  H320  1  0.60886287  0.67350614  0.45023598  1
  H+  H321  1  0.88680661  0.10729050  0.65624598  1
  H+  H322  1  0.17727114  0.84268360  0.24173424  1
  H+  H323  1  0.64977150  0.28346665  0.33622491  1
  H+  H324  1  0.39075328  0.36722327  -0.01023269  1
  H+  H325  1  0.08080225  0.65377270  0.10613970  1
  H+  H326  1  0.40843916  0.83001797  0.60317012  1
  H+  H327  1  0.07815600  0.38259659  0.73208065  1
  H+  H328  1  0.15967110  0.95315778  0.06952963  1
  H+  H329  1  0.90553578  0.31773894  0.92081167  1
  H+  H330  1  0.65623041  0.83187313  0.23624181  1
  H+  H331  1  0.68806534  0.34399693  0.93221051  1
  H+  H332  1  0.36651795  0.24696748  0.68071284  1
  H+  H333  1  0.41400611  0.08078648  0.26572192  1
  H+  H334  1  0.42615923  0.08131701  0.56186375  1
  H+  H335  1  0.41344424  0.34965898  0.28611234  1
  H+  H336  1  0.15404225  0.30994332  0.17909770  1
  H+  H337  1  0.68343835  0.60224825  0.91773532  1
  H+  H338  1  0.17309863  0.09869584  0.64538651  1
  H+  H339  1  0.82628922  0.90606954  0.06707223  1
  H+  H340  1  0.58377986  0.91859850  0.10340493  1
  H+  H341  1  0.06953525  0.89966339  0.73007895  1
  H+  H342  1  0.05066973  0.65606490  0.72808805  1
  H+  H343  1  0.15676012  0.58144717  0.56049097  1
  H+  H344  1  0.41784809  0.33357102  0.93006872  1
  H+  H345  1  0.66531844  0.07239214  0.90299432  1
  H+  H346  1  0.13449902  0.55956706  0.84518868  1
  H+  H347  1  0.91679296  0.32728067  0.59548633  1
  H+  H348  1  0.62453077  0.12526135  0.49601381  1
  H+  H349  1  0.40955762  0.08208458  0.94187081  1
  H+  H350  1  0.95199460  0.25373842  0.87669020  1
  H+  H351  1  0.42624607  0.83803041  0.94068654  1
  H+  H352  1  0.33603617  0.16950750  0.43997752  1
  H+  H353  1  0.44701836  0.31664878  0.20810205  1
  H+  H354  1  0.86538449  0.81388321  0.91155190  1
  H+  H355  1  0.83746155  0.42273737  0.07777683  1
  H+  H356  1  0.66562878  0.08036287  0.55636734  1
  H+  H357  1  0.83206062  0.16050761  0.10278518  1
  H+  H358  1  0.88200056  0.60218980  0.17272709  1
  H+  H359  1  0.42395685  0.57933684  0.90214913  1
  H+  H360  1  0.85785139  0.47396233  0.76108471  1
  H+  H361  1  0.15440182  0.31625576  0.94047021  1
  H+  H362  1  0.67367818  0.85284989  0.93066244  1
  H+  H363  1  0.32852443  0.16751783  0.77062136  1
  H+  H364  1  0.66208713  0.08398754  0.26849210  1
  H+  H365  1  0.93177726  0.56099333  0.68283247  1
  H+  H366  1  0.07282056  0.66227175  0.40064387  1
  H+  H367  1  0.65969845  0.83580189  0.57266410  1
  H+  H368  1  0.87849641  0.85598408  0.51472514  1
  H+  H369  1  0.91393422  0.07991113  0.56420036  1
  H+  H370  1  0.89944014  0.81317112  0.60638562  1
  H+  H371  1  0.07212723  0.91492633  0.40070664  1
  H+  H372  1  0.34209388  0.41924852  0.09631468  1
  H+  H373  1  0.37657746  0.87253145  0.83415146  1
  H+  H374  1  0.57386979  0.65669061  0.73680548  1
  H+  H375  1  0.12469237  0.09751668  0.84666558  1
  H+  H376  1  0.32729704  0.91582102  0.43591253  1
  H+  H377  1  0.80986475  0.42108998  0.66714888  1
  H+  H378  1  0.82751960  0.16612980  0.40273636  1
  H+  H379  1  0.20031222  0.35476761  0.59641306  1
  H+  H380  1  0.83060278  0.91531882  0.73001493  1
  H+  H381  1  0.63907853  1.02411630  -0.00003183  1
  H+  H382  1  0.89513336  0.04593336  0.33052388  1
  H+  H383  1  0.06343625  0.40293083  0.09845654  1
  O2-  O384  1  0.03898215  0.05849039  0.12798813  1
  O2-  O385  1  0.08183181  0.16326011  0.48279910  1
  O2-  O386  1  0.06115488  0.13735450  0.83005749  1
  O2-  O387  1  0.06671512  0.41406085  0.14238401  1
  O2-  O388  1  0.06364978  0.40714112  0.48136832  1
  O2-  O389  1  0.07998035  0.37754350  0.80638718  1
  O2-  O390  1  0.07891732  0.64092066  0.15006084  1
  O2-  O391  1  0.06941933  0.65405956  0.47876895  1
  O2-  O392  1  0.06274863  0.67781980  0.80559213  1
  O2-  O393  1  0.11113955  0.92522782  0.12989053  1
  O2-  O394  1  0.07270588  0.91579628  0.47885409  1
  O2-  O395  1  0.07941838  0.90939637  0.80928437  1
  O2-  O396  1  0.32800061  0.16759525  0.13192676  1
  O2-  O397  1  0.33035093  0.16742312  0.48527440  1
  O2-  O398  1  0.32250654  0.16361096  0.81595789  1
  O2-  O399  1  0.34461858  0.42252685  0.14192974  1
  O2-  O400  1  0.33712792  0.42285810  0.49267160  1
  O2-  O401  1  0.37035685  0.43223991  0.78933582  1
  O2-  O402  1  0.33459155  0.67314665  0.15284758  1
  O2-  O403  1  0.33186477  0.66824759  0.48130627  1
  O2-  O404  1  0.34883205  0.66665817  0.81200377  1
  O2-  O405  1  0.34657945  0.92362004  0.15209122  1
  O2-  O406  1  0.32514469  0.91609712  0.48145805  1
  O2-  O407  1  0.34611207  0.89878414  0.81316206  1
  O2-  O408  1  0.58817748  0.16512037  0.14594946  1
  O2-  O409  1  0.59341664  0.16341860  0.48375599  1
  O2-  O410  1  0.52885398  0.10194066  0.81507876  1
  O2-  O411  1  0.56413086  0.42109613  0.12203014  1
  O2-  O412  1  0.59257358  0.41113822  0.49061048  1
  O2-  O413  1  0.59102172  0.43069050  0.81394310  1
  O2-  O414  1  0.57851507  0.66232052  0.15208720  1
  O2-  O415  1  0.59026837  0.66817625  0.49344519  1
  O2-  O416  1  0.59705030  0.66978215  0.81900922  1
  O2-  O417  1  0.58172994  0.91537078  0.14926602  1
  O2-  O418  1  0.58499448  0.92098740  0.48119441  1
  O2-  O419  1  0.59084064  0.90767395  0.81341304  1
  O2-  O420  1  0.83121485  0.15833732  0.14809900  1
  O2-  O421  1  0.82200188  0.15589133  0.47882059  1
  O2-  O422  1  0.81596740  0.15324568  0.80153708  1
  O2-  O423  1  0.83262274  0.41245851  0.14930619  1
  O2-  O424  1  0.79314342  0.38812796  0.50240549  1
  O2-  O425  1  0.85208135  0.44821932  0.80281395  1
  O2-  O426  1  0.81722720  0.64529826  0.14965114  1
  O2-  O427  1  0.81895263  0.65353348  0.50660597  1
  O2-  O428  1  0.82084621  0.66402315  0.81747395  1
  O2-  O429  1  0.81864003  0.90100630  0.15025860  1
  O2-  O430  1  0.82739644  0.91021817  0.48899839  1
  O2-  O431  1  0.86531164  0.93292838  0.79702623  1
  O2-  O432  1  0.17444082  0.07695928  0.18479505  1
  O2-  O433  1  0.16102080  0.08203868  0.48268018  1
  O2-  O434  1  0.16221939  0.07292073  0.85851301  1
  O2-  O435  1  0.18787917  0.37095523  0.18968950  1
  O2-  O436  1  0.16604653  0.33635155  0.51952868  1
  O2-  O437  1  0.14330279  0.30408296  0.86524191  1
  O2-  O438  1  0.17662701  0.59729802  0.19514734  1
  O2-  O439  1  0.16013833  0.58226455  0.51629327  1
  O2-  O440  1  0.17154793  0.61135402  0.82215945  1
  O2-  O441  1  0.18864253  0.84536598  0.19737418  1
  O2-  O442  1  0.15101587  0.82766600  0.51169155  1
  O2-  O443  1  0.17334819  0.83663320  0.84849668  1
  O2-  O444  1  0.41911349  0.08427613  0.18728734  1
  O2-  O445  1  0.42262744  0.08926297  0.51750413  1
  O2-  O446  1  0.37753580  0.06110967  0.87521641  1
  O2-  O447  1  0.42446557  0.32404129  0.16963825  1
  O2-  O448  1  0.42236044  0.33865273  0.52952504  1
  O2-  O449  1  0.42380152  0.33414032  0.85367628  1
  O2-  O450  1  0.41055539  0.58404919  0.18963418  1
  O2-  O451  1  0.42248337  0.59089512  0.52756845  1
  O2-  O452  1  0.43075284  0.58678772  0.85668476  1
  O2-  O453  1  0.41893446  0.83383504  0.19314642  1
  O2-  O454  1  0.41115833  0.83526939  0.52569122  1
  O2-  O455  1  0.43275463  0.82790466  0.86387798  1
  O2-  O456  1  0.66559640  0.08109314  0.19191120  1
  O2-  O457  1  0.66313816  0.07876425  0.51164661  1
  O2-  O458  1  0.65763202  0.06567110  0.85798067  1
  O2-  O459  1  0.67699421  0.33287345  0.19167473  1
  O2-  O460  1  0.70376090  0.34090367  0.52373707  1
  O2-  O461  1  0.68866954  0.35336853  0.85776202  1
  O2-  O462  1  0.65039060  0.56809264  0.18719317  1
  O2-  O463  1  0.65742035  0.57141625  0.54366780  1
  O2-  O464  1  0.67795034  0.60140881  0.86740098  1
  O2-  O465  1  0.65792932  0.82922774  0.19096331  1
  O2-  O466  1  0.66296947  0.83632100  0.52717519  1
  O2-  O467  1  0.68375317  0.83604362  0.84675646  1
  O2-  O468  1  0.90556529  0.06671163  0.18589892  1
  O2-  O469  1  0.91402003  0.07958186  0.51829352  1
  O2-  O470  1  0.89045071  0.07087014  0.85338659  1
  O2-  O471  1  0.90776960  0.32226708  0.18840651  1
  O2-  O472  1  0.89674777  0.32643087  0.53081197  1
  O2-  O473  1  0.94038363  0.29736991  0.86011274  1
  O2-  O474  1  0.91574281  0.57564134  0.18800440  1
  O2-  O475  1  0.91118531  0.56301815  0.52799696  1
  O2-  O476  1  0.91210969  0.59603507  0.86558792  1
  O2-  O477  1  0.88392663  0.81708827  0.20169788  1
  O2-  O478  1  0.91155587  0.82736371  0.52745288  1
  O2-  O479  1  0.90474288  0.82586839  0.84020974  1
  O2-  O480  1  0.16992939  0.08759680  0.31033529  1
  O2-  O481  1  0.16710933  0.05210302  0.61908302  1
  O2-  O482  1  0.18076195  0.08652681  0.97472539  1
  O2-  O483  1  0.19566174  0.39552373  0.31209172  1
  O2-  O484  1  0.22604513  0.37197053  0.63745483  1
  O2-  O485  1  0.15961561  0.31932000  0.98617173  1
  O2-  O486  1  0.15982218  0.58713187  0.31284374  1
  O2-  O487  1  0.15909797  0.57782377  0.70475969  1
  O2-  O488  1  0.17517923  0.57804171  0.99176318  1
  O2-  O489  1  0.15876749  0.83776441  0.32140678  1
  O2-  O490  1  0.12192994  0.80238905  0.63367340  1
  O2-  O491  1  0.12101741  0.82062777  0.97162713  1
  O2-  O492  1  0.40915273  0.07746207  0.31127302  1
  O2-  O493  1  0.45951248  0.05763898  0.63242782  1
  O2-  O494  1  0.42691408  0.09181894  0.98722230  1
  O2-  O495  1  0.41655770  0.33765188  0.32894449  1
  O2-  O496  1  0.42022135  0.35893168  0.65240238  1
  O2-  O497  1  0.41903859  0.33413808  0.97593295  1
  O2-  O498  1  0.34428829  0.54717327  0.30276881  1
  O2-  O499  1  0.42843928  0.59775208  0.64618408  1
  O2-  O500  1  0.41631321  0.57677839  0.97950296  1
  O2-  O501  1  0.41070550  0.83132155  0.31706880  1
  O2-  O502  1  0.40967185  0.82629998  0.64877017  1
  O2-  O503  1  0.42453921  0.84403054  0.98584993  1
  O2-  O504  1  0.66131644  0.08343566  0.31437487  1
  O2-  O505  1  0.67254271  0.08664547  0.64522964  1
  O2-  O506  1  0.67378237  0.08397509  0.98207443  1
  O2-  O507  1  0.67764218  0.34128473  0.31786114  1
  O2-  O508  1  0.69277735  0.33685887  0.64584103  1
  O2-  O509  1  0.68108154  0.33824322  0.97799657  1
  O2-  O510  1  0.66698763  0.57913365  0.31162980  1
  O2-  O511  1  0.63927380  0.56426371  0.66397693  1
  O2-  O512  1  0.68660907  0.59546132  0.97881427  1
  O2-  O513  1  0.65607111  0.83528875  0.31560512  1
  O2-  O514  1  0.65705949  0.82746731  0.65064121  1
  O2-  O515  1  0.66706300  0.85881375  0.97455047  1
  O2-  O516  1  0.92093154  0.10168257  0.31055833  1
  O2-  O517  1  0.91571252  0.07639815  0.64051552  1
  O2-  O518  1  0.91413269  0.07393710  0.97655781  1
  O2-  O519  1  0.91634973  0.33595937  0.31070591  1
  O2-  O520  1  0.92714766  0.32262266  0.64237348  1
  O2-  O521  1  0.88299320  0.31810169  0.96345692  1
  O2-  O522  1  0.91659963  0.59008066  0.30970778  1
  O2-  O523  1  0.87059359  0.52531039  0.69436251  1
  O2-  O524  1  0.92062698  0.59632539  0.98823746  1
  O2-  O525  1  0.93234693  0.88605018  0.30975381  1
  O2-  O526  1  0.89487612  0.81005990  0.65165495  1
  O2-  O527  1  0.83247728  0.80021928  0.95050771  1
  O2-  O528  1  0.07785590  0.14183172  0.01453605  1
  O2-  O529  1  0.08785763  0.17343375  0.36421978  1
  O2-  O530  1  0.08883328  0.15938951  0.69925462  1
  O2-  O531  1  0.04948497  0.38989843  0.01376894  1
  O2-  O532  1  0.07423300  0.42632714  0.35769511  1
  O2-  O533  1  0.08175178  0.39555081  0.68678315  1
  O2-  O534  1  0.08048081  0.67297725  0.02549762  1
  O2-  O535  1  0.07813414  0.67076509  0.35551449  1
  O2-  O536  1  0.05021163  0.63859252  0.68482401  1
  O2-  O537  1  0.18910960  0.96742381  0.02751667  1
  O2-  O538  1  0.07454177  0.91743806  0.35508261  1
  O2-  O539  1  0.06250573  0.89128976  0.68509780  1
  O2-  O540  1  0.33480220  0.18247210  0.02216381  1
  O2-  O541  1  0.33384544  0.16604214  0.35951722  1
  O2-  O542  1  0.33829780  0.18669367  0.69465466  1
  O2-  O543  1  0.33298962  0.41279661  0.01880346  1
  O2-  O544  1  0.33653671  0.41290974  0.37221119  1
  O2-  O545  1  0.38428233  0.41397630  0.66941717  1
  O2-  O546  1  0.35215548  0.67887796  0.03106661  1
  O2-  O547  1  0.32200411  0.66677678  0.35765530  1
  O2-  O548  1  0.33634589  0.66323359  0.68865373  1
  O2-  O549  1  0.33814765  0.92363889  0.03229750  1
  O2-  O550  1  0.32605606  0.91275037  0.35755585  1
  O2-  O551  1  0.35263983  0.92617395  0.70159628  1
  O2-  O552  1  0.59530156  0.17149981  0.02088385  1
  O2-  O553  1  0.56630284  0.17851885  0.37176024  1
  O2-  O554  1  0.60138445  0.17404621  0.69640696  1
  O2-  O555  1  0.59970238  0.42571286  0.00247505  1
  O2-  O556  1  0.59205356  0.42034974  0.36398654  1
  O2-  O557  1  0.59518490  0.47673479  0.69101278  1
  O2-  O558  1  0.56857233  0.64504983  0.02657428  1
  O2-  O559  1  0.66250391  0.70425893  0.37788176  1
  O2-  O560  1  0.57095860  0.65128563  0.69176620  1
  O2-  O561  1  0.58698569  0.92721673  0.02763973  1
  O2-  O562  1  0.57600524  0.91623887  0.35968956  1
  O2-  O563  1  0.58053038  0.91712979  0.68982900  1
  O2-  O564  1  0.83310380  0.15656047  0.02285327  1
  O2-  O565  1  0.83074887  0.16994264  0.35680126  1
  O2-  O566  1  0.83599929  0.16800204  0.67901716  1
  O2-  O567  1  0.84149340  0.43147574  0.03155044  1
  O2-  O568  1  0.84835031  0.42344661  0.35190194  1
  O2-  O569  1  0.78012921  0.35736646  0.66164948  1
  O2-  O570  1  0.83408021  0.66222655  0.02976948  1
  O2-  O571  1  0.83755778  0.67830944  0.32655081  1
  O2-  O572  1  0.80767435  0.63622563  0.69215566  1
  O2-  O573  1  0.82830198  0.91631041  0.02269815  1
  O2-  O574  1  0.80819252  0.85627906  0.37607833  1
  O2-  O575  1  0.82021253  0.90864677  0.68366903  1
