# generated using pymatgen
data_H2O
_symmetry_space_group_name_H-M   'P 1'
_cell_length_a   17.98613334
_cell_length_b   17.98727135
_cell_length_c   21.98727775
_cell_angle_alpha   90.02481055
_cell_angle_beta   89.99986174
_cell_angle_gamma   119.99398351
_symmetry_Int_Tables_number   1
_chemical_formula_structural   H2O
_chemical_formula_sum   'H384 O192'
_cell_volume   6160.71987084
_cell_formula_units_Z   192
loop_
 _symmetry_equiv_pos_site_id
 _symmetry_equiv_pos_as_xyz
  1  'x, y, z'
loop_
 _atom_type_symbol
 _atom_type_oxidation_number
  H+  1.0
  O2-  -2.0
loop_
 _atom_site_type_symbol
 _atom_site_label
 _atom_site_symmetry_multiplicity
 _atom_site_fract_x
 _atom_site_fract_y
 _atom_site_fract_z
 _atom_site_occupancy
  H+  H0  1  0.58988564  0.74271164  0.49862457  1
  H+  H1  1  0.36082475  0.22471146  0.67845269  1
  H+  H2  1  0.13440623  0.11406223  0.66722433  1
  H+  H3  1  0.18254937  1.00950813  0.31890904  1
  H+  H4  1  0.17590073  0.75303178  0.72386455  1
  H+  H5  1  0.37581345  0.99760680  0.67269443  1
  H+  H6  1  0.03798252  0.56737230  0.47816445  1
  H+  H7  1  0.01268258  0.88941946  0.84526901  1
  H+  H8  1  0.27131349  0.13765740  -0.00009365  1
  H+  H9  1  0.37742588  0.89979957  0.31578255  1
  H+  H10  1  0.27220687  0.40232402  0.33862386  1
  H+  H11  1  0.28985341  0.90686996  0.48180270  1
  H+  H12  1  0.11782681  0.99247355  0.68695096  1
  H+  H13  1  0.06806717  0.50357373  0.51810399  1
  H+  H14  1  0.11171049  0.38134910  0.83458677  1
  H+  H15  1  0.76784286  0.88934382  0.83987336  1
  H+  H16  1  0.34840025  0.74939558  0.83086838  1
  H+  H17  1  0.39173425  0.12088368  0.65718902  1
  H+  H18  1  0.38098432  0.51568907  0.51621485  1
  H+  H19  1  0.12454020  0.59932036  0.17084135  1
  H+  H20  1  0.64407997  0.62598114  0.14415009  1
  H+  H21  1  0.79213138  0.53683127  0.63764843  1
  H+  H22  1  0.35782547  0.96909743  0.14591226  1
  H+  H23  1  0.57927775  -0.03247869  0.17218887  1
  H+  H24  1  0.27874934  0.13519423  0.83063279  1
  H+  H25  1  0.85814092  0.96738350  0.33201446  1
  H+  H26  1  0.63483032  0.52592005  1.00176461  1
  H+  H27  1  0.13148775  0.35023632  0.66691733  1
  H+  H28  1  0.53297940  0.14516932  0.15539645  1
  H+  H29  1  0.63886384  0.27749669  0.31828672  1
  H+  H30  1  0.88161270  0.09634240  0.65804549  1
  H+  H31  1  0.63840380  0.87617247  0.53828808  1
  H+  H32  1  -0.02118951  0.86064446  -0.00688207  1
  H+  H33  1  -0.04070528  0.09303706  0.17592851  1
  H+  H34  1  0.89944110  0.77492190  0.32525213  1
  H+  H35  1  0.62427872  0.99783241  0.52504192  1
  H+  H36  1  0.38090646  0.01901360  0.30893113  1
  H+  H37  1  0.60966395  0.72986059  0.11604686  1
  H+  H38  1  0.85759933  0.38862729  0.48776415  1
  H+  H39  1  0.77414222  0.12847040  0.81829205  1
  H+  H40  1  0.00032116  0.62286769  0.16583218  1
  H+  H41  1  0.34523980  0.60076957  0.15169675  1
  H+  H42  1  0.90570903  0.86343418  0.17237217  1
  H+  H43  1  0.85475413  0.46301142  0.82841916  1
  H+  H44  1  0.93378738  0.59984930  0.50101832  1
  H+  H45  1  0.20693937  0.61588832  0.84143184  1
  H+  H46  1  0.78101073  0.14260579  0.33136968  1
  H+  H47  1  0.35879709  0.39923572  0.34487464  1
  H+  H48  1  0.97013830  0.88673472  0.51680578  1
  H+  H49  1  0.66667145  0.32863437  0.89104815  1
  H+  H50  1  0.85385947  0.24057309  0.48590917  1
  H+  H51  1  0.09704685  0.46219163  0.16324333  1
  H+  H52  1  0.88378596  0.35449286  0.83965131  1
  H+  H53  1  0.01521488  0.12164659  0.67165066  1
  H+  H54  1  0.98131580  0.10807933  0.33199730  1
  H+  H55  1  -0.03893853  0.59697371  0.84304256  1
  H+  H56  1  0.87263378  0.09699475  0.17742357  1
  H+  H57  1  0.72651157  0.85423178  0.30949634  1
  H+  H58  1  0.63920738  0.61997060  0.31315782  1
  H+  H59  1  0.89017636  0.36091626  0.31939763  1
  H+  H60  1  0.08615820  0.61099700  0.83342540  1
  H+  H61  1  0.26440422  0.65155657  0.67545140  1
  H+  H62  1  0.77756830  0.13210160  0.66212251  1
  H+  H63  1  0.22606688  0.11542394  0.66795992  1
  H+  H64  1  0.10685991  0.90557828  0.49327703  1
  H+  H65  1  0.88421914  0.86903708  0.67664870  1
  H+  H66  1  0.83143491  0.65614214  0.06322534  1
  H+  H67  1  0.13572156  0.26995174  0.84706140  1
  H+  H68  1  0.11751168  0.88871664  1.00327578  1
  H+  H69  1  0.39782405  0.11590393  0.15590666  1
  H+  H70  1  0.51732213  0.14442538  0.48099681  1
  H+  H71  1  0.07844020  0.65989738  0.50189133  1
  H+  H72  1  0.72479350  0.35945264  -0.01070465  1
  H+  H73  1  0.35240225  0.26304701  0.15732948  1
  H+  H74  1  0.77021801  0.63785915  0.00667115  1
  H+  H75  1  0.97216510  0.61457321  0.99807969  1
  H+  H76  1  0.35350451  0.46249645  0.68491932  1
  H+  H77  1  0.87644227  0.74906119  0.69200563  1
  H+  H78  1  0.37512095  0.34891422  0.84484965  1
  H+  H79  1  0.47195727  0.71825467  0.45301797  1
  H+  H80  1  0.78299750  0.39763233  0.15755078  1
  H+  H81  1  0.62820059  0.64409890  0.83803259  1
  H+  H82  1  0.76356380  0.87493776  0.68277581  1
  H+  H83  1  0.73052219  0.13385957  0.49159646  1
  H+  H84  1  0.21386114  0.74881371  0.71480746  1
  H+  H85  1  0.97987411  0.21281833  -0.05601307  1
  H+  H86  1  0.38840419  0.52480852  0.32453181  1
  H+  H87  1  0.40358154  0.69584090  0.00277243  1
  H+  H88  1  0.73474595  0.34382664  0.65770021  1
  H+  H89  1  0.73139090  0.36544406  0.31985712  1
  H+  H90  1  0.27325790  0.39146386  0.49787093  1
  H+  H91  1  0.38792729  0.80002105  0.27539514  1
  H+  H92  1  0.76170978  0.60584072  0.15075064  1
  H+  H93  1  0.76292575  0.62038655  0.84143288  1
  H+  H94  1  0.11004518  0.34937210  0.16934438  1
  H+  H95  1  0.60731161  0.39089160  0.52576226  1
  H+  H96  1  0.12487633  0.23553728  0.49577740  1
  H+  H97  1  0.02358851  0.38742893  0.33107674  1
  H+  H98  1  0.12238631  0.14577414  0.01084829  1
  H+  H99  1  0.67508159  0.34136384  0.22655375  1
  H+  H100  1  0.78330642  0.54139478  0.11928864  1
  H+  H101  1  0.63658168  0.36013726  0.98936391  1
  H+  H102  1  0.20440780  0.58313009  0.17322678  1
  H+  H103  1  0.02981318  0.70932979  0.61458453  1
  H+  H104  1  0.46457656  0.36304018  0.66140514  1
  H+  H105  1  0.63832644  0.61834838  1.00777482  1
  H+  H106  1  0.37169947  0.67465990  0.46472426  1
  H+  H107  1  0.03654849  0.12771812  0.83398442  1
  H+  H108  1  0.12336593  0.89124643  0.15647482  1
  H+  H109  1  0.34569488  0.08136747  0.29792223  1
  H+  H110  1  0.55753969  0.87111878  0.17438140  1
  H+  H111  1  0.13656112  0.76865325  0.17020045  1
  H+  H112  1  0.57451325  0.91568971  0.07742566  1
  H+  H113  1  0.39768217  0.70750379  0.37256620  1
  H+  H114  1  0.15145612  0.81340644  0.50996748  1
  H+  H115  1  0.18812999  0.33398678  0.15680021  1
  H+  H116  1  0.86923428  0.15388098  0.00903116  1
  H+  H117  1  0.52534424  0.13017333  0.82562248  1
  H+  H118  1  0.83533423  0.41640396  0.38831849  1
  H+  H119  1  0.48627074  0.60901708  0.31756841  1
  H+  H120  1  0.12507242  0.76639960  -0.00439636  1
  H+  H121  1  0.28428452  0.91388313  0.67720384  1
  H+  H122  1  0.64360623  0.37162795  0.16834474  1
  H+  H123  1  0.64090534  0.02000895  0.61374737  1
  H+  H124  1  0.94668065  0.08097415  0.90703381  1
  H+  H125  1  0.60507398  0.96309077  0.69754626  1
  H+  H126  1  0.37901004  0.36224630  0.50959530  1
  H+  H127  1  0.53412964  0.89611702  0.30165824  1
  H+  H128  1  0.55772809  0.40232142  0.26855069  1
  H+  H129  1  0.21793127  0.84935575  -0.01126353  1
  H+  H130  1  0.33997081  0.65805944  0.81892786  1
  H+  H131  1  0.62277153  0.84455308  0.67810856  1
  H+  H132  1  0.50420705  0.64835242  0.50116177  1
  H+  H133  1  0.51340677  0.88438251  0.68212505  1
  H+  H134  1  0.84218105  0.46905578  0.48342745  1
  H+  H135  1  0.34881216  0.27568096  0.34011691  1
  H+  H136  1  0.46686033  0.85847750  0.85442094  1
  H+  H137  1  0.91985104  0.08115409  0.27343583  1
  H+  H138  1  0.86135649  0.62930844  0.32537552  1
  H+  H139  1  0.85998918  0.21796088  0.81907678  1
  H+  H140  1  0.08127519  0.40511946  0.73989536  1
  H+  H141  1  0.22832405  0.62150981  0.31255961  1
  H+  H142  1  0.85869637  0.61191121  0.84014251  1
  H+  H143  1  0.60734655  0.12022329  0.66589793  1
  H+  H144  1  0.34884509  0.22574800  0.49572982  1
  H+  H145  1  0.14837621  0.12553015  0.83788025  1
  H+  H146  1  0.11368249  0.47674971  0.33953041  1
  H+  H147  1  0.22047724  0.11981402  0.16621912  1
  H+  H148  1  0.61430586  0.72951519  0.32641178  1
  H+  H149  1  0.76723236  0.37324861  0.82382723  1
  H+  H150  1  0.00748087  0.37229637  0.15652620  1
  H+  H151  1  0.61095655  0.48485880  0.15419018  1
  H+  H152  1  0.61126373  0.50505383  0.49448824  1
  H+  H153  1  0.88841423  0.77253671  0.99518298  1
  H+  H154  1  0.02162477  0.28573732  0.45342187  1
  H+  H155  1  0.89203581  0.04189526  0.60349399  1
  H+  H156  1  0.35613318  0.75575832  0.67175871  1
  H+  H157  1  0.58155276  0.16766591  0.06205743  1
  H+  H158  1  0.60729183  0.22184601  0.00028574  1
  H+  H159  1  0.13799507  0.37026041  0.32211749  1
  H+  H160  1  0.12161010  0.88235227  0.34292695  1
  H+  H161  1  -0.01165221  0.86451824  0.32902879  1
  H+  H162  1  0.86690027  0.90168427  0.52819207  1
  H+  H163  1  0.33898607  0.80460301  -0.00251517  1
  H+  H164  1  0.82156620  0.91318351  0.77749698  1
  H+  H165  1  0.11519471  0.63078646  0.33445380  1
  H+  H166  1  0.25218091  0.13995317  0.33989151  1
  H+  H167  1  0.40543262  0.59509422  0.85908090  1
  H+  H168  1  0.78142968  0.86226884  0.15772219  1
  H+  H169  1  0.66876646  0.32264083  0.56299582  1
  H+  H170  1  0.36316411  0.46160398  0.84113779  1
  H+  H171  1  0.64172971  0.86856157  1.00864602  1
  H+  H172  1  0.15196489  0.53882234  -0.00022844  1
  H+  H173  1  0.65521065  0.47746866  0.68965731  1
  H+  H174  1  0.21703012  0.11345200  0.51295318  1
  H+  H175  1  0.14272624  0.02071893  0.16896751  1
  H+  H176  1  0.11765248  0.46386681  0.68106543  1
  H+  H177  1  0.85570539  -0.04137903  0.16781776  1
  H+  H178  1  0.14713733  0.37614848  1.00170215  1
  H+  H179  1  0.39297024  0.81782875  0.90754600  1
  H+  H180  1  0.62979090  0.52974765  0.84802085  1
  H+  H181  1  0.61632039  0.21234282  0.66935984  1
  H+  H182  1  0.87485321  0.65890514  0.68796243  1
  H+  H183  1  0.38624018  0.88255063  0.66067098  1
  H+  H184  1  0.88654604  0.86867958  0.84298687  1
  H+  H185  1  0.14109518  0.03312735  0.84336485  1
  H+  H186  1  0.62188078  0.04883389  0.93107912  1
  H+  H187  1  0.86075770  0.47772867  1.00267145  1
  H+  H188  1  0.63873795  0.85812940  0.30419285  1
  H+  H189  1  0.36791817  0.89938028  0.83285822  1
  H+  H190  1  0.63334354  0.77435362  0.85341114  1
  H+  H191  1  0.57256084  0.17080762  0.38582354  1
  H+  H192  1  0.01414802  0.60301084  0.67333125  1
  H+  H193  1  0.38022685  0.00953879  0.83787869  1
  H+  H194  1  1.03016378  0.67721943  0.59273511  1
  H+  H195  1  0.52313314  0.38804118  0.00602504  1
  H+  H196  1  0.87040722  0.90118212  -0.01375689  1
  H+  H197  1  0.51601604  0.14385919  0.32517605  1
  H+  H198  1  0.47075685  0.10747003  -0.00715703  1
  H+  H199  1  0.62373910  0.97971589  0.31543248  1
  H+  H200  1  0.59639401  0.87074005  0.84589772  1
  H+  H201  1  0.14346938  0.76965845  0.32531763  1
  H+  H202  1  0.23325677  0.85922186  0.32175154  1
  H+  H203  1  0.71840842  0.35966924  0.49997011  1
  H+  H204  1  0.78670313  0.90523124  0.99053508  1
  H+  H205  1  0.49593801  0.62989306  0.00947240  1
  H+  H206  1  0.15179476  0.28876229  1.00659595  1
  H+  H207  1  0.86904628  0.13934215  0.33846374  1
  H+  H208  1  0.58579842  0.07896058  0.98529209  1
  H+  H209  1  0.09723415  0.92125864  0.88561826  1
  H+  H210  1  0.14393392  0.80242897  0.89640557  1
  H+  H211  1  0.67121161  1.09146395  0.25848178  1
  H+  H212  1  0.63776925  0.10202721  0.83688611  1
  H+  H213  1  0.72497445  0.60467827  0.46068258  1
  H+  H214  1  0.53568577  0.91357035  0.53902526  1
  H+  H215  1  0.60605773  -0.02956720  1.01699811  1
  H+  H216  1  0.61284306  0.38850058  0.31607646  1
  H+  H217  1  0.61105753  0.62196107  0.68801442  1
  H+  H218  1  0.10835539  0.14110933  0.49519500  1
  H+  H219  1  0.86907474  0.47687833  0.32886086  1
  H+  H220  1  0.71793844  0.09965834  0.16586518  1
  H+  H221  1  0.30721195  0.44682128  0.18596781  1
  H+  H222  1  0.63668071  0.53081556  0.30249116  1
  H+  H223  1  0.35867075  0.94912036  -0.00047658  1
  H+  H224  1  0.42147591  0.80739512  0.49231953  1
  H+  H225  1  0.10961912  0.51802867  0.50076470  1
  H+  H226  1  0.52505431  0.39443618  0.16396580  1
  H+  H227  1  0.64123432  0.12076162  0.31763536  1
  H+  H228  1  0.65011473  0.34781777  0.66160415  1
  H+  H229  1  0.96812648  0.35578404  0.50269352  1
  H+  H230  1  0.36277463  0.58952215  0.53820483  1
  H+  H231  1  0.37360480  0.35798005  0.67121932  1
  H+  H232  1  0.28203092  0.40487707  1.02200385  1
  H+  H233  1  0.74716786  0.62807659  0.67486351  1
  H+  H234  1  0.11227002  0.83148117  0.83920819  1
  H+  H235  1  0.10877996  0.46924168  0.83261327  1
  H+  H236  1  0.85231651  0.96659949  0.68069574  1
  H+  H237  1  0.10274518  0.63732421  0.00759745  1
  H+  H238  1  0.45258341  0.87818043  0.23071022  1
  H+  H239  1  0.38458352  0.11331964  0.84331063  1
  H+  H240  1  -0.05968549  0.84036235  0.23144149  1
  H+  H241  1  0.60612493  0.23263076  0.48186554  1
  H+  H242  1  0.62517790  0.75612291  0.67665997  1
  H+  H243  1  0.58003791  0.15280541  0.76416929  1
  H+  H244  1  0.38785764  0.37160936  1.00225564  1
  H+  H245  1  0.29638924  0.68844594  0.53859215  1
  H+  H246  1  0.39323455  0.87889464  0.50177432  1
  H+  H247  1  0.46663957  0.59026549  0.67707206  1
  H+  H248  1  0.63913039  0.26702685  0.83389057  1
  H+  H249  1  0.58175755  0.41314464  0.06506834  1
  H+  H250  1  0.89631310  0.37350083  0.99290653  1
  H+  H251  1  1.03552336  0.40227438  1.00523161  1
  H+  H252  1  0.15281466  0.81290170  0.65713466  1
  H+  H253  1  0.82423361  0.61560662  0.47720645  1
  H+  H254  1  -0.02243624  0.35528847  0.66136667  1
  H+  H255  1  0.63333530  0.01186609  0.84179529  1
  H+  H256  1  0.80936096  0.64650716  0.40735529  1
  H+  H257  1  0.23000309  0.63741755  0.98863476  1
  H+  H258  1  0.37876550  0.11909010  0.49711323  1
  H+  H259  1  0.12505755  0.58676672  0.67088154  1
  H+  H260  1  0.48018921  0.11781831  0.65313816  1
  H+  H261  1  0.90478624  0.60961417  0.16511762  1
  H+  H262  1  0.13355667  0.35518958  0.50912588  1
  H+  H263  1  0.86131597  0.88125422  0.32990871  1
  H+  H264  1  0.87931511  0.48081988  0.15706612  1
  H+  H265  1  0.00774361  0.16501759  -0.00921065  1
  H+  H266  1  0.85164380  0.21106336  0.16205330  1
  H+  H267  1  0.63588360  0.12727781  0.49071695  1
  H+  H268  1  0.38118697  0.10589450  0.99144819  1
  H+  H269  1  0.88127610  0.35665987  0.16739847  1
  H+  H270  1  0.90830117  0.01018583  0.85415749  1
  H+  H271  1  0.77390519  0.63541678  0.31858509  1
  H+  H272  1  0.53427224  0.62902276  0.84033764  1
  H+  H273  1  0.21951108  0.34849393  0.66782160  1
  H+  H274  1  0.68356319  0.43339088  0.73961018  1
  H+  H275  1  0.40153796  0.64137640  0.31440363  1
  H+  H276  1  0.17310665  0.70279116  0.12698032  1
  H+  H277  1  0.09261611  0.93157662  0.74662931  1
  H+  H278  1  -0.01990017  0.61408906  0.32051945  1
  H+  H279  1  0.10204488  0.21451845  0.67108747  1
  H+  H280  1  0.88221851  0.61450008  -0.00651708  1
  H+  H281  1  0.10043178  0.12062025  0.16735627  1
  H+  H282  1  -0.02068121  0.87885106  0.67818587  1
  H+  H283  1  0.88824524  0.26682183  0.65591570  1
  H+  H284  1  0.13816230  1.02638159  -0.00699199  1
  H+  H285  1  0.45201073  0.34714108  0.33589881  1
  H+  H286  1  0.50794262  0.40123309  0.82827486  1
  H+  H287  1  0.89197241  0.27202261  0.32025448  1
  H+  H288  1  0.16751871  0.08961034  0.93459560  1
  H+  H289  1  0.40812442  0.33941864  0.24597516  1
  H+  H290  1  0.92336110  0.33772295  0.93572195  1
  H+  H291  1  0.92312261  0.85711115  0.58285154  1
  H+  H292  1  0.26733174  0.37936742  0.83844376  1
  H+  H293  1  0.66347327  0.60175100  0.21208951  1
  H+  H294  1  0.41387872  0.08247231  0.21885155  1
  H+  H295  1  0.20757066  0.06633949  0.25858160  1
  H+  H296  1  0.91178681  0.32741275  0.22726535  1
  H+  H297  1  0.41286230  0.84591356  0.60155371  1
  H+  H298  1  0.91650301  0.34051934  0.56573346  1
  H+  H299  1  0.09152610  0.92162696  0.06299568  1
  H+  H300  1  0.86760039  0.56714612  0.55763291  1
  H+  H301  1  0.63650708  0.11304021  0.16525784  1
  H+  H302  1  0.67702895  0.10686921  0.58583161  1
  H+  H303  1  0.04777092  0.60640128  0.74107728  1
  H+  H304  1  0.57937014  0.67604802  0.38884125  1
  H+  H305  1  0.37738599  0.99288715  0.48124121  1
  H+  H306  1  0.76171734  0.89218645  0.52831301  1
  H+  H307  1  0.15813790  0.08148497  0.57284641  1
  H+  H308  1  0.42041991  0.56059271  0.22197215  1
  H+  H309  1  0.15787924  0.58021370  0.90454736  1
  H+  H310  1  0.34489131  0.44051232  0.08040222  1
  H+  H311  1  0.85188172  0.49920891  0.65280258  1
  H+  H312  1  0.38254689  0.27947527  0.99552920  1
  H+  H313  1  0.15339540  0.57117746  0.26558590  1
  H+  H314  1  0.06441123  0.37666634  0.42201543  1
  H+  H315  1  0.62228063  0.23512465  0.15519570  1
  H+  H316  1  0.08500669  0.69929238  0.82608590  1
  H+  H317  1  0.86246203  0.23532953  0.01690205  1
  H+  H318  1  0.40948243  0.56264791  0.61788703  1
  H+  H319  1  0.23466460  0.59905753  0.50805992  1
  H+  H320  1  0.33758113  0.16384960  0.73676831  1
  H+  H321  1  0.39496724  0.32499595  0.57131118  1
  H+  H322  1  0.90647624  0.57429109  0.90659461  1
  H+  H323  1  0.86943544  0.38148234  0.67239608  1
  H+  H324  1  0.97328588  0.35576246  0.84061564  1
  H+  H325  1  0.56095273  0.89256153  0.78498033  1
  H+  H326  1  0.83492289  0.41788400  0.06133040  1
  H+  H327  1  0.10097358  0.98892394  0.49246561  1
  H+  H328  1  0.08285641  0.66614418  0.07231015  1
  H+  H329  1  0.34797381  0.93604598  0.76949595  1
  H+  H330  1  0.16908708  0.33684139  0.57251365  1
  H+  H331  1  0.40446282  0.39556766  0.19165461  1
  H+  H332  1  0.92784530  0.58598504  0.25872702  1
  H+  H333  1  0.08550846  0.16743439  0.76975775  1
  H+  H334  1  0.61149059  0.59434911  0.48000871  1
  H+  H335  1  0.58357910  0.65448193  0.74685638  1
  H+  H336  1  0.62981360  0.89766085  0.43415477  1
  H+  H337  1  0.83236259  0.18121712  0.42633181  1
  H+  H338  1  0.08663580  0.42327472  0.06759740  1
  H+  H339  1  0.91402671  0.83186443  0.89924070  1
  H+  H340  1  0.67884330  0.88596302  0.15658493  1
  H+  H341  1  0.41240228  0.32985371  0.90463122  1
  H+  H342  1  0.26769784  0.88270422  0.15284309  1
  H+  H343  1  0.18442338  0.87592148  0.56617557  1
  H+  H344  1  0.41453253  0.09340218  0.55565828  1
  H+  H345  1  0.09373092  0.17929383  0.40161456  1
  H+  H346  1  0.16673706  0.33105925  0.90762789  1
  H+  H347  1  0.83241837  0.16149690  0.72425250  1
  H+  H348  1  0.65586495  0.82165395  0.58567422  1
  H+  H349  1  0.41362807  0.07924464  0.90591449  1
  H+  H350  1  0.51641182  0.38676374  0.52892793  1
  H+  H351  1  0.65595728  0.82809633  0.21694105  1
  H+  H352  1  0.66980239  0.58556863  0.91138684  1
  H+  H353  1  0.59281199  0.90565021  0.43225638  1
  H+  H354  1  0.09223578  0.92443416  0.39682602  1
  H+  H355  1  0.03511351  0.89236391  0.15872989  1
  H+  H356  1  0.16589856  0.82835019  0.23030233  1
  H+  H357  1  0.43714231  0.57721672  0.92041411  1
  H+  H358  1  0.65808088  0.83289877  0.91409751  1
  H+  H359  1  0.57388951  0.43251164  0.77275929  1
  H+  H360  1  0.32204510  0.69874793  0.73861315  1
  H+  H361  1  0.83467854  0.66460842  0.78229104  1
  H+  H362  1  0.33145698  0.42596011  0.43727670  1
  H+  H363  1  0.08661272  0.16571588  0.07233224  1
  H+  H364  1  0.29953332  0.17205196  0.43689906  1
  H+  H365  1  0.16530882  0.33684141  0.26353771  1
  H+  H366  1  0.33623697  0.67620350  0.12431985  1
  H+  H367  1  0.17605504  0.57826661  0.61201316  1
  H+  H368  1  0.32235480  0.40066276  0.74369975  1
  H+  H369  1  0.11973147  0.23465149  0.33987799  1
  H+  H370  1  0.40095771  0.54804218  1.00988520  1
  H+  H371  1  0.63841448  0.77650258  1.00657622  1
  H+  H372  1  0.14568318  0.89585198  0.66652200  1
  H+  H373  1  0.33136383  0.17670908  0.05759749  1
  H+  H374  1  0.36869572  0.22326980  0.83318288  1
  H+  H375  1  0.82826693  0.15777369  0.10071761  1
  H+  H376  1  0.09003925  0.20428525  0.16741451  1
  H+  H377  1  0.07659120  0.65542705  0.39196269  1
  H+  H378  1  0.32363989  0.89716934  0.06151824  1
  H+  H379  1  0.83575220  0.40921264  0.73200043  1
  H+  H380  1  0.20764736  0.18973633  0.36569936  1
  H+  H381  1  0.68597161  0.58979059  0.61638649  1
  H+  H382  1  0.35207602  0.92214020  0.38195383  1
  H+  H383  1  0.27948832  0.24404177  0.11066663  1
  O2-  O384  1  0.06713631  0.14626436  0.14939999  1
  O2-  O385  1  0.08946894  0.17893301  0.47619708  1
  O2-  O386  1  0.09429072  0.17196889  0.81456064  1
  O2-  O387  1  0.07022151  0.40285845  0.14443067  1
  O2-  O388  1  0.04874335  0.34693428  0.46281219  1
  O2-  O389  1  0.08111452  0.40962189  0.81615950  1
  O2-  O390  1  0.11230378  0.67341920  0.13794670  1
  O2-  O391  1  0.03588987  0.62052866  0.47285443  1
  O2-  O392  1  0.05324720  0.63594202  0.81357134  1
  O2-  O393  1  0.09631807  0.92449566  0.14096086  1
  O2-  O394  1  0.07087898  0.92804955  0.47674715  1
  O2-  O395  1  0.08098559  0.92021077  0.84304571  1
  O2-  O396  1  0.30971443  0.21747853  0.12937683  1
  O2-  O397  1  0.31677633  0.16586282  0.47905149  1
  O2-  O398  1  0.34053481  0.16251020  0.81692027  1
  O2-  O399  1  0.36197198  0.46087701  0.16657267  1
  O2-  O400  1  0.33428915  0.42208124  0.48241801  1
  O2-  O401  1  0.32737377  0.40439559  0.82202471  1
  O2-  O402  1  0.30296950  0.61637382  0.13701631  1
  O2-  O403  1  0.41942207  0.72389954  0.44437114  1
  O2-  O404  1  0.31261532  0.69125492  0.80822925  1
  O2-  O405  1  0.32484772  0.90891413  0.13247669  1
  O2-  O406  1  0.34965606  0.93137654  0.46741975  1
  O2-  O407  1  0.34628378  0.93644313  0.81520458  1
  O2-  O408  1  0.59306617  0.17491760  0.13977973  1
  O2-  O409  1  0.57644060  0.17380572  0.46349854  1
  O2-  O410  1  0.58424535  0.15657682  0.80946156  1
  O2-  O411  1  0.58374033  0.42139225  0.14665469  1
  O2-  O412  1  0.57931481  0.42543442  0.53506582  1
  O2-  O413  1  0.55612000  0.45250081  0.80851580  1
  O2-  O414  1  0.59390908  0.67090936  0.10351894  1
  O2-  O415  1  0.54687962  0.69344586  0.47330080  1
  O2-  O416  1  0.59169877  0.66724468  0.82198541  1
  O2-  O417  1  0.53179291  0.90714221  0.16617533  1
  O2-  O418  1  0.59743489  0.94262456  0.54897733  1
  O2-  O419  1  0.56131992  0.89708906  0.82991507  1
  O2-  O420  1  0.82373994  0.15095413  0.14692849  1
  O2-  O421  1  0.82560449  0.18069704  0.47126396  1
  O2-  O422  1  0.83088712  0.16173636  0.79814443  1
  O2-  O423  1  0.84225343  0.42173609  0.14054975  1
  O2-  O424  1  0.82222902  0.41047752  0.46739146  1
  O2-  O425  1  0.82952860  0.40567655  0.80904594  1
  O2-  O426  1  0.81088890  0.60066141  0.13354151  1
  O2-  O427  1  0.79369237  0.64101213  0.45369995  1
  O2-  O428  1  0.82616215  0.64612570  0.82607347  1
  O2-  O429  1  0.84165105  0.90260306  0.14937446  1
  O2-  O430  1  0.82492952  0.92738102  0.51507269  1
  O2-  O431  1  0.82662114  0.91488085  0.82257770  1
  O2-  O432  1  0.16805431  0.07979169  0.18877516  1
  O2-  O433  1  0.15616919  0.08297199  0.52761347  1
  O2-  O434  1  0.17803262  0.09461988  0.85492582  1
  O2-  O435  1  0.14027309  0.31696985  0.18465185  1
  O2-  O436  1  0.17636949  0.34212409  0.52712878  1
  O2-  O437  1  0.16443779  0.33099266  0.86232596  1
  O2-  O438  1  0.14517889  0.56040914  0.18969502  1
  O2-  O439  1  0.28208214  0.62827680  0.53685940  1
  O2-  O440  1  0.15058272  0.57448090  0.85890110  1
  O2-  O441  1  0.16501986  0.83013341  0.18506520  1
  O2-  O442  1  0.18485788  0.87394595  0.52061329  1
  O2-  O443  1  0.13521864  0.79418353  0.85145976  1
  O2-  O444  1  0.42453031  0.08520933  0.17331914  1
  O2-  O445  1  0.41351099  0.09247615  0.51039439  1
  O2-  O446  1  0.41362467  0.07967185  0.85848604  1
  O2-  O447  1  0.42029020  0.35122112  0.20119931  1
  O2-  O448  1  0.40298932  0.32693704  0.52641498  1
  O2-  O449  1  0.40997563  0.32284274  0.85946077  1
  O2-  O450  1  0.41358691  0.55464018  0.17660502  1
  O2-  O451  1  0.40783080  0.57376732  0.53711585  1
  O2-  O452  1  0.43352731  0.56480639  0.87453422  1
  O2-  O453  1  0.42959494  0.86404854  0.27276471  1
  O2-  O454  1  0.41546395  0.84422733  0.52329837  1
  O2-  O455  1  0.40281137  0.83418005  0.86387924  1
  O2-  O456  1  0.65833163  0.07633767  0.18261263  1
  O2-  O457  1  0.66992712  0.10372262  0.50981116  1
  O2-  O458  1  0.66863284  0.07332733  0.85301653  1
  O2-  O459  1  0.67686319  0.34349970  0.18088118  1
  O2-  O460  1  0.66030994  0.33073278  0.51910251  1
  O2-  O461  1  0.67003982  0.32845321  0.84589144  1
  O2-  O462  1  0.66578451  0.59271907  0.16754080  1
  O2-  O463  1  0.63589121  0.55919868  0.46698708  1
  O2-  O464  1  0.67474334  0.58724138  0.86557855  1
  O2-  O465  1  0.64351686  0.82777107  0.17206613  1
  O2-  O466  1  0.66024830  0.83451602  0.54080029  1
  O2-  O467  1  0.65728902  0.83442586  0.86755650  1
  O2-  O468  1  0.90170352  0.06684816  0.19533449  1
  O2-  O469  1  0.85773167  0.01534369  0.53558433  1
  O2-  O470  1  0.96170778  0.05961701  0.87034128  1
  O2-  O471  1  0.90845889  0.32308662  0.18174455  1
  O2-  O472  1  0.91344685  0.34666834  0.52066497  1
  O2-  O473  1  0.91363821  0.32509877  0.85695959  1
  O2-  O474  1  0.94158773  0.58808607  0.18239501  1
  O2-  O475  1  0.87221829  0.57233336  0.51213797  1
  O2-  O476  1  0.90037886  0.56973928  0.86046432  1
  O2-  O477  1  0.94329267  0.84054353  0.18637025  1
  O2-  O478  1  0.91392768  0.86135171  0.53851773  1
  O2-  O479  1  0.91998770  0.83992149  0.85402325  1
  O2-  O480  1  0.23141027  0.05978285  0.29801589  1
  O2-  O481  1  0.16520685  0.08260986  0.65370033  1
  O2-  O482  1  0.16820346  0.08844386  0.98005487  1
  O2-  O483  1  0.17292074  0.34390618  0.30831521  1
  O2-  O484  1  0.16109586  0.32089369  0.64871018  1
  O2-  O485  1  0.18079005  0.34792801  0.98897134  1
  O2-  O486  1  0.16405575  0.57949675  0.31082660  1
  O2-  O487  1  0.17662763  0.58093692  0.65642201  1
  O2-  O488  1  0.17000783  0.59494177  0.97897024  1
  O2-  O489  1  0.17089894  0.83029584  0.31120371  1
  O2-  O490  1  0.18045544  0.87319569  0.64504230  1
  O2-  O491  1  0.15697444  0.82396707  0.97500299  1
  O2-  O492  1  0.39865028  0.07791711  0.29256549  1
  O2-  O493  1  0.41931779  0.08998025  0.63815175  1
  O2-  O494  1  0.41054184  0.07523989  0.97556774  1
  O2-  O495  1  0.39416688  0.33232118  0.32192197  1
  O2-  O496  1  0.40375816  0.32831543  0.65153888  1
  O2-  O497  1  0.41544098  0.34113644  0.98326938  1
  O2-  O498  1  0.42517620  0.58058799  0.30120968  1
  O2-  O499  1  0.40623986  0.55990127  0.66287353  1
  O2-  O500  1  0.43661698  0.60430745  0.98969090  1
  O2-  O501  1  0.32540983  0.70113670  0.29833976  1
  O2-  O502  1  0.41093329  0.84535529  0.64708525  1
  O2-  O503  1  0.34107773  0.75475914  0.97772200  1
  O2-  O504  1  0.67621683  0.09534955  0.30414856  1
  O2-  O505  1  0.66777493  0.08041133  0.62785090  1
  O2-  O506  1  0.58251098  0.02750135  0.96631042  1
  O2-  O507  1  0.67124967  0.33858346  0.30388475  1
  O2-  O508  1  0.67408705  0.31462089  0.64196946  1
  O2-  O509  1  0.66462296  0.32835598  0.97353896  1
  O2-  O510  1  0.66913100  0.59307739  0.29212851  1
  O2-  O511  1  0.68925362  0.58174170  0.65996897  1
  O2-  O512  1  0.66602105  0.58685724  0.98763278  1
  O2-  O513  1  0.66516106  0.82159603  0.29344724  1
  O2-  O514  1  0.65403901  0.81672548  0.66138043  1
  O2-  O515  1  0.66196857  0.83338922  0.98588031  1
  O2-  O516  1  0.92073853  0.08320037  0.31894552  1
  O2-  O517  1  0.90769169  0.06011219  0.64815389  1
  O2-  O518  1  0.95844830  0.15902321  0.96600770  1
  O2-  O519  1  0.92263480  0.33300941  0.30417063  1
  O2-  O520  1  0.91855842  0.32943995  0.64402978  1
  O2-  O521  1  0.93081557  0.34630970  0.98079795  1
  O2-  O522  1  0.92012156  0.58367121  0.30407218  1
  O2-  O523  1  0.85209078  0.55122792  0.63462981  1
  O2-  O524  1  0.91257956  0.58310153  0.97978876  1
  O2-  O525  1  0.92875000  0.83565133  0.31251266  1
  O2-  O526  1  0.91986475  0.84273341  0.66228792  1
  O2-  O527  1  0.91999584  0.83011012  0.97582264  1
  O2-  O528  1  0.09935186  0.18151842  0.02839904  1
  O2-  O529  1  0.10079927  0.17652742  0.35616377  1
  O2-  O530  1  0.07512536  0.15502436  0.68801187  1
  O2-  O531  1  0.09535620  0.43158872  0.02254639  1
  O2-  O532  1  0.08198699  0.41432819  0.35073894  1
  O2-  O533  1  0.08205180  0.40367476  0.69403484  1
  O2-  O534  1  0.07180725  0.66495545  0.02518949  1
  O2-  O535  1  0.08411137  0.66223006  0.34765540  1
  O2-  O536  1  0.04406499  0.58232326  0.69901383  1
  O2-  O537  1  0.09034164  0.92257876  0.01723049  1
  O2-  O538  1  0.09757975  0.92077931  0.35199431  1
  O2-  O539  1  0.08828801  0.93037422  0.70211775  1
  O2-  O540  1  0.33353646  0.16913331  0.01326935  1
  O2-  O541  1  0.26360775  0.19037702  0.36706058  1
  O2-  O542  1  0.33390143  0.16333985  0.69137356  1
  O2-  O543  1  0.34338884  0.43395484  0.03581156  1
  O2-  O544  1  0.33150372  0.43388985  0.35702423  1
  O2-  O545  1  0.32165269  0.39963427  0.69819159  1
  O2-  O546  1  0.39575302  0.74166718  0.02172341  1
  O2-  O547  1  0.39793070  0.69800052  0.32689309  1
  O2-  O548  1  0.32494072  0.69532989  0.69198042  1
  O2-  O549  1  0.32335537  0.89020962  0.01514581  1
  O2-  O550  1  0.34222735  0.92091209  0.33754878  1
  O2-  O551  1  0.34466516  0.93777147  0.69140175  1
  O2-  O552  1  0.57176048  0.16273618  0.01709864  1
  O2-  O553  1  0.57571260  0.17204656  0.34020899  1
  O2-  O554  1  0.57970444  0.15155421  0.68358527  1
  O2-  O555  1  0.58414962  0.41604456  0.01989659  1
  O2-  O556  1  0.57556111  0.41515753  0.31102072  1
  O2-  O557  1  0.63862290  0.42178778  0.70983667  1
  O2-  O558  1  0.59564939  0.67375533  0.03589886  1
  O2-  O559  1  0.58348944  0.66882887  0.34475032  1
  O2-  O560  1  0.57932123  0.65066633  0.70103786  1
  O2-  O561  1  0.61914270  0.93562922  0.04612860  1
  O2-  O562  1  0.59366968  0.91617315  0.31543828  1
  O2-  O563  1  0.56813424  0.90144049  0.70406373  1
  O2-  O564  1  0.83371705  0.17442720  0.02928493  1
  O2-  O565  1  0.84089814  0.17412417  0.34788616  1
  O2-  O566  1  0.83699784  0.16216233  0.67804283  1
  O2-  O567  1  0.83207423  0.41625913  0.01595983  1
  O2-  O568  1  0.83779147  0.41576349  0.34292692  1
  O2-  O569  1  0.83503920  0.40863885  0.68612522  1
  O2-  O570  1  0.83251775  0.66629353  0.01877004  1
  O2-  O571  1  0.82950566  0.65816044  0.34121536  1
  O2-  O572  1  0.84543404  0.68661319  0.70696842  1
  O2-  O573  1  0.84919502  0.94202695  -0.01343697  1
  O2-  O574  1  0.82291568  0.90460944  0.33861449  1
  O2-  O575  1  0.82350431  0.90648621  0.69840594  1
