# generated using pymatgen
data_H2O
_symmetry_space_group_name_H-M   'P 1'
_cell_length_a   17.98931493
_cell_length_b   17.98624893
_cell_length_c   21.98650207
_cell_angle_alpha   90.01569674
_cell_angle_beta   89.98787769
_cell_angle_gamma   119.99353804
_symmetry_Int_Tables_number   1
_chemical_formula_structural   H2O
_chemical_formula_sum   'H384 O192'
_cell_volume   6161.27019599
_cell_formula_units_Z   192
loop_
 _symmetry_equiv_pos_site_id
 _symmetry_equiv_pos_as_xyz
  1  'x, y, z'
loop_
 _atom_type_symbol
 _atom_type_oxidation_number
  H+  1.0
  O2-  -2.0
loop_
 _atom_site_type_symbol
 _atom_site_label
 _atom_site_symmetry_multiplicity
 _atom_site_fract_x
 _atom_site_fract_y
 _atom_site_fract_z
 _atom_site_occupancy
  H+  H0  1  0.27679434  0.38302563  0.67897251  1
  H+  H1  1  0.97781367  0.11377302  0.66628269  1
  H+  H2  1  0.38088826  0.61362792  0.17009140  1
  H+  H3  1  0.60451365  0.13290202  0.16163404  1
  H+  H4  1  0.87973873  0.28532133  0.83209717  1
  H+  H5  1  0.58359446  0.66837825  0.89602982  1
  H+  H6  1  0.37719344  0.72828621  0.67146242  1
  H+  H7  1  0.84535649  -0.02244159  0.33964004  1
  H+  H8  1  0.89573316  0.52761052  0.99898006  1
  H+  H9  1  0.84164407  0.72136096  0.49477313  1
  H+  H10  1  0.27687216  0.90773907  0.84124591  1
  H+  H11  1  0.84303579  0.23716127  0.34148101  1
  H+  H12  1  0.52770523  0.89287754  0.67303294  1
  H+  H13  1  0.38713318  0.61176720  0.65891071  1
  H+  H14  1  0.39003869  0.86470015  0.66493554  1
  H+  H15  1  0.86516044  0.87991171  0.83976913  1
  H+  H16  1  0.64149167  0.52983193  0.65866885  1
  H+  H17  1  0.85480111  0.89541480  0.49698377  1
  H+  H18  1  0.88731879  0.62341229  0.50635804  1
  H+  H19  1  0.87054873  0.37591093  0.83030913  1
  H+  H20  1  0.63867367  0.37421153  0.51102460  1
  H+  H21  1  0.38883793  0.77259586  0.50804314  1
  H+  H22  1  0.67291469  0.08991655  0.93131118  1
  H+  H23  1  0.22686599  0.62467118  0.49502262  1
  H+  H24  1  0.11815165  0.21535212  0.84150086  1
  H+  H25  1  0.98362268  0.07779117  0.18647180  1
  H+  H26  1  0.78485266  0.39568338  0.00530933  1
  H+  H27  1  0.16781314  0.35133054  0.87818928  1
  H+  H28  1  0.88243499  0.86504554  0.31663337  1
  H+  H29  1  0.64031792  0.52092270  0.33535061  1
  H+  H30  1  0.06646104  0.91216968  0.50598206  1
  H+  H31  1  0.10517032  0.63813205  0.33976271  1
  H+  H32  1  0.21386618  0.87011539  0.17646399  1
  H+  H33  1  0.81484472  0.17936201  0.40225260  1
  H+  H34  1  0.91652044  0.07884853  0.93542329  1
  H+  H35  1  0.38516345  0.12071996  0.16916203  1
  H+  H36  1  0.70471950  0.11163301  0.32710342  1
  H+  H37  1  0.73758552  0.87469716  0.98966998  1
  H+  H38  1  0.45936474  0.86264328  0.17618007  1
  H+  H39  1  0.73632419  0.11945592  0.98964394  1
  H+  H40  1  0.65848409  0.33456325  0.60104531  1
  H+  H41  1  0.37258744  0.86784025  0.17121541  1
  H+  H42  1  0.13776427  0.26520997  0.67494701  1
  H+  H43  1  0.94275224  0.12537022  0.33194729  1
  H+  H44  1  0.06066325  0.06158925  0.48019867  1
  H+  H45  1  0.11210043  0.22083947  0.00914937  1
  H+  H46  1  0.47621362  0.61363221  0.84367544  1
  H+  H47  1  0.63799713  0.02732262  0.66204893  1
  H+  H48  1  0.52295265  0.88961260  0.82527577  1
  H+  H49  1  0.53576149  0.39726928  0.82686410  1
  H+  H50  1  0.43333212  0.13642316  0.33648309  1
  H+  H51  1  0.39866458  0.87444949  0.32817120  1
  H+  H52  1  0.37826319  0.60985916  0.32310391  1
  H+  H53  1  0.85794662  0.71833055  0.13951033  1
  H+  H54  1  0.85065868  0.26132985  0.15500738  1
  H+  H55  1  0.53021363  0.14461874  0.82762830  1
  H+  H56  1  0.86400852  0.37918027  0.32881812  1
  H+  H57  1  0.63677023  0.02722925  0.83897266  1
  H+  H58  1  0.39913359  0.26969809  0.36018576  1
  H+  H59  1  0.52823988  0.13866119  0.67654440  1
  H+  H60  1  0.61253128  -0.02582243  0.49240919  1
  H+  H61  1  0.65317419  0.53172665  0.84006294  1
  H+  H62  1  0.63859842  0.36857567  0.83778139  1
  H+  H63  1  0.62739732  0.01520405  0.32378462  1
  H+  H64  1  0.39256330  0.11130472  0.66728689  1
  H+  H65  1  0.61553454  0.63133178  0.49647724  1
  H+  H66  1  0.62762924  0.39343951  0.00455088  1
  H+  H67  1  0.17667612  0.02080479  0.51663950  1
  H+  H68  1  0.48721811  0.37275288  0.14265099  1
  H+  H69  1  0.09963548  0.87330098  0.13991693  1
  H+  H70  1  0.42873559  0.34933229  0.08523750  1
  H+  H71  1  0.93146283  0.27702081  0.63083546  1
  H+  H72  1  0.42286813  0.07668382  0.61003936  1
  H+  H73  1  0.61532544  0.23090988  0.67321995  1
  H+  H74  1  0.36328572  0.23111594  0.14204388  1
  H+  H75  1  0.13933914  0.86101084  0.66277709  1
  H+  H76  1  0.76994201  0.23724766  0.11528946  1
  H+  H77  1  0.64999662  0.28127602  0.99111613  1
  H+  H78  1  0.08605882  0.35361441  0.83089518  1
  H+  H79  1  0.00582555  0.17326285  0.49748003  1
  H+  H80  1  0.54617540  0.40257212  0.48991646  1
  H+  H81  1  0.89085853  0.12592601  -0.00312535  1
  H+  H82  1  0.71847183  0.61260454  0.50694739  1
  H+  H83  1  0.39604896  0.12276344  0.84308590  1
  H+  H84  1  0.37867645  0.51948645  0.98985642  1
  H+  H85  1  0.61113015  0.63285176  0.97973388  1
  H+  H86  1  0.35964025  0.48274185  0.15976323  1
  H+  H87  1  0.54131812  0.14217816  -0.00279417  1
  H+  H88  1  0.04438878  0.65089469  0.00385474  1
  H+  H89  1  -0.10268082  0.77346021  -0.05547521  1
  H+  H90  1  0.47226110  0.11777419  0.17229925  1
  H+  H91  1  0.88932977  0.11596302  0.66841521  1
  H+  H92  1  0.88547347  0.03508891  0.50837274  1
  H+  H93  1  0.85572735  0.14412400  0.49488190  1
  H+  H94  1  0.27162453  0.13947009  -0.00290946  1
  H+  H95  1  0.64084153  0.52235633  0.17708202  1
  H+  H96  1  0.23825933  0.12867623  0.84345803  1
  H+  H97  1  0.88630820  0.53079875  0.84158941  1
  H+  H98  1  0.87565255  0.27790010  0.50357049  1
  H+  H99  1  0.39237859  0.37043106  0.99618102  1
  H+  H100  1  0.13426823  0.31615792  0.51539941  1
  H+  H101  1  0.76946534  0.86977104  0.15473914  1
  H+  H102  1  0.17337728  0.32090495  1.05065512  1
  H+  H103  1  0.38860532  0.52411641  0.83477893  1
  H+  H104  1  0.77718419  0.88435343  0.83281030  1
  H+  H105  1  0.11161939  0.53446376  0.19058525  1
  H+  H106  1  0.63435339  0.27188193  0.17653510  1
  H+  H107  1  0.86649991  0.40289032  0.16318037  1
  H+  H108  1  0.60859264  0.63290560  0.16598759  1
  H+  H109  1  0.85073489  0.11577821  0.32959334  1
  H+  H110  1  0.10780466  0.21566618  0.15932340  1
  H+  H111  1  0.83841063  0.91661250  0.74074459  1
  H+  H112  1  0.98250617  0.11888852  0.99877637  1
  H+  H113  1  0.86478213  -0.05036845  0.15972253  1
  H+  H114  1  0.39127513  0.36379704  0.49550823  1
  H+  H115  1  0.34722676  0.86016820  0.98317167  1
  H+  H116  1  0.37057838  -0.01760472  0.82940783  1
  H+  H117  1  0.14214672  0.62927446  0.83673019  1
  H+  H118  1  0.84864093  0.10139639  0.16253807  1
  H+  H119  1  0.61695403  0.63723361  0.67018147  1
  H+  H120  1  0.22727205  0.36046086  0.16986492  1
  H+  H121  1  0.89149600  0.13579167  0.15100886  1
  H+  H122  1  0.10150828  0.96183390  0.13162325  1
  H+  H123  1  0.09563205  0.08699284  0.45721498  1
  H+  H124  1  0.36641477  0.39717358  0.14724799  1
  H+  H125  1  0.60537687  -0.02724965  0.18211440  1
  H+  H126  1  0.36349690  0.63748581  1.00282179  1
  H+  H127  1  0.97938554  0.35992901  0.99047123  1
  H+  H128  1  0.88855552  1.00695436  0.85504696  1
  H+  H129  1  0.87722763  0.60408994  0.32938433  1
  H+  H130  1  0.64203047  0.88580606  -0.01092333  1
  H+  H131  1  0.77540134  0.64201224  0.67434862  1
  H+  H132  1  0.14161938  0.89137185  0.49589086  1
  H+  H133  1  0.09189359  0.34544016  0.79791364  1
  H+  H134  1  0.89328582  0.36486529  0.99778091  1
  H+  H135  1  0.29855602  0.12918960  0.34525266  1
  H+  H136  1  0.63468876  0.85153281  0.18170177  1
  H+  H137  1  0.40631778  0.58163311  0.23135138  1
  H+  H138  1  0.38309478  0.86413869  0.83754917  1
  H+  H139  1  0.38982961  0.36378932  0.65644373  1
  H+  H140  1  0.02315522  0.65322244  0.49387750  1
  H+  H141  1  0.16910090  0.59937923  0.27066927  1
  H+  H142  1  0.61926619  0.38682331  0.16311473  1
  H+  H143  1  0.65503204  0.53130776  -0.00307833  1
  H+  H144  1  0.86197746  0.72759749  0.33645668  1
  H+  H145  1  0.86548335  0.97720695  0.68152130  1
  H+  H146  1  0.63564240  0.11648010  0.83914366  1
  H+  H147  1  0.11486200  0.12648874  0.68249247  1
  H+  H148  1  0.86415466  0.39230449  0.67224122  1
  H+  H149  1  0.85888048  0.46564681  0.32884771  1
  H+  H150  1  0.11384249  0.48314673  0.65908080  1
  H+  H151  1  0.47888580  0.86088809  0.50791716  1
  H+  H152  1  0.35807103  0.13497119  0.99528138  1
  H+  H153  1  0.96777265  0.84652828  0.15800012  1
  H+  H154  1  0.75993661  0.66020685  0.03750007  1
  H+  H155  1  0.54005642  0.39643831  0.00738150  1
  H+  H156  1  0.13161936  0.54171294  0.49013581  1
  H+  H157  1  0.63525060  0.11082851  0.50564506  1
  H+  H158  1  0.62501761  0.72534373  0.34178527  1
  H+  H159  1  0.76592878  0.39381192  0.82409763  1
  H+  H160  1  0.77139716  0.38919085  0.16167108  1
  H+  H161  1  0.11651850  0.85726238  0.31892883  1
  H+  H162  1  0.27265963  0.38406377  0.33904105  1
  H+  H163  1  0.71306615  0.12013074  0.17363584  1
  H+  H164  1  0.58795404  0.23323144  0.34191484  1
  H+  H165  1  0.37999147  0.23619247  0.83089096  1
  H+  H166  1  0.02881376  -0.11528536  0.97955802  1
  H+  H167  1  0.13752389  0.63035369  0.16957629  1
  H+  H168  1  0.86473721  0.48125860  0.66855071  1
  H+  H169  1  0.63133632  0.76004500  0.17526696  1
  H+  H170  1  0.41870762  0.07120034  1.03882739  1
  H+  H171  1  0.88556975  0.61460877  0.65977566  1
  H+  H172  1  0.36341071  0.97340971  0.68078109  1
  H+  H173  1  0.64041166  0.77784463  0.66257935  1
  H+  H174  1  0.63957210  0.11791660  0.66162700  1
  H+  H175  1  0.38456741  0.77491778  0.83299398  1
  H+  H176  1  0.87366081  0.64725689  0.82883753  1
  H+  H177  1  1.01743563  0.89495450  0.33867531  1
  H+  H178  1  0.83788922  0.42349348  0.06766525  1
  H+  H179  1  0.28480936  0.88909264  0.49399898  1
  H+  H180  1  0.53079436  0.39366471  0.67198051  1
  H+  H181  1  0.89919936  0.61712984  1.00321656  1
  H+  H182  1  -0.00786685  0.37015953  0.65605099  1
  H+  H183  1  0.76590267  0.13276437  0.67817069  1
  H+  H184  1  0.23059694  0.60970608  -0.01168885  1
  H+  H185  1  0.63821809  0.77789175  0.84676979  1
  H+  H186  1  0.87066577  0.40697341  0.48651319  1
  H+  H187  1  0.87336784  0.73663437  0.83311755  1
  H+  H188  1  0.07698103  0.42541718  0.38840391  1
  H+  H189  1  0.85506818  0.53797259  0.16836483  1
  H+  H190  1  0.38555144  0.22432655  0.49351975  1
  H+  H191  1  0.96982843  0.39282331  0.82024366  1
  H+  H192  1  0.14212217  0.02481099  0.98609055  1
  H+  H193  1  0.02476181  0.88274223  0.67838763  1
  H+  H194  1  0.37300231  0.48546793  0.49363190  1
  H+  H195  1  0.16930424  0.32863044  0.61778401  1
  H+  H196  1  0.10599734  0.12702942  1.00473675  1
  H+  H197  1  0.11107796  0.76586640  0.31785308  1
  H+  H198  1  0.61854557  0.39200164  0.67217046  1
  H+  H199  1  0.11855425  0.39570362  0.67800724  1
  H+  H200  1  0.61722355  0.89302201  0.67376235  1
  H+  H201  1  0.54271347  0.39770169  0.35973606  1
  H+  H202  1  0.12512704  0.60624765  0.65040591  1
  H+  H203  1  0.38019465  0.52206571  0.32197999  1
  H+  H204  1  0.63426191  0.86101994  0.50802694  1
  H+  H205  1  0.14044144  0.01431166  0.67611443  1
  H+  H206  1  0.52053635  0.63421981  0.16399144  1
  H+  H207  1  0.36268365  0.63904142  0.49108377  1
  H+  H208  1  0.74194282  0.62224541  0.83956129  1
  H+  H209  1  0.98018363  0.37657089  0.17104798  1
  H+  H210  1  0.28006388  0.13568338  0.68264550  1
  H+  H211  1  0.13160402  0.28114215  0.32210500  1
  H+  H212  1  0.36188230  0.63962369  0.82510368  1
  H+  H213  1  0.12106412  0.73492980  0.15382126  1
  H+  H214  1  0.39844141  0.01612535  0.51553564  1
  H+  H215  1  0.42880851  0.33148669  0.44627269  1
  H+  H216  1  0.22053767  0.86256931  0.95473672  1
  H+  H217  1  0.33666805  0.67217427  0.43110224  1
  H+  H218  1  0.17798516  0.13045226  0.34065806  1
  H+  H219  1  0.72242002  0.36428155  0.65949283  1
  H+  H220  1  0.36042144  0.99380936  0.16984204  1
  H+  H221  1  0.63712226  0.86746689  0.83658364  1
  H+  H222  1  0.87086579  0.23547766  1.00155737  1
  H+  H223  1  0.72099199  0.85354447  0.32715808  1
  H+  H224  1  0.76899203  0.89766276  0.49481694  1
  H+  H225  1  0.88790691  0.86514842  0.66631027  1
  H+  H226  1  0.11352657  0.72468296  0.66978313  1
  H+  H227  1  0.72975813  0.86595802  0.66582106  1
  H+  H228  1  0.09216785  0.50556361  0.81505749  1
  H+  H229  1  0.11846110  0.37575563  0.00268956  1
  H+  H230  1  0.08015228  0.90853957  0.74027473  1
  H+  H231  1  0.77444776  0.15373012  0.83604980  1
  H+  H232  1  0.09998547  0.19237930  0.49435397  1
  H+  H233  1  -0.02532536  0.10071125  0.85403387  1
  H+  H234  1  0.39253978  0.28002160  0.99323860  1
  H+  H235  1  0.42097130  1.00452365  0.35052973  1
  H+  H236  1  0.36774695  0.22557254  0.67374054  1
  H+  H237  1  0.30454691  0.13158585  0.50524824  1
  H+  H238  1  0.18476738  0.41474000  0.54102861  1
  H+  H239  1  0.21827421  0.09768493  0.15057323  1
  H+  H240  1  0.13498679  0.87837602  -0.03776099  1
  H+  H241  1  0.72549025  0.61145204  0.17282920  1
  H+  H242  1  0.08609089  0.39985303  0.48780735  1
  H+  H243  1  0.14627156  0.47685663  0.13794330  1
  H+  H244  1  0.89753525  0.54040879  0.50047213  1
  H+  H245  1  0.22895136  0.86208415  0.66316086  1
  H+  H246  1  0.47952093  0.61627100  0.50505687  1
  H+  H247  1  0.56821531  0.90515081  0.23394360  1
  H+  H248  1  0.61817755  0.72403515  0.49499590  1
  H+  H249  1  0.60517023  0.87132162  0.33845123  1
  H+  H250  1  0.14167087  0.82834408  0.22763345  1
  H+  H251  1  0.72197137  0.35445076  0.32694060  1
  H+  H252  1  0.38700340  0.77156158  0.98602100  1
  H+  H253  1  0.13689382  0.53166308  0.32520513  1
  H+  H254  1  0.13671875  0.37228833  0.32165237  1
  H+  H255  1  0.03091687  0.64533862  0.82734462  1
  H+  H256  1  0.28930910  0.38039695  0.83340159  1
  H+  H257  1  0.16588512  0.33236711  0.22843846  1
  H+  H258  1  0.62740869  0.62951464  0.34318105  1
  H+  H259  1  0.12097954  0.38213822  0.15515283  1
  H+  H260  1  0.00105280  0.40133269  0.48404354  1
  H+  H261  1  0.36296214  0.73052998  0.33819662  1
  H+  H262  1  0.05368080  0.11638860  0.34842698  1
  H+  H263  1  0.12016467  -0.08998438  0.83956824  1
  H+  H264  1  0.84785744  0.22428766  0.68823469  1
  H+  H265  1  0.93837042  0.28175784  0.29484086  1
  H+  H266  1  0.52868714  0.89198016  -0.00457837  1
  H+  H267  1  0.91280218  0.34227720  0.56082581  1
  H+  H268  1  0.14504253  0.04699218  0.83992512  1
  H+  H269  1  0.35043829  0.72683297  0.15560845  1
  H+  H270  1  0.40248488  0.37128097  0.84106323  1
  H+  H271  1  0.28557889  0.39637918  0.49961166  1
  H+  H272  1  0.40684434  0.10933417  0.51604518  1
  H+  H273  1  0.36437108  0.47404044  0.67238321  1
  H+  H274  1  0.52922125  0.13012917  0.50451429  1
  H+  H275  1  0.38978242  0.35527167  0.35852085  1
  H+  H276  1  0.61593568  0.98308065  -0.00104930  1
  H+  H277  1  0.27245465  0.64331339  0.34097247  1
  H+  H278  1  0.96522449  0.60483521  0.32433935  1
  H+  H279  1  0.67369545  0.85199035  0.92565401  1
  H+  H280  1  0.37198694  0.88587774  0.49688975  1
  H+  H281  1  0.63031707  0.27980732  0.51297624  1
  H+  H282  1  0.87806557  0.84279953  0.16197127  1
  H+  H283  1  0.27339182  0.64154033  0.82287811  1
  H+  H284  1  0.94152273  0.84097311  0.51028392  1
  H+  H285  1  0.02187317  0.39110149  0.32656403  1
  H+  H286  1  0.76476225  0.13939722  0.49658203  1
  H+  H287  1  0.14232249  0.77888772  0.50542412  1
  H+  H288  1  0.17186267  0.09245563  0.93102225  1
  H+  H289  1  0.59780173  0.66656858  0.40862305  1
  H+  H290  1  0.83709427  0.67327675  0.73371905  1
  H+  H291  1  0.31667429  0.93527991  0.11186025  1
  H+  H292  1  0.07849429  0.89991375  0.04494086  1
  H+  H293  1  0.47333908  0.60665694  0.65619514  1
  H+  H294  1  0.14285091  0.51836236  -0.01425910  1
  H+  H295  1  0.60420262  0.42527960  0.10112505  1
  H+  H296  1  0.88606373  0.77479979  0.66357730  1
  H+  H297  1  0.58181472  0.91227709  0.43370615  1
  H+  H298  1  0.66569300  0.57933765  0.27196858  1
  H+  H299  1  0.62950156  0.14316079  0.00217656  1
  H+  H300  1  0.58228085  0.66334379  0.72861607  1
  H+  H301  1  0.33214939  0.66947679  0.06107929  1
  H+  H302  1  0.16875011  0.58881829  0.89327219  1
  H+  H303  1  0.88173980  0.58801959  0.22899995  1
  H+  H304  1  0.07229280  0.15594389  0.10023477  1
  H+  H305  1  0.82741748  0.42616068  0.76405757  1
  H+  H306  1  0.62256814  0.64180632  0.84292113  1
  H+  H307  1  0.12964828  0.09612727  0.15508998  1
  H+  H308  1  0.14966571  0.03142128  0.33459390  1
  H+  H309  1  0.34788585  0.17468234  0.77204321  1
  H+  H310  1  0.19631297  0.31357687  0.92973928  1
  H+  H311  1  0.43358719  0.34550024  0.90179228  1
  H+  H312  1  0.40239813  0.57749575  0.92932018  1
  H+  H313  1  0.77272742  0.63904332  0.33944133  1
  H+  H314  1  0.82680704  0.91950780  0.39813808  1
  H+  H315  1  0.33035681  0.41857618  0.39928116  1
  H+  H316  1  0.08023821  0.91860533  0.39732270  1
  H+  H317  1  0.10628970  0.67864580  0.09274123  1
  H+  H318  1  0.08607129  0.66956425  0.76702934  1
  H+  H319  1  0.65593476  0.08256103  0.23522886  1
  H+  H320  1  0.02244370  0.63802960  0.67039373  1
  H+  H321  1  0.91474130  0.83175739  0.26005602  1
  H+  H322  1  0.06283889  0.44766520  0.75308326  1
  H+  H323  1  0.42526152  0.08959060  0.90064085  1
  H+  H324  1  0.66231675  0.81564866  0.26692023  1
  H+  H325  1  0.35587964  0.15335803  0.40571005  1
  H+  H326  1  0.32857492  0.91249863  0.73893557  1
  H+  H327  1  0.08558843  0.41158070  0.05485800  1
  H+  H328  1  0.92635257  0.34716943  0.23579244  1
  H+  H329  1  0.08247523  0.15919913  0.73971864  1
  H+  H330  1  0.84905389  0.43480896  0.42375287  1
  H+  H331  1  0.17934261  0.10884923  0.52091767  1
  H+  H332  1  0.33869058  0.41194337  0.76823907  1
  H+  H333  1  0.34280773  0.66759890  0.72905424  1
  H+  H334  1  0.66813879  0.83562651  0.56777260  1
  H+  H335  1  0.27714020  0.84971815  0.03217237  1
  H+  H336  1  0.36786838  -0.00434358  0.99384747  1
  H+  H337  1  0.58898620  0.17318612  0.76713920  1
  H+  H338  1  0.64302777  0.37161697  0.33293020  1
  H+  H339  1  0.42303684  0.33468290  0.59860958  1
  H+  H340  1  0.66324514  0.33172150  0.23649376  1
  H+  H341  1  0.58475334  0.92124984  0.76704478  1
  H+  H342  1  0.17965032  0.07349789  0.61748417  1
  H+  H343  1  0.58504891  0.16864283  0.10042063  1
  H+  H344  1  0.83208490  0.17702931  0.06058655  1
  H+  H345  1  0.91351538  0.09084647  0.57003592  1
  H+  H346  1  0.11223852  0.65205583  0.48818508  1
  H+  H347  1  0.06305737  0.18236053  0.40056083  1
  H+  H348  1  0.63359549  0.51613392  0.50375478  1
  H+  H349  1  0.91525493  0.58781266  0.59866452  1
  H+  H350  1  0.40594781  0.83179412  0.26544642  1
  H+  H351  1  0.66499375  0.08165821  0.56567327  1
  H+  H352  1  0.51698907  0.87456617  0.33707290  1
  H+  H353  1  0.51924667  0.62849737  0.97777605  1
  H+  H354  1  0.57564438  0.16533504  0.44117651  1
  H+  H355  1  0.91973523  0.58870984  0.90186233  1
  H+  H356  1  0.17584374  0.83645093  0.56736364  1
  H+  H357  1  0.27404283  0.38132571  1.00794457  1
  H+  H358  1  0.42085237  0.83807619  0.60399042  1
  H+  H359  1  0.12643804  0.64164875  1.00003224  1
  H+  H360  1  0.63899361  0.27854246  0.83776537  1
  H+  H361  1  0.82716537  0.66854844  0.43254021  1
  H+  H362  1  0.83184455  0.17384649  0.77751648  1
  H+  H363  1  0.26496342  0.63639541  0.15690418  1
  H+  H364  1  0.85040213  0.86813163  -0.01007412  1
  H+  H365  1  0.33374600  0.16547716  0.08882340  1
  H+  H366  1  0.36661031  0.93643026  0.40177394  1
  H+  H367  1  0.33677275  0.42467566  0.06393676  1
  H+  H368  1  0.91291103  0.05336571  0.23770661  1
  H+  H369  1  0.82729313  0.89185197  0.05574165  1
  H+  H370  1  0.89753025  0.82870236  0.57510807  1
  H+  H371  1  0.07264101  0.67060306  0.39621615  1
  H+  H372  1  0.41810858  0.58519390  0.56420945  1
  H+  H373  1  0.04582993  0.22169294  0.80863089  1
  H+  H374  1  0.15408836  0.58266536  0.58744073  1
  H+  H375  1  0.67604704  0.34051615  0.93167000  1
  H+  H376  1  0.41492700  0.82963609  0.92439312  1
  H+  H377  1  0.69173202  0.59250615  0.93877239  1
  H+  H378  1  0.66690478  0.58694673  0.59786896  1
  H+  H379  1  0.44338986  0.35017313  0.25132491  1
  H+  H380  1  0.39620853  0.31857165  0.24848209  1
  H+  H381  1  0.59273921  0.42578709  0.76558918  1
  H+  H382  1  0.02117596  0.88871832  0.83599392  1
  H+  H383  1  0.61015850  0.43611447  0.41610189  1
  O2-  O384  1  0.07577935  0.15511871  0.14547461  1
  O2-  O385  1  0.06464658  0.21636095  0.48076306  1
  O2-  O386  1  0.06723168  0.18202317  0.81521369  1
  O2-  O387  1  0.09742607  0.41838240  0.13759799  1
  O2-  O388  1  0.06272739  0.43263406  0.46903074  1
  O2-  O389  1  0.04211985  0.45912791  0.79194969  1
  O2-  O390  1  0.10307414  0.67598814  0.13830979  1
  O2-  O391  1  0.08278429  0.68456463  0.47589020  1
  O2-  O392  1  0.09057300  0.67394529  0.81203507  1
  O2-  O393  1  0.06995309  0.89982917  0.11734793  1
  O2-  O394  1  0.11720069  0.92998520  0.48101953  1
  O2-  O395  1  0.07903579  0.92179982  0.81567789  1
  O2-  O396  1  0.33340145  0.16837025  0.13406572  1
  O2-  O397  1  0.36142931  0.16165998  0.48480135  1
  O2-  O398  1  0.34798199  0.17483224  0.81758469  1
  O2-  O399  1  0.32852869  0.42242735  0.14209582  1
  O2-  O400  1  0.34172126  0.42397320  0.47899854  1
  O2-  O401  1  0.34582140  0.41612873  0.81358973  1
  O2-  O402  1  0.32429023  0.66642857  0.14034025  1
  O2-  O403  1  0.33368514  0.67083693  0.47698388  1
  O2-  O404  1  0.33499919  0.67247568  0.80909234  1
  O2-  O405  1  0.32552378  0.93034635  0.15491060  1
  O2-  O406  1  0.34625674  0.92074188  0.48162370  1
  O2-  O407  1  0.33191237  0.92085700  0.81925801  1
  O2-  O408  1  0.57979440  0.16827846  0.14528116  1
  O2-  O409  1  0.58738085  0.16391338  0.48512072  1
  O2-  O410  1  0.59095557  0.17496682  0.81290720  1
  O2-  O411  1  0.59348997  0.42077275  0.14592154  1
  O2-  O412  1  0.60730965  0.43665018  0.47939109  1
  O2-  O413  1  0.59603773  0.42654560  0.81120741  1
  O2-  O414  1  0.58165794  0.66598317  0.15121678  1
  O2-  O415  1  0.58773081  0.66475881  0.47781382  1
  O2-  O416  1  0.58725592  0.67005792  0.84879301  1
  O2-  O417  1  0.57194556  0.90902123  0.18959543  1
  O2-  O418  1  0.58266092  0.91270648  0.47911315  1
  O2-  O419  1  0.58476382  0.92040316  0.81267068  1
  O2-  O420  1  0.80241732  0.21191772  0.13191035  1
  O2-  O421  1  0.82553854  0.17451677  0.48065521  1
  O2-  O422  1  0.83454087  0.18927390  0.82101657  1
  O2-  O423  1  0.82982365  0.42324830  0.14358880  1
  O2-  O424  1  0.86045338  0.45057231  0.46731748  1
  O2-  O425  1  0.82742763  0.42624542  0.80960666  1
  O2-  O426  1  0.81911080  0.66603627  0.11405661  1
  O2-  O427  1  0.82339978  0.66372176  0.47812574  1
  O2-  O428  1  0.84409419  0.67821643  0.81298952  1
  O2-  O429  1  0.82764999  0.89565110  0.13613246  1
  O2-  O430  1  0.83021241  0.92980341  0.48006549  1
  O2-  O431  1  0.83850864  0.91234746  0.82000249  1
  O2-  O432  1  0.15637279  0.05962025  0.15802050  1
  O2-  O433  1  0.20538128  0.07776602  0.53891586  1
  O2-  O434  1  0.17851822  0.10434237  0.85868187  1
  O2-  O435  1  0.16546393  0.32825296  0.18301216  1
  O2-  O436  1  0.18398060  0.36013840  0.53946129  1
  O2-  O437  1  0.19686330  0.31829132  0.88451849  1
  O2-  O438  1  0.16062943  0.59268171  0.19173432  1
  O2-  O439  1  0.16539195  0.59999206  0.50784956  1
  O2-  O440  1  0.17029443  0.59390035  0.84801131  1
  O2-  O441  1  0.15097062  0.83379459  0.18158103  1
  O2-  O442  1  0.17885200  0.83955334  0.52159597  1
  O2-  O443  1  0.19987236  0.91281115  0.87974968  1
  O2-  O444  1  0.41173052  0.08823790  0.18637578  1
  O2-  O445  1  0.43092575  0.07496074  0.53461821  1
  O2-  O446  1  0.42749604  0.09190613  0.85623849  1
  O2-  O447  1  0.42505810  0.34582089  0.12970138  1
  O2-  O448  1  0.42294087  0.33162719  0.49224380  1
  O2-  O449  1  0.43372107  0.34200821  0.85673276  1
  O2-  O450  1  0.40871453  0.58130592  0.18496492  1
  O2-  O451  1  0.41828340  0.58632004  0.51842704  1
  O2-  O452  1  0.41273842  0.58367024  0.85065120  1
  O2-  O453  1  0.39642289  0.83057445  0.18383227  1
  O2-  O454  1  0.41925896  0.83246081  0.52477728  1
  O2-  O455  1  0.41626820  0.83529236  0.84956991  1
  O2-  O456  1  0.65410200  0.08148644  0.18856244  1
  O2-  O457  1  0.66534430  0.07925324  0.52032549  1
  O2-  O458  1  0.66623416  0.08704394  0.85556967  1
  O2-  O459  1  0.66598070  0.33270769  0.19080284  1
  O2-  O460  1  0.65708948  0.33634610  0.53292923  1
  O2-  O461  1  0.66951388  0.33891540  0.85377956  1
  O2-  O462  1  0.66905521  0.58216967  0.19357483  1
  O2-  O463  1  0.65842647  0.58189775  0.52241277  1
  O2-  O464  1  0.68266948  0.59087179  0.85741445  1
  O2-  O465  1  0.66626564  0.82145492  0.19235443  1
  O2-  O466  1  0.66773101  0.83344030  0.52231372  1
  O2-  O467  1  0.67036207  0.84165128  0.85458635  1
  O2-  O468  1  0.93451514  0.02897063  0.20727454  1
  O2-  O469  1  0.91342755  0.09531192  0.52462369  1
  O2-  O470  1  0.91792076  0.06610682  0.87354595  1
  O2-  O471  1  0.92210851  0.35267581  0.18799600  1
  O2-  O472  1  0.90813909  0.34009103  0.51588091  1
  O2-  O473  1  0.90913655  0.35067263  0.84154520  1
  O2-  O474  1  0.86049352  0.58959821  0.18798717  1
  O2-  O475  1  0.92259382  0.59859398  0.52150442  1
  O2-  O476  1  0.91887948  0.59098038  0.85658879  1
  O2-  O477  1  0.91056411  0.81499270  0.17820463  1
  O2-  O478  1  0.88695171  0.82580755  0.52917197  1
  O2-  O479  1  0.92000290  0.83505656  0.86687811  1
  O2-  O480  1  0.19549770  0.09125265  0.32461688  1
  O2-  O481  1  0.17185491  0.07607046  0.66197700  1
  O2-  O482  1  0.16982095  0.08712219  0.97733112  1
  O2-  O483  1  0.16652370  0.34053883  0.30727622  1
  O2-  O484  1  0.16772805  0.32731026  0.66274440  1
  O2-  O485  1  0.16939723  0.31977428  1.00630508  1
  O2-  O486  1  0.16776778  0.59479847  0.31600312  1
  O2-  O487  1  0.14659503  0.57005385  0.63160272  1
  O2-  O488  1  0.17068055  0.57941521  0.97209215  1
  O2-  O489  1  0.13974034  0.82393862  0.29920432  1
  O2-  O490  1  0.17018207  0.83322022  0.64435539  1
  O2-  O491  1  0.16673435  0.85467610  0.93354503  1
  O2-  O492  1  0.48006420  0.12200642  0.32842186  1
  O2-  O493  1  0.42194788  0.07874813  0.65580753  1
  O2-  O494  1  0.40495842  0.05955064  0.99565761  1
  O2-  O495  1  0.42699229  0.33179061  0.37153027  1
  O2-  O496  1  0.42038619  0.33259300  0.64305470  1
  O2-  O497  1  0.42841735  0.34329724  0.98649601  1
  O2-  O498  1  0.40608262  0.58005089  0.30383554  1
  O2-  O499  1  0.41292244  0.57599352  0.64199884  1
  O2-  O500  1  0.40598918  0.57996508  0.97474083  1
  O2-  O501  1  0.41629646  0.83322118  0.31002943  1
  O2-  O502  1  0.42502846  0.83971749  0.64933194  1
  O2-  O503  1  0.41274442  0.83210927  0.97029779  1
  O2-  O504  1  0.64990302  0.07313452  0.30614474  1
  O2-  O505  1  0.67049847  0.08793559  0.64643944  1
  O2-  O506  1  0.67440839  0.09055609  0.97711572  1
  O2-  O507  1  0.66076141  0.33153578  0.31432503  1
  O2-  O508  1  0.66072777  0.33376726  0.64848515  1
  O2-  O509  1  0.67877159  0.34213061  0.97724156  1
  O2-  O510  1  0.66622132  0.58244926  0.31765702  1
  O2-  O511  1  0.67015546  0.59062672  0.64403528  1
  O2-  O512  1  0.68507227  0.59259017  0.98382819  1
  O2-  O513  1  0.66019459  0.81589871  0.31325661  1
  O2-  O514  1  0.67061771  0.83856016  0.64828041  1
  O2-  O515  1  0.67619916  0.85700128  0.97203171  1
  O2-  O516  1  0.88370968  0.08635076  0.31813291  1
  O2-  O517  1  0.91788633  0.08612181  0.65007674  1
  O2-  O518  1  0.91964322  0.09158713  0.98377674  1
  O2-  O519  1  0.93015039  0.33087413  0.30137715  1
  O2-  O520  1  0.93064133  0.32968133  0.64002108  1
  O2-  O521  1  0.91661902  0.32878986  0.98215347  1
  O2-  O522  1  0.90384957  0.57250751  0.31102256  1
  O2-  O523  1  0.91439367  0.58320510  0.64432208  1
  O2-  O524  1  0.92566585  0.58827260  0.98254284  1
  O2-  O525  1  0.91523046  0.83621391  0.30549479  1
  O2-  O526  1  0.91643890  0.83524561  0.64709684  1
  O2-  O527  1  0.92250627  0.83472151  0.93540730  1
  O2-  O528  1  0.07450505  0.15617207  0.01986897  1
  O2-  O529  1  0.06165889  0.17343383  0.35590526  1
  O2-  O530  1  0.08413898  0.15796452  0.69444774  1
  O2-  O531  1  0.08872142  0.41052817  0.00987830  1
  O2-  O532  1  0.08419928  0.42472718  0.34378972  1
  O2-  O533  1  0.08384893  0.42422347  0.68128156  1
  O2-  O534  1  0.10548495  0.67978926  0.01569938  1
  O2-  O535  1  0.06851883  0.66318883  0.35119661  1
  O2-  O536  1  0.08292237  0.66435316  0.68481188  1
  O2-  O537  1  0.08631283  0.90780527  -0.00159683  1
  O2-  O538  1  0.07840010  0.92590218  0.35305079  1
  O2-  O539  1  0.08441210  0.90971508  0.69434194  1
  O2-  O540  1  0.33438193  0.17089686  0.00926043  1
  O2-  O541  1  0.35918275  0.16037836  0.36059685  1
  O2-  O542  1  0.34247351  0.16802982  0.69323283  1
  O2-  O543  1  0.33750913  0.41816947  0.01860096  1
  O2-  O544  1  0.33269533  0.41236746  0.35438630  1
  O2-  O545  1  0.33938901  0.41405125  0.68906867  1
  O2-  O546  1  0.33500106  0.67095870  0.01561639  1
  O2-  O547  1  0.33348829  0.67074024  0.35509704  1
  O2-  O548  1  0.35023854  0.66744264  0.68428198  1
  O2-  O549  1  0.30488367  0.88168808  -0.00479186  1
  O2-  O550  1  0.37839214  0.94356740  0.35745321  1
  O2-  O551  1  0.33078704  0.91171639  0.69352232  1
  O2-  O552  1  0.59773088  0.17351715  0.01661812  1
  O2-  O553  1  0.54804630  0.18315003  0.36844853  1
  O2-  O554  1  0.58978727  0.17082990  0.68991226  1
  O2-  O555  1  0.60038620  0.42570302  0.02192336  1
  O2-  O556  1  0.60565396  0.43239069  0.36590441  1
  O2-  O557  1  0.59056667  0.42536473  0.68747946  1
  O2-  O558  1  0.58046239  0.66265663  -0.03421309  1
  O2-  O559  1  0.60059232  0.66549617  0.36142831  1
  O2-  O560  1  0.58483345  0.66720462  0.68433829  1
  O2-  O561  1  0.58849107  0.92134287  0.01070864  1
  O2-  O562  1  0.57806522  0.90499430  0.35210879  1
  O2-  O563  1  0.58848768  0.92478831  0.68874674  1
  O2-  O564  1  0.83964372  0.17196416  0.01635755  1
  O2-  O565  1  0.80879525  0.17717513  0.35700751  1
  O2-  O566  1  0.82625602  0.16313487  0.69588886  1
  O2-  O567  1  0.84433051  0.42532889  0.02203842  1
  O2-  O568  1  0.83060061  0.40503216  0.34445328  1
  O2-  O569  1  0.83336996  0.42124255  0.68602265  1
  O2-  O570  1  0.80199512  0.70931930  0.06335161  1
  O2-  O571  1  0.83279261  0.66957151  0.35543653  1
  O2-  O572  1  0.83662648  0.67244544  0.68813319  1
  O2-  O573  1  0.82193470  0.89549098  0.01073168  1
  O2-  O574  1  0.82429545  0.91718892  0.35283164  1
  O2-  O575  1  0.83589088  0.91632580  0.69510776  1
