# generated using pymatgen
data_H2O
_symmetry_space_group_name_H-M   'P 1'
_cell_length_a   18.00464471
_cell_length_b   18.00193287
_cell_length_c   22.01995825
_cell_angle_alpha   90.00635452
_cell_angle_beta   90.00115156
_cell_angle_gamma   119.99434655
_symmetry_Int_Tables_number   1
_chemical_formula_structural   H2O
_chemical_formula_sum   'H384 O192'
_cell_volume   6181.23919982
_cell_formula_units_Z   192
loop_
 _symmetry_equiv_pos_site_id
 _symmetry_equiv_pos_as_xyz
  1  'x, y, z'
loop_
 _atom_type_symbol
 _atom_type_oxidation_number
  H+  1.0
  O2-  -2.0
loop_
 _atom_site_type_symbol
 _atom_site_label
 _atom_site_symmetry_multiplicity
 _atom_site_fract_x
 _atom_site_fract_y
 _atom_site_fract_z
 _atom_site_occupancy
  H+  H0  1  0.88830097  0.86219702  0.50687718  1
  H+  H1  1  0.21290881  0.35308394  0.83518802  1
  H+  H2  1  0.97597281  0.61274936  0.98840592  1
  H+  H3  1  0.40498280  0.41767881  0.36248560  1
  H+  H4  1  0.97813832  0.12103290  0.97997053  1
  H+  H5  1  0.81976530  0.48326370  0.67709660  1
  H+  H6  1  0.88204895  0.89596932  0.15165155  1
  H+  H7  1  0.91284283  0.78846171  0.17811517  1
  H+  H8  1  0.13280681  0.75830088  0.32143358  1
  H+  H9  1  0.88468431  0.77592402  0.83198749  1
  H+  H10  1  0.04770107  0.88106348  0.16700941  1
  H+  H11  1  0.22530176  0.60480155  0.32760245  1
  H+  H12  1  0.78829205  0.14703605  0.81182178  1
  H+  H13  1  0.85317294  0.63555289  0.67153620  1
  H+  H14  1  0.06319418  0.39823340  0.73283425  1
  H+  H15  1  0.97475666  0.36237590  0.17360205  1
  H+  H16  1  0.88997406  0.36167103  0.98975132  1
  H+  H17  1  0.36122787  0.63697551  -0.00044933  1
  H+  H18  1  0.27868902  0.88937938  0.01959488  1
  H+  H19  1  0.87937661  0.86296920  0.82510630  1
  H+  H20  1  0.16170966  0.34021350  0.43465164  1
  H+  H21  1  0.86186989  0.63530642  0.33912281  1
  H+  H22  1  0.38653069  0.02570472  0.67302764  1
  H+  H23  1  0.62679174  0.54840373  -0.00652423  1
  H+  H24  1  0.21262551  0.35881036  0.18584085  1
  H+  H25  1  0.62450648  0.21939525  1.01104664  1
  H+  H26  1  0.72252640  0.62186294  0.98056976  1
  H+  H27  1  0.50755396  0.63648334  1.05334894  1
  H+  H28  1  0.11054638  0.47841804  0.16311477  1
  H+  H29  1  0.88925076  0.11841045  0.50770622  1
  H+  H30  1  0.61633824  0.62067418  0.82308377  1
  H+  H31  1  0.40839219  0.86389092  0.17526884  1
  H+  H32  1  0.62223077  0.22257249  0.17215192  1
  H+  H33  1  -0.04605848  0.60509757  0.66220177  1
  H+  H34  1  0.72645475  0.61536957  0.50035460  1
  H+  H35  1  0.90726971  0.26112358  0.33039598  1
  H+  H36  1  0.72853788  0.85054794  0.82629371  1
  H+  H37  1  0.86136877  0.87946125  0.99784473  1
  H+  H38  1  0.24928378  0.86498984  0.17888170  1
  H+  H39  1  0.48241134  0.62414962  0.51299370  1
  H+  H40  1  0.50920029  0.38070006  0.16963403  1
  H+  H41  1  0.35047005  0.39572725  1.01862837  1
  H+  H42  1  0.77136481  0.13746602  0.15875822  1
  H+  H43  1  0.91870387  0.32972067  0.93085834  1
  H+  H44  1  0.32005340  0.42661932  0.07678463  1
  H+  H45  1  0.11460451  0.13652339  0.50813576  1
  H+  H46  1  0.85190034  0.16560439  0.75482425  1
  H+  H47  1  0.36880022  0.34851549  0.83947731  1
  H+  H48  1  0.15207897  0.12375135  -0.00526104  1
  H+  H49  1  0.47698619  0.86607788  0.98122900  1
  H+  H50  1  0.38722656  0.77657304  -0.01898848  1
  H+  H51  1  0.63319816  0.83578995  0.82970721  1
  H+  H52  1  0.86957544  0.97918904  0.49600385  1
  H+  H53  1  0.10087219  0.88243131  0.67063733  1
  H+  H54  1  0.14841071  0.25332517  0.01516020  1
  H+  H55  1  0.13390953  0.96720166  0.15349560  1
  H+  H56  1  1.05488029  0.16938304  0.33683890  1
  H+  H57  1  0.01716095  0.13912397  0.67513786  1
  H+  H58  1  0.01120142  0.62945809  0.49266023  1
  H+  H59  1  0.63546246  0.52906791  0.32853859  1
  H+  H60  1  0.54102706  0.89603195  0.35654083  1
  H+  H61  1  0.41026700  0.11006265  0.16239491  1
  H+  H62  1  0.53467032  0.13990909  0.82571561  1
  H+  H63  1  0.65088004  0.15391428  0.67604066  1
  H+  H64  1  0.12049063  0.35927026  0.83051354  1
  H+  H65  1  0.62303802  0.71293433  0.81727103  1
  H+  H66  1  0.11512467  0.87695685  0.34045586  1
  H+  H67  1  0.32785260  0.69473377  0.50260814  1
  H+  H68  1  0.88001361  0.86345234  0.65595457  1
  H+  H69  1  0.60104182  0.38530337  0.17309674  1
  H+  H70  1  0.60523298  0.37670206  0.67094463  1
  H+  H71  1  0.40306146  0.82926090  0.89344552  1
  H+  H72  1  0.91862612  0.58535681  0.27376702  1
  H+  H73  1  0.26437606  0.38524907  0.68583199  1
  H+  H74  1  0.26064950  0.12778458  0.67617375  1
  H+  H75  1  0.11291848  0.96487186  0.34196578  1
  H+  H76  1  0.78052482  0.39638604  0.50236161  1
  H+  H77  1  0.37419176  0.29417678  0.52440551  1
  H+  H78  1  0.12712025  0.01986998  0.66270864  1
  H+  H79  1  1.01843256  0.38353269  0.35434245  1
  H+  H80  1  0.51315884  0.37473583  0.67548060  1
  H+  H81  1  0.13837034  0.02051045  0.51162484  1
  H+  H82  1  0.57281709  0.88538320  0.51088984  1
  H+  H83  1  0.18918485  0.12054320  0.13059995  1
  H+  H84  1  0.71117890  0.45570989  0.76423579  1
  H+  H85  1  0.65203131  0.11983685  0.50482277  1
  H+  H86  1  0.12570127  0.52094768  0.99190372  1
  H+  H87  1  0.11370979  0.75606774  0.51129584  1
  H+  H88  1  0.34643768  0.46630982  0.17625753  1
  H+  H89  1  1.11716963  0.72266892  0.15901810  1
  H+  H90  1  0.85709110  0.97188584  0.81491259  1
  H+  H91  1  0.07499271  0.65779697  0.06702636  1
  H+  H92  1  0.61101279  0.22632187  0.31067145  1
  H+  H93  1  0.56458229  0.15819720  0.67402611  1
  H+  H94  1  0.34664212  0.37854906  0.16674716  1
  H+  H95  1  0.28090289  0.13226407  -0.00039141  1
  H+  H96  1  0.02701704  0.46424580  0.38962024  1
  H+  H97  1  0.61473380  0.60398219  0.67137113  1
  H+  H98  1  0.12899268  0.36100123  -0.00032287  1
  H+  H99  1  0.73360491  0.11208171  -0.00430018  1
  H+  H100  1  0.40316307  0.60943550  0.67351475  1
  H+  H101  1  0.49350605  0.63295091  0.33010681  1
  H+  H102  1  0.61746802  0.73806557  0.34583973  1
  H+  H103  1  0.77412703  0.63942858  0.33763023  1
  H+  H104  1  0.92793151  0.32885677  0.67719337  1
  H+  H105  1  0.13226537  0.35997078  0.66832344  1
  H+  H106  1  0.91155361  0.07622600  0.89135305  1
  H+  H107  1  0.62787860  0.98525981  0.35509257  1
  H+  H108  1  0.47077305  0.58686464  0.16255350  1
  H+  H109  1  0.12394037  0.11338930  0.83837234  1
  H+  H110  1  0.40976622  0.54091190  0.33400528  1
  H+  H111  1  0.11770501  0.25895625  0.82958788  1
  H+  H112  1  0.89606616  0.78348672  0.97358305  1
  H+  H113  1  0.88879055  0.11590846  -0.01370118  1
  H+  H114  1  0.08433137  0.91252922  0.43910654  1
  H+  H115  1  0.35289952  0.90706696  0.49665526  1
  H+  H116  1  0.20365405  0.24281661  0.36828665  1
  H+  H117  1  0.76221044  0.87200150  -0.00057529  1
  H+  H118  1  0.12092309  0.27455590  0.18977259  1
  H+  H119  1  1.01622210  0.89371319  0.98829105  1
  H+  H120  1  0.68924591  0.60427440  0.18055443  1
  H+  H121  1  0.04130384  0.19992306  0.34938229  1
  H+  H122  1  0.61900571  0.97848568  -0.00486193  1
  H+  H123  1  0.77650472  0.63801899  0.82726925  1
  H+  H124  1  0.90820774  0.82686666  0.59974020  1
  H+  H125  1  0.80852490  0.11807929  0.65721400  1
  H+  H126  1  0.77851645  0.13570231  0.49712406  1
  H+  H127  1  0.37753449  -0.02901553  0.16332084  1
  H+  H128  1  0.64293515  0.87168474  0.33875853  1
  H+  H129  1  0.64220136  0.34148014  0.98784279  1
  H+  H130  1  0.45224093  0.12691682  0.42677496  1
  H+  H131  1  0.22574112  0.84646493  0.32297887  1
  H+  H132  1  0.36048348  0.63302070  0.34251538  1
  H+  H133  1  0.82872898  0.40924678  0.23886801  1
  H+  H134  1  0.75807288  0.37996928  0.31075949  1
  H+  H135  1  0.34121911  0.61635516  0.50431008  1
  H+  H136  1  0.64654618  0.86381634  -0.01963231  1
  H+  H137  1  0.64523029  0.26881223  0.83917437  1
  H+  H138  1  0.27640912  0.40816641  0.48998078  1
  H+  H139  1  0.06018051  0.40796300  0.45736908  1
  H+  H140  1  0.88469314  0.52016108  0.50669814  1
  H+  H141  1  0.86103809  0.22774683  0.15950389  1
  H+  H142  1  0.10786464  0.89204273  0.00583405  1
  H+  H143  1  0.97909052  0.85829214  0.33050522  1
  H+  H144  1  0.21377662  0.60854902  0.98060831  1
  H+  H145  1  0.49974697  0.63405305  0.85059830  1
  H+  H146  1  0.85452480  0.96548059  0.33681796  1
  H+  H147  1  0.62801541  0.48099019  0.47536400  1
  H+  H148  1  0.48903600  0.69950950  0.89008923  1
  H+  H149  1  0.35317085  0.71929083  0.82835516  1
  H+  H150  1  0.06834119  0.44529595  0.67145054  1
  H+  H151  1  0.60171373  0.62696115  0.49493094  1
  H+  H152  1  0.38480868  0.53045996  1.01034057  1
  H+  H153  1  0.64588446  0.81998853  0.63162396  1
  H+  H154  1  1.01997084  0.37986402  0.82941783  1
  H+  H155  1  0.39638671  0.02756998  0.99773893  1
  H+  H156  1  0.75668430  0.86835584  0.54210215  1
  H+  H157  1  0.52741332  0.91351325  0.68722890  1
  H+  H158  1  0.19998328  0.59183092  0.51889312  1
  H+  H159  1  1.01602457  0.89211233  0.81714985  1
  H+  H160  1  0.37776688  0.28152958  1.00427137  1
  H+  H161  1  0.77876689  0.38422277  0.00651000  1
  H+  H162  1  -0.02421570  0.86025952  0.50890906  1
  H+  H163  1  0.61935995  0.12951516  1.01409387  1
  H+  H164  1  0.24748082  0.12873259  0.82597060  1
  H+  H165  1  0.37385336  0.07988430  0.31340311  1
  H+  H166  1  0.12495277  0.77062096  0.01403816  1
  H+  H167  1  0.95941990  0.35166916  0.52876686  1
  H+  H168  1  0.77934018  0.37844631  0.83126664  1
  H+  H169  1  0.16506478  0.57934879  0.68023577  1
  H+  H170  1  0.64657214  0.01006564  0.18277691  1
  H+  H171  1  0.38273552  0.38510859  0.52855060  1
  H+  H172  1  0.40441069  1.02847441  0.83700842  1
  H+  H173  1  0.45241094  0.80071229  0.48383279  1
  H+  H174  1  0.87087556  0.31167890  0.62148614  1
  H+  H175  1  0.62367126  0.36467052  0.28678348  1
  H+  H176  1  0.60850231  0.51048255  0.18436585  1
  H+  H177  1  0.40285128  0.86186801  0.33155074  1
  H+  H178  1  0.49597298  0.10598001  0.17133357  1
  H+  H179  1  0.10641894  0.63628586  1.00416268  1
  H+  H180  1  0.45397543  0.34242496  0.84156642  1
  H+  H181  1  0.15942495  0.11608606  0.34350987  1
  H+  H182  1  0.61709907  0.64798460  0.34649937  1
  H+  H183  1  0.65662834  0.05518053  0.83351868  1
  H+  H184  1  0.88614946  0.10707936  0.83012818  1
  H+  H185  1  0.09073862  0.59911869  0.66726977  1
  H+  H186  1  0.78894122  0.68732149  0.12350990  1
  H+  H187  1  0.11195303  0.63212434  0.16191912  1
  H+  H188  1  0.90527392  0.57461210  0.89893722  1
  H+  H189  1  0.37272311  0.19544144  0.46162178  1
  H+  H190  1  0.20241741  0.84274820  0.51194974  1
  H+  H191  1  0.68476179  0.26084785  0.46598289  1
  H+  H192  1  0.37688176  0.73010308  0.17738118  1
  H+  H193  1  0.58288521  0.20255149  0.46710291  1
  H+  H194  1  0.37344923  0.13888619  0.00035179  1
  H+  H195  1  0.60148200  0.17056189  0.10883851  1
  H+  H196  1  0.87333492  0.26658153  0.51539050  1
  H+  H197  1  0.27405772  0.89675119  0.81771010  1
  H+  H198  1  0.86486031  0.22509246  0.00339373  1
  H+  H199  1  0.89414373  0.27133640  0.83147617  1
  H+  H200  1  0.71651447  0.36710432  0.19749611  1
  H+  H201  1  0.38433740  0.60993751  0.19018057  1
  H+  H202  1  0.59256362  0.42075591  0.01609760  1
  H+  H203  1  0.11632976  0.72975249  0.82043486  1
  H+  H204  1  0.36336700  0.49887125  0.50456941  1
  H+  H205  1  0.63412406  0.50902887  0.65724192  1
  H+  H206  1  0.34479234  0.46048293  0.83916104  1
  H+  H207  1  0.35560630  0.88321386  0.82107833  1
  H+  H208  1  0.89156363  0.62000724  0.17845475  1
  H+  H209  1  0.11412762  0.63979746  0.82251677  1
  H+  H210  1  0.48617837  0.11430194  -0.00029307  1
  H+  H211  1  0.09842159  0.62718344  0.49717077  1
  H+  H212  1  0.38472995  0.26812397  0.16729196  1
  H+  H213  1  0.30078164  0.81523856  0.46971063  1
  H+  H214  1  0.37616608  0.27110831  0.67329675  1
  H+  H215  1  0.16326091  0.08251953  0.60580952  1
  H+  H216  1  0.88669374  0.52390714  -0.00888244  1
  H+  H217  1  0.97991586  0.61889099  0.17481956  1
  H+  H218  1  0.32720507  0.30265198  0.31053218  1
  H+  H219  1  0.15388118  0.86824259  0.17592948  1
  H+  H220  1  0.63453813  0.39780886  0.48202570  1
  H+  H221  1  0.66127704  0.52525429  0.83069055  1
  H+  H222  1  0.22569723  0.61455119  0.17860989  1
  H+  H223  1  0.11397003  0.63028788  0.34015075  1
  H+  H224  1  0.63804332  0.09563520  0.17737824  1
  H+  H225  1  0.22506121  0.11302217  0.51216410  1
  H+  H226  1  0.36960577  0.64104001  0.83434371  1
  H+  H227  1  0.35355319  0.13149133  0.68300711  1
  H+  H228  1  0.60019083  0.89047790  0.68923921  1
  H+  H229  1  0.10563844  0.87975269  0.50042196  1
  H+  H230  1  0.65116368  1.02923347  0.51194256  1
  H+  H231  1  0.65559454  0.14028879  0.83974301  1
  H+  H232  1  0.35241563  0.95327653  0.32725352  1
  H+  H233  1  0.56908372  0.59074806  0.15128880  1
  H+  H234  1  0.66103608  0.36577032  0.83749262  1
  H+  H235  1  0.78192993  0.90135086  0.64439925  1
  H+  H236  1  0.52550789  0.38934948  0.33327125  1
  H+  H237  1  0.45582777  0.37660363  0.01165383  1
  H+  H238  1  0.02142117  0.38741529  0.00789128  1
  H+  H239  1  1.01359491  0.13147710  0.82542575  1
  H+  H240  1  0.40409751  0.78722735  0.66876689  1
  H+  H241  1  0.70028388  0.37455870  0.58604997  1
  H+  H242  1  0.11123577  0.46997350  0.82683854  1
  H+  H243  1  0.45872251  0.84511036  0.83386918  1
  H+  H244  1  0.69121946  0.89906857  0.54751179  1
  H+  H245  1  0.46247451  0.73825256  0.52877157  1
  H+  H246  1  0.30114327  0.12101241  0.15206156  1
  H+  H247  1  0.21310487  0.85784365  0.66360730  1
  H+  H248  1  -0.02245843  0.11704802  0.51258026  1
  H+  H249  1  0.10294879  0.13136150  0.67463977  1
  H+  H250  1  0.86902448  0.64158848  -0.01553914  1
  H+  H251  1  0.11697067  0.22656071  0.49401877  1
  H+  H252  1  0.59461349  0.92606512  0.84826693  1
  H+  H253  1  0.10845931  0.38917257  0.16807922  1
  H+  H254  1  0.36495025  0.88650546  1.00692812  1
  H+  H255  1  0.86058992  -0.02783967  0.14833982  1
  H+  H256  1  0.11376206  -0.00957784  0.99399879  1
  H+  H257  1  0.84687197  0.12379866  0.34068750  1
  H+  H258  1  0.22123994  0.60203598  0.83751890  1
  H+  H259  1  0.35691183  0.89048935  0.66928540  1
  H+  H260  1  0.42496540  0.59445069  0.57647181  1
  H+  H261  1  0.31166635  0.65197811  0.67488132  1
  H+  H262  1  0.85064049  0.72361975  0.67393016  1
  H+  H263  1  0.49296085  0.85384894  0.17705237  1
  H+  H264  1  0.86222314  0.88105160  0.34036209  1
  H+  H265  1  0.36840924  0.24527479  0.32311276  1
  H+  H266  1  0.26241564  0.10473848  0.31955691  1
  H+  H267  1  0.70562416  0.31758032  0.67947387  1
  H+  H268  1  -0.02723358  0.60543137  0.33406870  1
  H+  H269  1  0.08274284  0.13208950  0.16182104  1
  H+  H270  1  0.87133100  0.60738082  0.83583570  1
  H+  H271  1  0.13095681  0.87602987  0.81536351  1
  H+  H272  1  0.94843078  0.10197654  0.31311706  1
  H+  H273  1  0.88191437  0.60898257  0.50432723  1
  H+  H274  1  0.95448089  0.10844421  0.16663301  1
  H+  H275  1  0.16198265  0.08559018  0.92967986  1
  H+  H276  1  0.86264800  0.72522317  0.49177280  1
  H+  H277  1  0.72560489  0.86227708  0.32696593  1
  H+  H278  1  0.64136007  0.29144247  0.55064682  1
  H+  H279  1  0.65775288  0.03502547  0.66735358  1
  H+  H280  1  0.51447753  0.60058029  0.67671860  1
  H+  H281  1  0.22332518  0.37653435  0.99926006  1
  H+  H282  1  0.72276339  0.60306000  0.66130764  1
  H+  H283  1  0.09093978  0.71962793  0.67668101  1
  H+  H284  1  0.38255814  0.51089654  0.67115514  1
  H+  H285  1  0.88546747  0.35940116  0.18703891  1
  H+  H286  1  0.09400971  0.46191682  0.51724289  1
  H+  H287  1  0.01105270  0.88297631  0.66780553  1
  H+  H288  1  0.59821637  0.41607107  0.38332207  1
  H+  H289  1  0.94110067  0.32121389  0.27198495  1
  H+  H290  1  0.83387301  0.66823078  0.43111574  1
  H+  H291  1  0.08398537  0.18279360  0.10451037  1
  H+  H292  1  0.34473937  0.22094749  0.82531672  1
  H+  H293  1  0.61541874  0.42375950  0.75742940  1
  H+  H294  1  0.31526530  0.64146928  0.40207530  1
  H+  H295  1  0.06301031  0.66168929  0.73719709  1
  H+  H296  1  0.88736491  0.06570846  0.25597899  1
  H+  H297  1  0.64511163  0.88812251  0.13767335  1
  H+  H298  1  0.63671066  0.11600364  0.32306123  1
  H+  H299  1  0.17380469  0.83064484  0.96065521  1
  H+  H300  1  0.87149023  0.50853020  0.83653266  1
  H+  H301  1  0.58090395  0.90950076  0.04779152  1
  H+  H302  1  0.86243918  0.38650394  0.50204640  1
  H+  H303  1  0.92005151  0.84750026  0.91710462  1
  H+  H304  1  0.77040422  0.59305871  0.11618660  1
  H+  H305  1  0.13944308  0.27613956  0.66953811  1
  H+  H306  1  0.58209610  0.63757212  0.73775316  1
  H+  H307  1  0.41408321  0.05608725  0.25785185  1
  H+  H308  1  0.15587062  0.57452627  0.89375818  1
  H+  H309  1  0.32230540  0.41300285  0.77361102  1
  H+  H310  1  0.13239169  0.52038390  0.33036110  1
  H+  H311  1  0.35410494  0.38240621  0.68884540  1
  H+  H312  1  0.36339440  0.44568056  0.41556101  1
  H+  H313  1  0.20831745  0.23164109  0.05395331  1
  H+  H314  1  0.83192499  0.90379621  0.06634704  1
  H+  H315  1  0.60208388  0.17714975  0.76711060  1
  H+  H316  1  0.57744746  0.90910468  0.77556545  1
  H+  H317  1  0.83455673  0.66454726  0.76695031  1
  H+  H318  1  0.35747629  0.66630883  0.12299126  1
  H+  H319  1  0.56722058  0.75134270  0.66950055  1
  H+  H320  1  0.67706792  0.09243266  0.93554650  1
  H+  H321  1  0.29327789  0.20934132  0.43998787  1
  H+  H322  1  0.82929205  0.41532595  0.76957004  1
  H+  H323  1  0.12343592  0.02339016  0.83479192  1
  H+  H324  1  0.67968843  0.32296185  0.92899910  1
  H+  H325  1  0.85872751  0.47549522  0.18492141  1
  H+  H326  1  0.90847847  0.09989257  0.60278479  1
  H+  H327  1  0.43828914  0.59752585  0.95655687  1
  H+  H328  1  0.16216430  0.85979192  0.87609238  1
  H+  H329  1  0.40010286  0.31597033  0.23116391  1
  H+  H330  1  0.31133014  0.15646212  0.76190572  1
  H+  H331  1  0.62718922  0.83301265  0.24343669  1
  H+  H332  1  0.32853107  0.91688967  0.73028105  1
  H+  H333  1  0.83502905  0.16731796  0.06369917  1
  H+  H334  1  0.68547375  0.08947432  0.60536550  1
  H+  H335  1  0.83500618  0.16595138  0.43594425  1
  H+  H336  1  0.34873290  0.16429528  0.08996052  1
  H+  H337  1  0.84885314  0.46321240  0.32302665  1
  H+  H338  1  0.57296781  0.66364779  0.43938766  1
  H+  H339  1  0.44805680  0.84234125  0.27815492  1
  H+  H340  1  0.67891712  0.82889224  0.92510634  1
  H+  H341  1  0.19482529  0.32842297  0.28391117  1
  H+  H342  1  0.83896849  0.41683452  0.06481922  1
  H+  H343  1  0.30312114  0.11620843  0.38303929  1
  H+  H344  1  0.61687018  0.19645140  0.37714954  1
  H+  H345  1  0.86540497  0.10475543  0.16494667  1
  H+  H346  1  0.08282620  0.66128233  0.39927331  1
  H+  H347  1  0.40409799  0.33775690  0.61721345  1
  H+  H348  1  0.42599539  0.58407414  0.24684573  1
  H+  H349  1  0.85971164  0.98697559  0.66664306  1
  H+  H350  1  0.27001880  0.37924140  0.33442562  1
  H+  H351  1  0.13739933  0.57168754  0.57708192  1
  H+  H352  1  0.32119468  0.89780892  0.38961076  1
  H+  H353  1  0.61989675  0.92501793  0.44821444  1
  H+  H354  1  0.16264566  0.58078100  0.23539437  1
  H+  H355  1  0.85038522  0.68410342  0.03946961  1
  H+  H356  1  0.15202762  0.17968932  0.42375555  1
  H+  H357  1  0.88868596  0.77170804  0.32440770  1
  H+  H358  1  0.34250694  0.90807338  0.10665681  1
  H+  H359  1  0.76740473  0.13784310  0.34470052  1
  H+  H360  1  0.13087843  0.36326398  0.49440859  1
  H+  H361  1  0.09652694  0.06284374  0.28942180  1
  H+  H362  1  0.66649367  0.57787190  0.89354740  1
  H+  H363  1  0.35286803  0.67155449  0.74080146  1
  H+  H364  1  0.42704477  0.09585997  0.62212558  1
  H+  H365  1  0.31316879  0.67340326  0.04044156  1
  H+  H366  1  0.14978685  0.82231492  0.60646237  1
  H+  H367  1  0.08004003  0.42001374  0.06831127  1
  H+  H368  1  0.43695808  0.08540503  0.89700447  1
  H+  H369  1  0.89146156  0.35905686  0.83496253  1
  H+  H370  1  0.57041311  0.43713980  0.08162561  1
  H+  H371  1  0.66511855  0.57604008  0.55771183  1
  H+  H372  1  0.82528619  0.91547719  0.75342647  1
  H+  H373  1  0.07462072  0.16237663  0.76549919  1
  H+  H374  1  0.93670962  0.84532601  0.23664740  1
  H+  H375  1  0.07332030  0.92486970  0.75632613  1
  H+  H376  1  0.18276155  0.10474203  0.20171428  1
  H+  H377  1  0.65405547  0.59058068  0.27327953  1
  H+  H378  1  0.43420511  0.83930037  0.60783516  1
  H+  H379  1  0.67147231  0.07676152  0.27304032  1
  H+  H380  1  0.90105669  0.57789677  0.59939858  1
  H+  H381  1  0.17802095  0.82703126  0.24194819  1
  H+  H382  1  0.44410130  0.12951909  0.49658620  1
  H+  H383  1  0.83493796  0.91606056  0.43836323  1
  O2-  O384  1  0.06278647  0.17067178  0.14724362  1
  O2-  O385  1  0.08726839  0.16413137  0.48483561  1
  O2-  O386  1  0.07585607  0.16543308  0.81163613  1
  O2-  O387  1  0.08020939  0.41813010  0.14778262  1
  O2-  O388  1  0.06669134  0.40146563  0.50189999  1
  O2-  O389  1  0.08077921  0.40811601  0.81314601  1
  O2-  O390  1  0.08200683  0.66278699  0.14522990  1
  O2-  O391  1  0.07308076  0.66018732  0.47848793  1
  O2-  O392  1  0.08254585  0.66878227  0.80902983  1
  O2-  O393  1  0.10734268  0.90424939  0.15069285  1
  O2-  O394  1  0.08283924  0.91646986  0.48415330  1
  O2-  O395  1  0.07665595  0.92630696  0.80239368  1
  O2-  O396  1  0.35574784  0.16590773  0.13595291  1
  O2-  O397  1  0.31984075  0.19500426  0.47406001  1
  O2-  O398  1  0.30916261  0.15809495  0.80952199  1
  O2-  O399  1  0.31475795  0.40892840  0.15663853  1
  O2-  O400  1  0.34053866  0.44049789  0.48726622  1
  O2-  O401  1  0.31580335  0.40397637  0.82008104  1
  O2-  O402  1  0.34225500  0.66675854  0.16534367  1
  O2-  O403  1  0.30153636  0.63566101  0.48792720  1
  O2-  O404  1  0.33206279  0.65881252  0.81344086  1
  O2-  O405  1  0.34313325  0.90803989  0.15224394  1
  O2-  O406  1  0.30283202  0.87034706  0.47180171  1
  O2-  O407  1  0.33506996  0.92171633  0.80515361  1
  O2-  O408  1  0.59974142  0.16480006  0.15415830  1
  O2-  O409  1  0.63711043  0.20220019  0.46117807  1
  O2-  O410  1  0.59772444  0.17619683  0.81261168  1
  O2-  O411  1  0.57136281  0.41567588  0.15724721  1
  O2-  O412  1  0.61005317  0.42442129  0.45610334  1
  O2-  O413  1  0.66062154  0.44276673  0.78960430  1
  O2-  O414  1  0.51732649  0.58541534  0.12747880  1
  O2-  O415  1  0.56760748  0.65492281  0.48423413  1
  O2-  O416  1  0.58558784  0.65039754  0.80603685  1
  O2-  O417  1  0.61177331  0.89154566  0.17162938  1
  O2-  O418  1  0.62798971  0.92897218  0.49378320  1
  O2-  O419  1  0.56624193  0.88136652  0.81769002  1
  O2-  O420  1  0.83016321  0.16870625  0.14087647  1
  O2-  O421  1  0.83868563  0.16692846  0.48154395  1
  O2-  O422  1  0.84905479  0.17060838  0.79957949  1
  O2-  O423  1  0.82524820  0.41273521  0.19234012  1
  O2-  O424  1  0.83778574  0.42081329  0.48405253  1
  O2-  O425  1  0.83910790  0.41543377  0.81399605  1
  O2-  O426  1  0.79563640  0.64247946  0.14358195  1
  O2-  O427  1  0.83153569  0.66484281  0.47643358  1
  O2-  O428  1  0.83805540  0.66518851  0.81276969  1
  O2-  O429  1  0.84437536  0.91400243  0.13186881  1
  O2-  O430  1  0.84148744  0.91795784  0.48334879  1
  O2-  O431  1  0.82704431  0.91167531  0.79863263  1
  O2-  O432  1  0.15735294  0.07871531  0.16249859  1
  O2-  O433  1  0.16643042  0.07989190  0.52917340  1
  O2-  O434  1  0.15477625  0.08283005  0.85319639  1
  O2-  O435  1  0.15542232  0.33328273  0.20636143  1
  O2-  O436  1  0.16856081  0.34004671  0.47870750  1
  O2-  O437  1  0.14915559  0.32255383  0.84405468  1
  O2-  O438  1  0.16404104  0.58486956  0.18953542  1
  O2-  O439  1  0.13934328  0.56843915  0.53184418  1
  O2-  O440  1  0.15938050  0.57276016  0.84846140  1
  O2-  O441  1  0.18580791  0.83502345  0.19294247  1
  O2-  O442  1  0.14368154  0.81639825  0.52847222  1
  O2-  O443  1  0.16441036  0.84962171  0.83298173  1
  O2-  O444  1  0.43249012  0.07417143  0.17971279  1
  O2-  O445  1  0.46341079  0.16634917  0.46068067  1
  O2-  O446  1  0.44148248  0.08763197  0.85221236  1
  O2-  O447  1  0.40559605  0.32540587  0.18625428  1
  O2-  O448  1  0.40453657  0.34902854  0.54633272  1
  O2-  O449  1  0.39250990  0.31026858  0.84915059  1
  O2-  O450  1  0.41142977  0.57408216  0.20053026  1
  O2-  O451  1  0.42344767  0.60870254  0.53302197  1
  O2-  O452  1  0.45714503  0.63966402  0.87691459  1
  O2-  O453  1  0.43354125  0.82972682  0.19165325  1
  O2-  O454  1  0.45848239  0.79114997  0.52685657  1
  O2-  O455  1  0.39843885  0.82119672  0.84812612  1
  O2-  O456  1  0.67360180  0.07150303  0.19290065  1
  O2-  O457  1  0.67694366  0.08982918  0.52700386  1
  O2-  O458  1  0.68839074  0.11056000  0.85366402  1
  O2-  O459  1  0.65192156  0.33368574  0.20528223  1
  O2-  O460  1  0.67876612  0.35284996  0.54454882  1
  O2-  O461  1  0.68090263  0.32889945  0.85748607  1
  O2-  O462  1  0.62926751  0.57300441  0.19448542  1
  O2-  O463  1  0.66475846  0.58093600  0.51313368  1
  O2-  O464  1  0.67501545  0.58205514  0.84781059  1
  O2-  O465  1  0.59389181  0.81217943  0.20429408  1
  O2-  O466  1  0.71509213  0.86915939  0.57114463  1
  O2-  O467  1  0.66965101  0.81228895  0.84403192  1
  O2-  O468  1  0.89374173  0.07165092  0.17947683  1
  O2-  O469  1  0.91746209  0.08818164  0.52772653  1
  O2-  O470  1  0.91300505  0.07364630  0.84558397  1
  O2-  O471  1  0.91611707  0.32650676  0.19115417  1
  O2-  O472  1  0.89645852  0.32367793  0.53535171  1
  O2-  O473  1  0.92068530  0.32890075  0.85170188  1
  O2-  O474  1  0.92101236  0.59020987  0.19303820  1
  O2-  O475  1  0.91340297  0.58168339  0.52233169  1
  O2-  O476  1  0.89626237  0.57032031  0.85311510  1
  O2-  O477  1  0.94476967  0.84835430  0.19074355  1
  O2-  O478  1  0.91479698  0.82832578  0.52268297  1
  O2-  O479  1  0.91264459  0.83752112  0.84422007  1
  O2-  O480  1  0.14743534  0.07095043  0.31097100  1
  O2-  O481  1  0.16067393  0.08224840  0.65135844  1
  O2-  O482  1  0.16613063  0.08166223  0.97517452  1
  O2-  O483  1  0.22336210  0.32240770  0.32079225  1
  O2-  O484  1  0.17232489  0.33809410  0.65984988  1
  O2-  O485  1  0.16358449  0.33475702  0.98625669  1
  O2-  O486  1  0.16426948  0.57782420  0.31094292  1
  O2-  O487  1  0.11626504  0.56234774  0.65340205  1
  O2-  O488  1  0.15120549  0.57970637  0.97268730  1
  O2-  O489  1  0.16497127  0.81912742  0.30501423  1
  O2-  O490  1  0.15135161  0.82626074  0.65185494  1
  O2-  O491  1  0.15793652  0.83393895  1.00253435  1
  O2-  O492  1  0.39998540  0.04525373  0.30170923  1
  O2-  O493  1  0.42028773  0.08982867  0.66605338  1
  O2-  O494  1  0.42735467  0.08714887  0.98181709  1
  O2-  O495  1  0.38251768  0.30362877  0.30957655  1
  O2-  O496  1  0.40804694  0.33325250  0.66339546  1
  O2-  O497  1  0.39592377  0.34244645  0.99751465  1
  O2-  O498  1  0.43253422  0.59782828  0.31373858  1
  O2-  O499  1  0.42278819  0.57129088  0.65553668  1
  O2-  O500  1  0.42101869  0.59384177  0.99957064  1
  O2-  O501  1  0.44822583  0.84788642  0.32259417  1
  O2-  O502  1  0.42469073  0.84515065  0.65104525  1
  O2-  O503  1  0.41507464  0.83850386  0.96958717  1
  O2-  O504  1  0.66827297  0.08320381  0.31764114  1
  O2-  O505  1  0.69617798  0.09291863  0.65009064  1
  O2-  O506  1  0.67237138  0.08189021  0.98007784  1
  O2-  O507  1  0.64847375  0.32850772  0.27228559  1
  O2-  O508  1  0.70981270  0.37268329  0.66696153  1
  O2-  O509  1  0.68064727  0.32094072  0.97546900  1
  O2-  O510  1  0.66477943  0.59122324  0.31755599  1
  O2-  O511  1  0.66218983  0.57112761  0.64476786  1
  O2-  O512  1  0.66329381  0.59539651  0.96537761  1
  O2-  O513  1  0.66364832  0.83678721  0.31620410  1
  O2-  O514  1  0.61392129  0.81039559  0.67028800  1
  O2-  O515  1  0.67998359  0.83541090  0.97007726  1
  O2-  O516  1  0.88830233  0.06425726  0.30183151  1
  O2-  O517  1  0.90560686  0.09340753  0.64907114  1
  O2-  O518  1  0.91878334  0.08816051  0.96663759  1
  O2-  O519  1  0.95845486  0.31128458  0.31245148  1
  O2-  O520  1  0.86876562  0.31241347  0.66623098  1
  O2-  O521  1  0.91898070  0.33005979  0.97631155  1
  O2-  O522  1  0.91277862  0.57966366  0.31864279  1
  O2-  O523  1  0.89454289  0.57700042  0.64489678  1
  O2-  O524  1  0.91578602  0.58204953  0.97173606  1
  O2-  O525  1  0.92170821  0.83344875  0.31070410  1
  O2-  O526  1  0.90674333  0.82808512  0.64547388  1
  O2-  O527  1  0.92388963  0.84609494  0.96337616  1
  O2-  O528  1  0.14972567  0.20231726  0.03809493  1
  O2-  O529  1  0.19812776  0.19311721  0.39268406  1
  O2-  O530  1  0.07606386  0.16380260  0.69187012  1
  O2-  O531  1  0.08169423  0.42192390  0.02286302  1
  O2-  O532  1  0.05923151  0.43496447  0.38173924  1
  O2-  O533  1  0.05551975  0.38934623  0.68831553  1
  O2-  O534  1  0.07552039  0.66505568  0.02178495  1
  O2-  O535  1  0.08338685  0.66132795  0.35375215  1
  O2-  O536  1  0.05587673  0.65914926  0.69121538  1
  O2-  O537  1  0.07677833  0.92595706  0.00814890  1
  O2-  O538  1  0.08526932  0.90565551  0.35833522  1
  O2-  O539  1  0.07195739  0.91548417  0.68297357  1
  O2-  O540  1  0.33947156  0.16519994  0.01669421  1
  O2-  O541  1  0.31837200  0.13201860  0.34047027  1
  O2-  O542  1  0.31982657  0.15959561  0.69525813  1
  O2-  O543  1  0.32496009  0.43226046  0.03177206  1
  O2-  O544  1  0.37128110  0.44564079  0.36994046  1
  O2-  O545  1  0.32652287  0.41633099  0.70262400  1
  O2-  O546  1  0.32685104  0.66835913  -0.00161895  1
  O2-  O547  1  0.31796357  0.64822147  0.35769376  1
  O2-  O548  1  0.36698695  0.68002226  0.69556760  1
  O2-  O549  1  0.34042911  0.91808909  0.02909541  1
  O2-  O550  1  0.32119662  0.89230755  0.34513857  1
  O2-  O551  1  0.32528393  0.91873948  0.68452284  1
  O2-  O552  1  0.59168986  0.16190158  0.03024203  1
  O2-  O553  1  0.59239738  0.17534431  0.33666305  1
  O2-  O554  1  0.62262395  0.18643245  0.69121004  1
  O2-  O555  1  0.56565115  0.44837211  0.03756300  1
  O2-  O556  1  0.58777164  0.41735103  0.33783748  1
  O2-  O557  1  0.57663343  0.40825617  0.68472586  1
  O2-  O558  1  0.55015353  0.66111131  0.08772194  1
  O2-  O559  1  0.58567070  0.67712885  0.36116117  1
  O2-  O560  1  0.57758607  0.63051523  0.69085365  1
  O2-  O561  1  0.58442240  0.91443536  0.00362990  1
  O2-  O562  1  0.60183856  0.92639260  0.37299758  1
  O2-  O563  1  0.58561373  0.93470526  0.70449818  1
  O2-  O564  1  0.83460575  0.16441242  0.01814040  1
  O2-  O565  1  0.82815501  0.16181860  0.35953830  1
  O2-  O566  1  0.86861530  0.14454131  0.67325807  1
  O2-  O567  1  0.83976730  0.42053399  0.02051090  1
  O2-  O568  1  0.82043071  0.40241069  0.30995883  1
  O2-  O569  1  0.77781398  0.43740338  0.70607256  1
  O2-  O570  1  0.84337411  0.67836716  -0.00448688  1
  O2-  O571  1  0.83518629  0.67045012  0.35134630  1
  O2-  O572  1  0.82190303  0.66343966  0.69017193  1
  O2-  O573  1  0.82498489  0.89985283  0.01845658  1
  O2-  O574  1  0.82920854  0.90780498  0.35614943  1
  O2-  O575  1  0.82972396  0.92370878  0.67389091  1
