# generated using pymatgen
data_H2O
_symmetry_space_group_name_H-M   'P 1'
_cell_length_a   17.99786615
_cell_length_b   17.99918994
_cell_length_c   22.00867393
_cell_angle_alpha   90.01713626
_cell_angle_beta   89.99973178
_cell_angle_gamma   120.03744375
_symmetry_Int_Tables_number   1
_chemical_formula_structural   H2O
_chemical_formula_sum   'H384 O192'
_cell_volume   6172.12159501
_cell_formula_units_Z   192
loop_
 _symmetry_equiv_pos_site_id
 _symmetry_equiv_pos_as_xyz
  1  'x, y, z'
loop_
 _atom_type_symbol
 _atom_type_oxidation_number
  H+  1.0
  O2-  -2.0
loop_
 _atom_site_type_symbol
 _atom_site_label
 _atom_site_symmetry_multiplicity
 _atom_site_fract_x
 _atom_site_fract_y
 _atom_site_fract_z
 _atom_site_occupancy
  H+  H0  1  0.90571239  0.52461044  0.82933685  1
  H+  H1  1  0.36030567  0.72319691  0.49076172  1
  H+  H2  1  0.27911040  0.38137513  0.02090678  1
  H+  H3  1  0.97380858  0.68263520  0.30765021  1
  H+  H4  1  0.28925546  0.89188941  0.82568134  1
  H+  H5  1  0.22021347  0.59727478  0.84385261  1
  H+  H6  1  0.63451918  0.78189777  0.29224785  1
  H+  H7  1  0.23684996  0.86003534  0.64998546  1
  H+  H8  1  0.37644512  0.64395735  0.16737261  1
  H+  H9  1  0.10385346  0.12973638  0.17424415  1
  H+  H10  1  0.46510539  0.85550049  0.25558120  1
  H+  H11  1  0.13551235  0.36717803  0.50344680  1
  H+  H12  1  0.38063184  0.97993554  0.33228199  1
  H+  H13  1  0.84997245  0.13165903  0.16569823  1
  H+  H14  1  0.38640806  0.85948802  0.49971290  1
  H+  H15  1  0.57515188  0.62726933  0.81085816  1
  H+  H16  1  0.25254518  0.12396324  0.81679578  1
  H+  H17  1  0.66213556  0.14327715  0.00357532  1
  H+  H18  1  0.38144624  1.01560583  0.50020281  1
  H+  H19  1  0.46082703  0.22239332  0.78556896  1
  H+  H20  1  0.15314168  0.36282512  0.01220558  1
  H+  H21  1  0.22245457  0.35039347  0.82776860  1
  H+  H22  1  0.60575342  0.47800529  0.49528148  1
  H+  H23  1  0.44219509  0.35775775  0.18672011  1
  H+  H24  1  0.32899518  0.41927342  0.39782742  1
  H+  H25  1  0.38798138  0.76969632  0.84404610  1
  H+  H26  1  0.63370087  0.65846648  1.03876389  1
  H+  H27  1  -0.01273869  0.85769757  0.19425324  1
  H+  H28  1  0.83752311  0.91592226  0.76444033  1
  H+  H29  1  0.37341775  0.10720250  0.32324941  1
  H+  H30  1  0.13124024  0.34452312  0.82532882  1
  H+  H31  1  0.39565667  0.86155831  0.84103098  1
  H+  H32  1  0.11295140  0.63444882  0.49546125  1
  H+  H33  1  0.40422452  0.86224374  -0.00283033  1
  H+  H34  1  0.87870465  0.26011996  0.16528108  1
  H+  H35  1  0.87079694  0.48132570  0.01142526  1
  H+  H36  1  0.28497453  0.63975114  0.16358672  1
  H+  H37  1  0.10723276  -0.09034349  0.34897747  1
  H+  H38  1  0.46783470  0.11740599  0.32244628  1
  H+  H39  1  0.85101198  0.21803826  0.49106016  1
  H+  H40  1  0.22369981  0.60981870  0.50350532  1
  H+  H41  1  0.37183012  0.51523350  0.84230393  1
  H+  H42  1  0.60696398  0.63861747  0.50134051  1
  H+  H43  1  0.60684046  0.72707367  0.50104786  1
  H+  H44  1  0.85420669  0.38943720  1.03043704  1
  H+  H45  1  0.12643506  0.87967691  0.65217650  1
  H+  H46  1  0.70656068  0.84664990  0.94826630  1
  H+  H47  1  0.35938021  0.38842211  0.48848429  1
  H+  H48  1  0.35795386  0.13140636  0.48306089  1
  H+  H49  1  0.39825002  0.36920334  0.65382033  1
  H+  H50  1  0.28092239  0.62512472  1.01608348  1
  H+  H51  1  1.04566702  0.89731147  0.80319605  1
  H+  H52  1  0.13030706  0.09650843  0.95333705  1
  H+  H53  1  0.20756526  0.08731917  0.98001390  1
  H+  H54  1  0.77048547  0.13171678  0.67442751  1
  H+  H55  1  0.60582522  0.14042170  0.16152859  1
  H+  H56  1  0.12808918  0.63375397  0.16126666  1
  H+  H57  1  0.62237852  0.65741136  0.31281068  1
  H+  H58  1  0.16768476  0.87524923  0.99065110  1
  H+  H59  1  0.33815604  0.91651569  0.72793389  1
  H+  H60  1  0.90359431  0.87039262  0.82219648  1
  H+  H61  1  0.64879653  0.38840272  0.16055473  1
  H+  H62  1  0.01624325  0.14526316  0.33639231  1
  H+  H63  1  0.65773340  0.26181478  0.69150626  1
  H+  H64  1  0.27747920  0.88155987  0.48111984  1
  H+  H65  1  0.37447899  0.85766033  0.65546057  1
  H+  H66  1  0.86825109  0.14570102  0.00916466  1
  H+  H67  1  0.63281106  1.00177861  0.86897642  1
  H+  H68  1  0.88909320  0.73441382  0.82838610  1
  H+  H69  1  0.45309900  0.60986087  0.84412783  1
  H+  H70  1  0.37535038  0.10154337  0.98356146  1
  H+  H71  1  0.10513699  0.13343485  0.04224855  1
  H+  H72  1  0.14834228  0.78779973  0.83533988  1
  H+  H73  1  0.88695038  0.26340428  0.66075601  1
  H+  H74  1  0.73623109  0.86331409  0.84216843  1
  H+  H75  1  0.12458993  0.57936887  0.86008539  1
  H+  H76  1  0.87748078  0.02111083  0.32722514  1
  H+  H77  1  0.14106184  0.77497573  0.49497803  1
  H+  H78  1  0.78356128  0.38849666  0.17192367  1
  H+  H79  1  0.87250759  0.25418085  0.81333945  1
  H+  H80  1  0.10390357  0.37585742  0.16347126  1
  H+  H81  1  0.61357983  0.35662654  0.64004855  1
  H+  H82  1  0.13534360  0.27695462  0.50317830  1
  H+  H83  1  0.87308247  0.00824460  0.65294883  1
  H+  H84  1  0.66482355  0.54332961  0.87532251  1
  H+  H85  1  0.37094357  0.48668201  0.67219250  1
  H+  H86  1  0.08430930  0.95689700  0.51432537  1
  H+  H87  1  0.68095238  0.64021425  0.87129797  1
  H+  H88  1  0.87707916  0.35832132  0.80938262  1
  H+  H89  1  0.60546331  0.21294564  0.48444671  1
  H+  H90  1  0.59944538  0.98017087  0.64095883  1
  H+  H91  1  0.64677637  0.37772905  -0.01894145  1
  H+  H92  1  0.15127650  0.76817894  0.17752824  1
  H+  H93  1  0.53564114  0.89991228  0.12899458  1
  H+  H94  1  0.75617075  0.12531444  0.33725145  1
  H+  H95  1  0.33677813  0.21647970  0.15608222  1
  H+  H96  1  0.13172094  0.27745472  0.32607293  1
  H+  H97  1  0.38175740  0.52400624  0.50528537  1
  H+  H98  1  0.27839186  0.13674767  0.67363684  1
  H+  H99  1  0.66523157  0.60344926  0.69882667  1
  H+  H100  1  0.90240171  0.52522688  0.17744909  1
  H+  H101  1  0.39551873  0.02589229  0.98447461  1
  H+  H102  1  0.02230818  0.38081623  0.66695444  1
  H+  H103  1  0.41149396  0.28843034  0.83859768  1
  H+  H104  1  0.60716953  0.97888243  0.50546689  1
  H+  H105  1  0.10591234  0.91363712  0.71335848  1
  H+  H106  1  0.63654682  0.04460374  0.00911509  1
  H+  H107  1  0.04840585  0.63367054  0.33756130  1
  H+  H108  1  0.24433333  0.13005713  0.16086299  1
  H+  H109  1  0.73597144  0.38138156  -0.01218691  1
  H+  H110  1  0.00639175  0.12327014  0.17553424  1
  H+  H111  1  0.37875026  0.72919564  0.33935180  1
  H+  H112  1  0.13887524  0.09104673  0.65326132  1
  H+  H113  1  0.39203898  0.61333493  0.32876803  1
  H+  H114  1  0.03022257  0.85179311  -0.04461927  1
  H+  H115  1  0.71817161  0.10512090  0.50768271  1
  H+  H116  1  0.50434952  0.38055540  0.33968316  1
  H+  H117  1  0.10638203  0.47390875  0.49404114  1
  H+  H118  1  0.17541150  0.57549118  0.23189037  1
  H+  H119  1  0.89240216  0.60433693  0.66159407  1
  H+  H120  1  0.92019360  0.08501738  0.90096695  1
  H+  H121  1  0.42230769  0.30733191  1.05136109  1
  H+  H122  1  0.52047553  0.14882227  0.16171456  1
  H+  H123  1  0.13483440  0.66806755  0.79758974  1
  H+  H124  1  0.12363630  0.87889625  0.18224163  1
  H+  H125  1  0.56583215  0.41806758  0.39815365  1
  H+  H126  1  0.34468102  0.38721751  0.17357355  1
  H+  H127  1  0.56949097  0.40155725  0.15936062  1
  H+  H128  1  0.11222668  0.88851333  0.49440320  1
  H+  H129  1  0.28758432  0.39822294  0.66858788  1
  H+  H130  1  0.39071647  0.52329090  0.32695509  1
  H+  H131  1  -0.00434590  0.61244772  0.17188819  1
  H+  H132  1  0.54523463  0.41348857  0.86117646  1
  H+  H133  1  0.40514365  0.82481392  0.56240390  1
  H+  H134  1  0.13129917  0.36565018  0.32861684  1
  H+  H135  1  0.86341975  0.52191932  0.35122444  1
  H+  H136  1  0.53614596  0.39964486  1.01057531  1
  H+  H137  1  0.84932222  0.63936043  0.33243274  1
  H+  H138  1  0.73042600  0.90408002  0.20714617  1
  H+  H139  1  0.11868285  0.39552165  0.66365091  1
  H+  H140  1  0.90444175  0.77361713  0.67590938  1
  H+  H141  1  0.53301600  0.65510357  0.31642452  1
  H+  H142  1  0.82149964  0.14763687  0.76650454  1
  H+  H143  1  0.62362426  0.52552815  0.32478875  1
  H+  H144  1  0.16557386  0.58138090  0.56402494  1
  H+  H145  1  0.09365784  0.17324588  0.66015820  1
  H+  H146  1  0.14907292  0.60292609  0.32579760  1
  H+  H147  1  0.60051619  0.89303122  0.63453244  1
  H+  H148  1  0.72318161  0.35758088  0.48788733  1
  H+  H149  1  0.14331608  0.51911887  0.17134318  1
  H+  H150  1  0.61407311  0.01873430  0.31068258  1
  H+  H151  1  0.25456326  0.84932722  0.33092776  1
  H+  H152  1  0.64921803  0.29586768  0.82466913  1
  H+  H153  1  0.78433858  0.39215441  0.81989108  1
  H+  H154  1  0.62852537  0.10457982  0.50412895  1
  H+  H155  1  0.46233962  0.85815448  0.64211014  1
  H+  H156  1  -0.02056167  0.12608293  0.00176968  1
  H+  H157  1  1.02100343  0.63462555  0.65884521  1
  H+  H158  1  0.13053980  0.61220317  0.65453632  1
  H+  H159  1  0.66411694  0.86602107  0.69876530  1
  H+  H160  1  0.86765545  0.46958701  0.66575082  1
  H+  H161  1  0.55314255  0.15109758  0.79576440  1
  H+  H162  1  0.14146015  0.71919727  0.34204882  1
  H+  H163  1  0.77611335  0.64805143  0.03539212  1
  H+  H164  1  0.60404593  0.13640805  0.33041214  1
  H+  H165  1  0.39804814  0.58537096  0.59568813  1
  H+  H166  1  0.12261876  0.26839450  0.18108257  1
  H+  H167  1  0.72458513  0.87538164  0.50110166  1
  H+  H168  1  0.85407265  0.13089833  0.49279772  1
  H+  H169  1  0.10700705  0.46797305  0.33915265  1
  H+  H170  1  0.96412721  0.86593544  0.34069184  1
  H+  H171  1  0.79566278  0.51532903  0.39769724  1
  H+  H172  1  0.39759795  0.53677447  0.17677505  1
  H+  H173  1  0.06163994  0.38979858  -0.02361882  1
  H+  H174  1  0.64345366  0.27223432  0.18325353  1
  H+  H175  1  0.85619687  0.62738752  0.49376401  1
  H+  H176  1  1.01388692  0.38031709  0.34380741  1
  H+  H177  1  0.89120552  0.52324683  0.51029091  1
  H+  H178  1  0.38177947  0.97622495  0.82322189  1
  H+  H179  1  0.40636072  0.86847639  0.16485211  1
  H+  H180  1  0.87463778  0.87960124  0.67610865  1
  H+  H181  1  0.62342989  0.44777935  0.63485584  1
  H+  H182  1  0.51265818  0.88151861  0.50353883  1
  H+  H183  1  0.35629751  1.00118292  0.15352817  1
  H+  H184  1  0.63366776  0.41246308  0.85265691  1
  H+  H185  1  0.52166335  0.91105710  0.02911784  1
  H+  H186  1  0.98774794  0.86301128  0.66056055  1
  H+  H187  1  0.48839081  0.64010184  0.66484257  1
  H+  H188  1  0.91619607  0.86414757  0.98357372  1
  H+  H189  1  0.97254102  0.35102012  0.80896757  1
  H+  H190  1  0.72230860  0.60736473  0.50658784  1
  H+  H191  1  0.34374953  0.62515339  0.82946971  1
  H+  H192  1  0.47107168  0.61449365  0.51070349  1
  H+  H193  1  0.13367505  0.73310640  1.00516134  1
  H+  H194  1  0.15811374  0.01694259  0.64832081  1
  H+  H195  1  0.96548841  0.36674380  1.03602328  1
  H+  H196  1  0.72038601  0.11860226  0.16660963  1
  H+  H197  1  0.37237498  0.60993922  1.00893201  1
  H+  H198  1  0.52982295  0.88506524  0.86221436  1
  H+  H199  1  0.63371894  0.03148669  0.15454064  1
  H+  H200  1  0.90883001  0.61504372  0.84015409  1
  H+  H201  1  0.89007266  0.73944660  0.17670602  1
  H+  H202  1  0.53349084  0.66396764  0.17336911  1
  H+  H203  1  -0.02918633  0.35681353  0.50415587  1
  H+  H204  1  0.87291809  0.10742008  0.32758868  1
  H+  H205  1  0.77809487  0.37772517  0.67141346  1
  H+  H206  1  0.88795551  0.35325473  0.65929965  1
  H+  H207  1  0.47851293  0.35541348  0.63649690  1
  H+  H208  1  0.61068880  0.88626815  0.50356245  1
  H+  H209  1  0.14647501  0.77081640  0.64317377  1
  H+  H210  1  0.02692195  0.14896894  0.49208781  1
  H+  H211  1  0.85550181  0.12315269  0.67245609  1
  H+  H212  1  0.11272019  0.21758010  0.81651262  1
  H+  H213  1  0.37464191  0.12148678  0.17115847  1
  H+  H214  1  0.13015595  0.52221184  0.65776372  1
  H+  H215  1  0.94559174  0.92047901  0.54986952  1
  H+  H216  1  0.62243637  0.36870398  0.33254029  1
  H+  H217  1  0.25811033  0.13158271  0.33238835  1
  H+  H218  1  0.86356863  0.38243542  0.49686971  1
  H+  H219  1  0.40420276  0.77965634  0.16471709  1
  H+  H220  1  0.98384003  0.51413097  0.95614250  1
  H+  H221  1  0.38473253  0.10684315  0.65664433  1
  H+  H222  1  0.33096940  0.20123042  0.00493890  1
  H+  H223  1  0.11602692  0.13043146  0.81567028  1
  H+  H224  1  0.87341358  0.34672716  0.34263314  1
  H+  H225  1  0.26902939  0.39035775  0.33831192  1
  H+  H226  1  0.38231211  0.51167194  0.00060582  1
  H+  H227  1  0.36345362  -0.02302067  0.66759572  1
  H+  H228  1  0.15668654  0.09579198  0.25763603  1
  H+  H229  1  0.86515991  0.93280330  0.05699523  1
  H+  H230  1  0.12951550  0.03504092  0.17939000  1
  H+  H231  1  0.15591034  0.33472238  0.23695237  1
  H+  H232  1  0.96034844  0.09262142  0.65537684  1
  H+  H233  1  0.75118194  0.89277407  0.01313405  1
  H+  H234  1  0.97939274  0.61380686  0.50440580  1
  H+  H235  1  0.06771898  0.95249367  -0.05092855  1
  H+  H236  1  0.26113544  0.63587034  0.67440310  1
  H+  H237  1  0.94747471  0.86077870  0.50055881  1
  H+  H238  1  0.35617625  0.21887092  0.48105931  1
  H+  H239  1  0.36577798  0.22814386  0.66551948  1
  H+  H240  1  0.88376722  0.35920890  0.16602331  1
  H+  H241  1  0.79323424  0.63443735  0.68535962  1
  H+  H242  1  0.62323179  0.88793311  0.86601994  1
  H+  H243  1  0.85129975  0.89938729  0.48760284  1
  H+  H244  1  0.23567429  0.60072434  0.32335455  1
  H+  H245  1  0.88048780  0.02906845  0.49740750  1
  H+  H246  1  0.15877528  0.30290912  0.65130774  1
  H+  H247  1  0.15789249  0.62100545  0.00082571  1
  H+  H248  1  0.14548133  0.27189476  1.02035419  1
  H+  H249  1  0.85378687  0.74800769  0.03457449  1
  H+  H250  1  0.88816442  0.04456345  1.01120942  1
  H+  H251  1  0.62233993  0.76019022  0.18090127  1
  H+  H252  1  0.67419546  0.28623518  0.61776222  1
  H+  H253  1  0.95294093  0.56928979  0.92117052  1
  H+  H254  1  0.36649055  0.25955798  0.33031367  1
  H+  H255  1  0.67279431  0.08976254  0.91741653  1
  H+  H256  1  0.64300507  0.77876969  0.84595112  1
  H+  H257  1  0.12076315  0.48067642  1.00722748  1
  H+  H258  1  0.84721157  0.88370073  0.33642746  1
  H+  H259  1  0.36867983  0.35213179  0.33230197  1
  H+  H260  1  0.13750976  0.98468111  0.80328502  1
  H+  H261  1  0.08709689  0.90768092  0.12716678  1
  H+  H262  1  0.35878186  0.63353066  0.49109308  1
  H+  H263  1  0.57960363  0.64396398  0.66428770  1
  H+  H264  1  0.64960255  0.75354770  0.03043789  1
  H+  H265  1  0.87854432  0.27611787  1.03460713  1
  H+  H266  1  0.35099197  0.72460493  0.67490691  1
  H+  H267  1  0.64758693  0.53795789  1.01585394  1
  H+  H268  1  0.80322326  0.64686009  0.84596246  1
  H+  H269  1  0.67227304  0.52858378  0.17301038  1
  H+  H270  1  0.17840313  0.35122036  0.58753053  1
  H+  H271  1  0.41084996  0.11042632  0.82953670  1
  H+  H272  1  0.10346086  0.45463833  0.82385725  1
  H+  H273  1  0.10610225  0.14763324  0.33241732  1
  H+  H274  1  0.36626459  0.38917192  0.82770972  1
  H+  H275  1  0.60816013  0.22703106  0.33957730  1
  H+  H276  1  0.71922754  0.38895132  0.33758518  1
  H+  H277  1  0.29275704  0.88555018  -0.00235163  1
  H+  H278  1  0.86709062  0.97500602  0.82503903  1
  H+  H279  1  1.05152252  0.63804506  1.00246594  1
  H+  H280  1  0.64332731  1.12394021  0.67458692  1
  H+  H281  1  0.77501376  0.14007431  0.01159702  1
  H+  H282  1  0.03794978  0.64426722  0.81651879  1
  H+  H283  1  0.86055090  0.13142660  0.82822969  1
  H+  H284  1  0.75674831  0.63193848  0.33828556  1
  H+  H285  1  0.72435774  0.10386340  0.85082900  1
  H+  H286  1  0.38604081  0.36118556  1.01929203  1
  H+  H287  1  0.91757361  0.58046197  0.59639077  1
  H+  H288  1  0.88655830  0.06505728  0.23746898  1
  H+  H289  1  0.37238875  0.18960000  0.75271573  1
  H+  H290  1  0.61491026  0.77409558  0.66833394  1
  H+  H291  1  0.15425712  0.87838856  0.83348814  1
  H+  H292  1  0.33854519  0.42302517  0.07915978  1
  H+  H293  1  0.12131421  0.03868709  0.32056214  1
  H+  H294  1  0.23391351  0.86363709  0.17575018  1
  H+  H295  1  0.57432121  0.39663142  0.74671762  1
  H+  H296  1  0.66253875  0.10142199  0.60648053  1
  H+  H297  1  0.71876627  0.69203986  0.66527314  1
  H+  H298  1  0.69010999  0.60782979  0.96427452  1
  H+  H299  1  0.31549670  0.65839546  0.77027266  1
  H+  H300  1  0.55208953  0.67315153  0.76076849  1
  H+  H301  1  0.55218961  0.34859580  0.74886917  1
  H+  H302  1  0.97544958  0.31743903  0.91924621  1
  H+  H303  1  0.60462025  0.70237019  0.10874541  1
  H+  H304  1  0.60320779  0.99945801  0.75242469  1
  H+  H305  1  0.84981844  0.65809079  0.74586067  1
  H+  H306  1  0.96179482  0.86285746  0.87368383  1
  H+  H307  1  0.66630332  0.58563577  0.56698078  1
  H+  H308  1  0.40774267  0.09115185  0.22966434  1
  H+  H309  1  0.26172346  0.39491662  0.16676798  1
  H+  H310  1  0.40699970  0.07336918  0.59644756  1
  H+  H311  1  0.07560605  0.93283558  0.40892212  1
  H+  H312  1  0.97543597  0.35621207  0.16535117  1
  H+  H313  1  0.10185061  0.66915523  0.10252745  1
  H+  H314  1  0.46648452  0.36198765  0.49860177  1
  H+  H315  1  0.40987618  0.32567254  0.90381304  1
  H+  H316  1  0.38519736  0.31867219  0.24494705  1
  H+  H317  1  0.19330478  0.08395508  0.87506603  1
  H+  H318  1  0.06902447  0.16647306  0.09349991  1
  H+  H319  1  0.36499764  0.61362373  0.65738689  1
  H+  H320  1  0.90944294  0.08033502  0.55983359  1
  H+  H321  1  0.33945913  0.67020899  0.39857794  1
  H+  H322  1  0.83090330  0.16514425  0.10218963  1
  H+  H323  1  0.65531867  0.08382573  0.25644160  1
  H+  H324  1  0.58562978  0.87585671  0.30286315  1
  H+  H325  1  0.08337519  0.18114149  0.43258038  1
  H+  H326  1  0.61710563  0.20040397  0.07365738  1
  H+  H327  1  0.66986698  0.58035293  0.26430560  1
  H+  H328  1  0.94026081  0.60549342  0.26043400  1
  H+  H329  1  -0.02233799  0.11008701  0.84029768  1
  H+  H330  1  0.40377762  0.90425762  0.33244150  1
  H+  H331  1  0.39993794  0.56942492  0.93850538  1
  H+  H332  1  0.91170040  0.32359321  0.56346299  1
  H+  H333  1  0.27592483  0.96351782  0.11184758  1
  H+  H334  1  0.82150881  0.65560330  0.43556191  1
  H+  H335  1  0.08142600  0.67856903  0.71646817  1
  H+  H336  1  0.67286147  0.33503583  0.24256981  1
  H+  H337  1  0.03643813  0.92469279  0.05959305  1
  H+  H338  1  0.31874453  0.15472377  0.39303074  1
  H+  H339  1  0.78169648  0.87323026  0.67120240  1
  H+  H340  1  0.83461392  0.42485519  0.10927395  1
  H+  H341  1  0.84009561  0.43018210  0.44346378  1
  H+  H342  1  0.46862498  0.10392635  0.50218692  1
  H+  H343  1  0.44329382  0.83478072  0.94467600  1
  H+  H344  1  0.84064245  0.41921718  0.75719923  1
  H+  H345  1  0.02890315  0.96117053  0.06759016  1
  H+  H346  1  0.08811010  0.66017230  0.43330459  1
  H+  H347  1  0.93481162  0.31831987  0.92612976  1
  H+  H348  1  0.75307003  0.62037911  0.18254764  1
  H+  H349  1  0.34724813  0.91434082  0.42641094  1
  H+  H350  1  0.89125246  0.64611365  0.16523956  1
  H+  H351  1  0.91488825  0.82559343  0.24645458  1
  H+  H352  1  0.62458540  0.97306659  0.74813230  1
  H+  H353  1  0.07589949  0.41352045  0.43485860  1
  H+  H354  1  0.42522571  0.59124418  0.23808194  1
  H+  H355  1  0.40408550  0.32766055  0.55549265  1
  H+  H356  1  0.18214628  0.57984371  0.94381474  1
  H+  H357  1  0.65954203  0.32734576  0.43296917  1
  H+  H358  1  0.08141768  0.40973276  0.75714093  1
  H+  H359  1  0.27147086  0.39090304  0.49017795  1
  H+  H360  1  0.85031958  0.68370330  0.09743484  1
  H+  H361  1  0.87561359  0.77374401  0.33924659  1
  H+  H362  1  0.43157145  0.08211187  0.89203928  1
  H+  H363  1  0.60499048  0.38912621  0.48675625  1
  H+  H364  1  0.29916449  0.14436014  0.06455558  1
  H+  H365  1  0.17969235  0.83603358  0.55220666  1
  H+  H366  1  0.57344015  0.15034967  0.42871086  1
  H+  H367  1  0.34504469  0.65602491  0.07598627  1
  H+  H368  1  0.68303870  0.34192398  0.89080698  1
  H+  H369  1  0.60505286  0.42091358  0.06345381  1
  H+  H370  1  0.34089543  0.41960967  0.76609989  1
  H+  H371  1  0.83109080  0.97494192  0.10753305  1
  H+  H372  1  0.67475300  0.84836058  0.56538543  1
  H+  H373  1  0.87407369  0.26035288  0.33549908  1
  H+  H374  1  0.18054581  0.84080683  0.92650345  1
  H+  H375  1  0.34707546  0.92524098  0.05774112  1
  H+  H376  1  0.06934669  0.14054599  0.72898695  1
  H+  H377  1  0.07863542  0.40618628  0.10186650  1
  H+  H378  1  0.81472656  0.83171258  0.99425748  1
  H+  H379  1  0.81227990  0.15086232  0.39909773  1
  H+  H380  1  0.64896376  0.25638239  1.01137082  1
  H+  H381  1  0.76297017  0.89084461  0.32440725  1
  H+  H382  1  0.19003172  0.81964303  0.27542261  1
  H+  H383  1  0.81318784  0.91943037  0.42613785  1
  O2-  O384  1  0.06662624  0.16010454  0.16253399  1
  O2-  O385  1  0.08672089  0.18450876  0.47758951  1
  O2-  O386  1  0.07884596  0.15411276  0.80454345  1
  O2-  O387  1  0.07425001  0.40748985  0.14635990  1
  O2-  O388  1  0.07516425  0.41258322  0.48051038  1
  O2-  O389  1  0.07165387  0.39884343  0.80244868  1
  O2-  O390  1  0.09818602  0.66560707  0.14774793  1
  O2-  O391  1  0.08252100  0.66362360  0.47822683  1
  O2-  O392  1  0.09419991  0.68884813  0.79778455  1
  O2-  O393  1  0.09199559  0.90981792  0.17132649  1
  O2-  O394  1  0.07654229  0.91442966  0.48296368  1
  O2-  O395  1  0.10795271  0.92221680  0.79375534  1
  O2-  O396  1  0.30728281  0.15669434  0.14104439  1
  O2-  O397  1  0.32835625  0.15984313  0.46456490  1
  O2-  O398  1  0.40056968  0.20246089  0.79538721  1
  O2-  O399  1  0.32392854  0.42452838  0.15547552  1
  O2-  O400  1  0.33199645  0.42269452  0.47485391  1
  O2-  O401  1  0.33501125  0.41746842  0.81143544  1
  O2-  O402  1  0.34542519  0.67189824  0.14832857  1
  O2-  O403  1  0.32835129  0.66332507  0.47448563  1
  O2-  O404  1  0.31262632  0.65540014  0.81590509  1
  O2-  O405  1  0.31458190  0.94665087  0.13040732  1
  O2-  O406  1  0.34061002  0.91092822  0.47153958  1
  O2-  O407  1  0.34789268  0.91466530  0.80902429  1
  O2-  O408  1  0.58269663  0.17938314  0.15129348  1
  O2-  O409  1  0.57559185  0.15080429  0.47419362  1
  O2-  O410  1  0.58405073  0.20788975  0.77625555  1
  O2-  O411  1  0.62482980  0.42259550  0.13973387  1
  O2-  O412  1  0.57413866  0.41982890  0.47582179  1
  O2-  O413  1  0.60835225  0.44867062  0.86383679  1
  O2-  O414  1  0.59515062  0.70193017  0.16052901  1
  O2-  O415  1  0.57197907  0.66546625  0.49154872  1
  O2-  O416  1  0.55886643  0.67107263  0.80601240  1
  O2-  O417  1  0.59036330  0.93817760  0.10711461  1
  O2-  O418  1  0.57673242  0.91602281  0.49002572  1
  O2-  O419  1  0.59198741  0.91970771  0.87394313  1
  O2-  O420  1  0.82912612  0.16996044  0.14809109  1
  O2-  O421  1  0.81847506  0.15678813  0.47804359  1
  O2-  O422  1  0.82469391  0.15563682  0.81232562  1
  O2-  O423  1  0.84275312  0.41996974  0.15398499  1
  O2-  O424  1  0.83372505  0.41607889  0.48711570  1
  O2-  O425  1  0.84525768  0.41839961  0.80342799  1
  O2-  O426  1  0.86015603  0.67763368  0.15503227  1
  O2-  O427  1  0.81564967  0.64610967  0.47995333  1
  O2-  O428  1  0.85812999  0.67043240  0.82274696  1
  O2-  O429  1  0.82343407  0.97821213  0.17253858  1
  O2-  O430  1  0.81478919  0.92428416  0.47135808  1
  O2-  O431  1  0.83811194  0.91441820  0.81024281  1
  O2-  O432  1  0.15934134  0.09670876  0.18793300  1
  O2-  O433  1  0.03618789  0.00963838  0.57374023  1
  O2-  O434  1  0.19293305  0.08993478  0.83020789  1
  O2-  O435  1  0.15336876  0.33130653  0.19088552  1
  O2-  O436  1  0.16851215  0.33973377  0.51863912  1
  O2-  O437  1  0.16099606  0.31386278  0.83864169  1
  O2-  O438  1  0.17646702  0.57934785  0.18607548  1
  O2-  O439  1  0.16308161  0.57989032  0.51858378  1
  O2-  O440  1  0.16346045  0.55704514  0.86603124  1
  O2-  O441  1  0.17826176  0.82655466  0.19656177  1
  O2-  O442  1  0.17495364  0.83670888  0.50675443  1
  O2-  O443  1  0.17963807  0.84587883  0.85398161  1
  O2-  O444  1  0.40969364  0.09486263  0.18394406  1
  O2-  O445  1  0.40800470  0.07545464  0.51606169  1
  O2-  O446  1  0.43659679  0.07792721  0.84675419  1
  O2-  O447  1  0.38247756  0.32199090  0.19832792  1
  O2-  O448  1  0.40460341  0.33047480  0.51011293  1
  O2-  O449  1  0.42434579  0.34199527  0.86125982  1
  O2-  O450  1  0.42978024  0.59688792  0.19203276  1
  O2-  O451  1  0.40793951  0.58369785  0.52230810  1
  O2-  O452  1  0.39430080  0.57429160  0.86046804  1
  O2-  O453  1  0.44083847  0.84223199  0.17500746  1
  O2-  O454  1  0.41615423  0.82899721  0.51725866  1
  O2-  O455  1  0.42263154  0.82930770  0.85877532  1
  O2-  O456  1  0.65844317  0.08626343  0.17809955  1
  O2-  O457  1  0.65777956  0.07590231  0.52418828  1
  O2-  O458  1  0.66703259  0.07513477  0.87134429  1
  O2-  O459  1  0.68072727  0.33370398  0.19792044  1
  O2-  O460  1  0.66041041  0.32695126  0.47746057  1
  O2-  O461  1  0.68653024  0.35161571  0.84566084  1
  O2-  O462  1  0.69150375  0.58440984  0.19282858  1
  O2-  O463  1  0.66093892  0.58049840  0.52285195  1
  O2-  O464  1  0.70647165  0.60726269  0.88654804  1
  O2-  O465  1  0.66982208  0.85497650  0.21566872  1
  O2-  O466  1  0.66471780  0.84503493  0.52151020  1
  O2-  O467  1  0.68010033  0.83543089  0.86461075  1
  O2-  O468  1  0.88504851  0.06781670  0.19141382  1
  O2-  O469  1  0.91162302  0.08830049  0.51483876  1
  O2-  O470  1  0.91724403  0.08207562  0.85570810  1
  O2-  O471  1  0.91267674  0.32526318  0.17940866  1
  O2-  O472  1  0.90934069  0.32625434  0.51819490  1
  O2-  O473  1  0.90660585  0.32028558  0.80926525  1
  O2-  O474  1  0.93601912  0.58748428  0.18911398  1
  O2-  O475  1  0.91957515  0.58513894  0.52157144  1
  O2-  O476  1  0.94103133  0.58342911  0.84730312  1
  O2-  O477  1  0.92441995  0.82199491  0.20198615  1
  O2-  O478  1  0.90630881  0.87037047  0.52357367  1
  O2-  O479  1  0.94082608  0.84487754  0.83156648  1
  O2-  O480  1  0.15628015  0.09779548  0.30506692  1
  O2-  O481  1  0.18633682  0.08062527  0.64407394  1
  O2-  O482  1  0.15603649  0.05996762  0.95161816  1
  O2-  O483  1  0.16410178  0.33902758  0.31130015  1
  O2-  O484  1  0.18475485  0.36037334  0.63436292  1
  O2-  O485  1  0.18209913  0.33022340  1.00291404  1
  O2-  O486  1  0.17554474  0.56990644  0.30809083  1
  O2-  O487  1  0.16288765  0.58247913  0.64236520  1
  O2-  O488  1  0.18189987  0.58293938  0.98913195  1
  O2-  O489  1  0.19252753  0.81530420  0.32026323  1
  O2-  O490  1  0.17993921  0.83114033  0.62839013  1
  O2-  O491  1  0.18349071  0.83566172  0.97258470  1
  O2-  O492  1  0.40828203  0.08205073  0.30643571  1
  O2-  O493  1  0.40852572  0.07116057  0.64158598  1
  O2-  O494  1  0.41507758  0.08386777  0.96751819  1
  O2-  O495  1  0.39795285  0.32135592  0.31550527  1
  O2-  O496  1  0.41479508  0.33011502  0.63394471  1
  O2-  O497  1  0.41470596  0.32519078  1.01104385  1
  O2-  O498  1  0.42148655  0.58367362  0.31122381  1
  O2-  O499  1  0.39865600  0.58644473  0.64188871  1
  O2-  O500  1  0.40616546  0.57167759  0.98385780  1
  O2-  O501  1  0.46349344  0.85124141  0.30103749  1
  O2-  O502  1  0.39821851  0.82104287  0.63939256  1
  O2-  O503  1  0.44308528  0.83896843  0.98929315  1
  O2-  O504  1  0.65059435  0.08095520  0.30187600  1
  O2-  O505  1  0.66587183  0.09263219  0.65065426  1
  O2-  O506  1  0.67592063  0.09824156  0.98612859  1
  O2-  O507  1  0.66142320  0.34412553  0.32439705  1
  O2-  O508  1  0.67608297  0.31339291  0.65651779  1
  O2-  O509  1  0.67879759  0.34905841  0.96732877  1
  O2-  O510  1  0.66165255  0.58482793  0.30955813  1
  O2-  O511  1  0.68488967  0.62999349  0.65889576  1
  O2-  O512  1  0.68126502  0.60191231  1.00931071  1
  O2-  O513  1  0.66192238  0.84899785  0.28233760  1
  O2-  O514  1  0.66005591  0.83597494  0.66082985  1
  O2-  O515  1  0.72219907  0.83764649  0.98963167  1
  O2-  O516  1  0.90660362  0.08135542  0.31116146  1
  O2-  O517  1  0.90048047  0.06945607  0.63991765  1
  O2-  O518  1  0.92127346  0.09579246  0.98334356  1
  O2-  O519  1  0.90734786  0.32324768  0.32598099  1
  O2-  O520  1  0.91817815  0.32299471  0.64387329  1
  O2-  O521  1  0.90415938  0.33829256  1.04552751  1
  O2-  O522  1  0.94292094  0.61998406  0.30559035  1
  O2-  O523  1  0.91975247  0.57405032  0.64185902  1
  O2-  O524  1  0.96579694  0.55630971  0.96324531  1
  O2-  O525  1  0.90525289  0.83326694  0.32279569  1
  O2-  O526  1  0.92364988  0.83192743  0.66103456  1
  O2-  O527  1  0.86790364  0.83630710  1.01249997  1
  O2-  O528  1  0.07778742  0.16806133  0.04666542  1
  O2-  O529  1  0.07700430  0.17812362  0.35021281  1
  O2-  O530  1  0.05870676  0.12299849  0.68491215  1
  O2-  O531  1  0.08485322  0.41703902  0.01575212  1
  O2-  O532  1  0.07511440  0.40983271  0.35797238  1
  O2-  O533  1  0.08259741  0.41714591  0.68275038  1
  O2-  O534  1  0.10813485  0.67428268  0.02273168  1
  O2-  O535  1  0.10551604  0.65652472  0.35614822  1
  O2-  O536  1  0.08298025  0.66921973  0.67232967  1
  O2-  O537  1  0.01540635  0.89503928  -0.05628600  1
  O2-  O538  1  0.07159800  0.93297247  0.36298436  1
  O2-  O539  1  0.09755958  0.91077117  0.66868594  1
  O2-  O540  1  0.29848115  0.14090010  0.01848655  1
  O2-  O541  1  0.31909739  0.15662068  0.34650054  1
  O2-  O542  1  0.34086118  0.17183938  0.68701410  1
  O2-  O543  1  0.34208360  0.41696816  0.03395185  1
  O2-  O544  1  0.33022375  0.41762596  0.35212788  1
  O2-  O545  1  0.34607950  0.42624732  0.68672492  1
  O2-  O546  1  0.34164133  0.64794573  0.03014747  1
  O2-  O547  1  0.34296573  0.66942529  0.35280381  1
  O2-  O548  1  0.32073869  0.66451944  0.69194956  1
  O2-  O549  1  0.35215779  0.91875034  0.01345946  1
  O2-  O550  1  0.36309399  0.92135163  0.34838844  1
  O2-  O551  1  0.33361572  0.91470334  0.68281681  1
  O2-  O552  1  0.65097319  0.21136768  0.03599917  1
  O2-  O553  1  0.57494871  0.16542233  0.35028970  1
  O2-  O554  1  0.64167570  0.19837803  0.73188941  1
  O2-  O555  1  0.59841793  0.43066727  0.01954902  1
  O2-  O556  1  0.56592438  0.41477329  0.35261269  1
  O2-  O557  1  0.58448272  0.38809394  0.62460472  1
  O2-  O558  1  0.61171733  0.69731853  0.05131871  1
  O2-  O559  1  0.59605820  0.69447653  0.31520156  1
  O2-  O560  1  0.55037549  0.67209987  0.68272518  1
  O2-  O561  1  0.55982500  0.96523398  0.05397272  1
  O2-  O562  1  0.55386310  0.90388232  0.32071190  1
  O2-  O563  1  0.56640586  0.92033228  0.62543796  1
  O2-  O564  1  0.83490939  0.17006497  0.02904671  1
  O2-  O565  1  0.81566130  0.15360889  0.35366873  1
  O2-  O566  1  0.83022943  0.15694810  0.69089247  1
  O2-  O567  1  0.82793879  0.42787700  0.03151481  1
  O2-  O568  1  0.81534484  0.48034328  0.37667347  1
  O2-  O569  1  0.84059466  0.41103661  0.68446378  1
  O2-  O570  1  0.83910977  0.68712030  0.04702361  1
  O2-  O571  1  0.81780882  0.66185227  0.35507182  1
  O2-  O572  1  0.85218548  0.65866752  0.70024769  1
  O2-  O573  1  0.83612550  0.96659625  0.05940849  1
  O2-  O574  1  0.81753255  0.91618443  0.34762862  1
  O2-  O575  1  0.83964816  0.90856168  0.68789960  1
