# generated using pymatgen
data_H2O
_symmetry_space_group_name_H-M   'P 1'
_cell_length_a   17.98563865
_cell_length_b   17.98081596
_cell_length_c   21.99588346
_cell_angle_alpha   89.98724845
_cell_angle_beta   90.00874912
_cell_angle_gamma   119.98948388
_symmetry_Int_Tables_number   1
_chemical_formula_structural   H2O
_chemical_formula_sum   'H384 O192'
_cell_volume   6161.02968603
_cell_formula_units_Z   192
loop_
 _symmetry_equiv_pos_site_id
 _symmetry_equiv_pos_as_xyz
  1  'x, y, z'
loop_
 _atom_type_symbol
 _atom_type_oxidation_number
  H+  1.0
  O2-  -2.0
loop_
 _atom_site_type_symbol
 _atom_site_label
 _atom_site_symmetry_multiplicity
 _atom_site_fract_x
 _atom_site_fract_y
 _atom_site_fract_z
 _atom_site_occupancy
  H+  H0  1  0.61161960  0.73785511  0.82035608  1
  H+  H1  1  0.65284839  0.12950756  0.65729759  1
  H+  H2  1  0.14375463  0.78843959  0.00384761  1
  H+  H3  1  0.16122135  0.26841392  1.01552715  1
  H+  H4  1  0.13027777  0.61084407  0.65732598  1
  H+  H5  1  -0.00368123  0.38081135  -0.01111601  1
  H+  H6  1  0.80312748  0.68349337  0.85967382  1
  H+  H7  1  0.13879951  0.14783882  0.48926005  1
  H+  H8  1  0.92770348  0.09481433  0.60030948  1
  H+  H9  1  0.14596140  0.85529939  0.66144767  1
  H+  H10  1  0.14291066  0.28170481  0.50837925  1
  H+  H11  1  0.97623167  0.62432062  0.83438352  1
  H+  H12  1  0.87556017  0.63637979  0.17979793  1
  H+  H13  1  0.89347853  0.76971190  0.50567478  1
  H+  H14  1  0.60145552  0.88670731  0.15058729  1
  H+  H15  1  0.47460083  0.87547983  0.66302254  1
  H+  H16  1  0.14181576  0.11423844  0.66101652  1
  H+  H17  1  0.38721814  0.01834772  0.49686043  1
  H+  H18  1  0.61197597  0.98812916  0.67631951  1
  H+  H19  1  0.70246913  0.59639054  0.33267741  1
  H+  H20  1  1.01822902  0.05719111  0.99056036  1
  H+  H21  1  0.75687833  0.84134365  0.63984598  1
  H+  H22  1  0.59621842  0.88023163  0.33081110  1
  H+  H23  1  0.40075901  0.06056362  0.56109830  1
  H+  H24  1  0.54093340  0.78675540  0.60612748  1
  H+  H25  1  0.11298607  0.63579378  0.17069927  1
  H+  H26  1  0.81828848  0.17603735  0.40743542  1
  H+  H27  1  0.08968332  0.46982272  0.49694321  1
  H+  H28  1  0.04869029  0.91094597  0.32823884  1
  H+  H29  1  0.58004355  0.42796827  0.82612360  1
  H+  H30  1  0.27228956  0.88680823  0.17376602  1
  H+  H31  1  0.87913006  0.09220580  0.32469323  1
  H+  H32  1  0.22909009  0.61600010  1.02473082  1
  H+  H33  1  0.86633820  0.23430514  0.67082160  1
  H+  H34  1  0.16041086  0.58776121  0.27239217  1
  H+  H35  1  0.44086295  0.77290992  -0.02312026  1
  H+  H36  1  0.06415927  0.41435763  0.43668549  1
  H+  H37  1  0.91456696  0.36461337  0.15723478  1
  H+  H38  1  0.68247609  0.35504284  0.18617311  1
  H+  H39  1  0.38927657  0.44219804  -0.00793094  1
  H+  H40  1  0.36750370  0.61895577  0.65192014  1
  H+  H41  1  0.67080073  0.33953697  0.93337812  1
  H+  H42  1  0.27840825  0.89671737  0.33394620  1
  H+  H43  1  0.10842355  0.16703422  0.01018266  1
  H+  H44  1  0.40333195  0.34046438  0.90594309  1
  H+  H45  1  0.36790310  0.17597107  0.67325967  1
  H+  H46  1  0.86202495  0.49078880  0.82638491  1
  H+  H47  1  0.86614030  0.40375516  0.82473302  1
  H+  H48  1  0.91353180  0.85979426  0.31900374  1
  H+  H49  1  0.79930041  0.86311764  0.34464916  1
  H+  H50  1  0.78047776  0.15488219  0.82517514  1
  H+  H51  1  0.89021077  0.12586854  0.83257606  1
  H+  H52  1  0.87145871  0.51285905  0.65256468  1
  H+  H53  1  0.84389329  0.09085256  0.98805688  1
  H+  H54  1  0.78006198  0.39238198  -0.00284024  1
  H+  H55  1  0.85783843  0.87336361  0.00813410  1
  H+  H56  1  0.19178324  0.89728673  0.55109150  1
  H+  H57  1  0.51437456  0.11745427  0.81629540  1
  H+  H58  1  0.90848640  0.49050891  0.14480302  1
  H+  H59  1  0.00534449  0.04888461  0.02362908  1
  H+  H60  1  1.03046053  0.39423457  0.33764714  1
  H+  H61  1  0.88986718  0.61396833  0.00938330  1
  H+  H62  1  0.26818846  0.63969411  0.34079865  1
  H+  H63  1  0.41705933  0.92410871  0.94711908  1
  H+  H64  1  0.36030796  0.64369712  0.34377540  1
  H+  H65  1  1.03910440  0.89684860  0.81643355  1
  H+  H66  1  0.79987628  0.14125848  0.07707882  1
  H+  H67  1  0.76758155  0.13328190  0.49646177  1
  H+  H68  1  0.36420861  0.72077725  0.81056108  1
  H+  H69  1  0.37739104  0.10227819  0.83156343  1
  H+  H70  1  0.13901304  0.27365257  0.84075350  1
  H+  H71  1  0.62795151  0.34150964  0.84089112  1
  H+  H72  1  0.22074395  0.36111042  0.33398151  1
  H+  H73  1  0.90946359  0.80774905  0.85600339  1
  H+  H74  1  0.16225482  0.33525284  0.59873682  1
  H+  H75  1  0.90497089  0.27346578  0.31821111  1
  H+  H76  1  0.36429595  0.71618504  0.17626012  1
  H+  H77  1  0.36121294  0.63005759  0.81756301  1
  H+  H78  1  0.88270203  0.11037334  0.50838658  1
  H+  H79  1  0.98832496  0.61872067  1.01178686  1
  H+  H80  1  0.14745211  0.03610346  0.93695628  1
  H+  H81  1  0.38427025  0.77396624  0.50654061  1
  H+  H82  1  0.64321367  0.87340263  0.83761431  1
  H+  H83  1  0.88980334  0.00977837  0.32565280  1
  H+  H84  1  0.79532400  0.41354227  0.20119365  1
  H+  H85  1  0.64167049  0.50849596  1.01912606  1
  H+  H86  1  0.13128101  0.39141141  0.16285642  1
  H+  H87  1  0.62270080  0.60869359  0.32099247  1
  H+  H88  1  0.57957226  0.91987254  0.42892926  1
  H+  H89  1  0.58647619  0.46107701  0.68840319  1
  H+  H90  1  0.26438688  0.11366823  0.67022877  1
  H+  H91  1  0.47079533  0.85768483  0.17497270  1
  H+  H92  1  0.37943863  0.77571975  0.32863970  1
  H+  H93  1  0.92091510  0.87791019  0.65874192  1
  H+  H94  1  0.85567376  0.00946809  0.98475314  1
  H+  H95  1  0.52615005  0.64366991  0.82522786  1
  H+  H96  1  0.76824560  0.40350470  0.33320753  1
  H+  H97  1  0.86600027  0.72641607  0.63965269  1
  H+  H98  1  0.58994820  0.70219014  0.00390664  1
  H+  H99  1  0.38311369  0.78974706  0.65861269  1
  H+  H100  1  0.79499223  0.37168373  0.19629164  1
  H+  H101  1  0.13915080  0.12862159  0.32198430  1
  H+  H102  1  0.32709970  0.41867939  0.76192280  1
  H+  H103  1  0.83673994  0.18065017  0.76374595  1
  H+  H104  1  0.65089680  0.59509900  1.04255733  1
  H+  H105  1  0.85336097  0.90961868  0.40326921  1
  H+  H106  1  0.41949659  0.56656902  0.37544609  1
  H+  H107  1  0.24027299  0.20307488  0.03580976  1
  H+  H108  1  0.63178364  0.11297898  0.17737361  1
  H+  H109  1  0.86085507  0.21651753  0.15805445  1
  H+  H110  1  0.62334184  0.45074801  0.51037137  1
  H+  H111  1  0.79543114  0.23287069  0.36638333  1
  H+  H112  1  0.37088981  1.00091040  -0.01424139  1
  H+  H113  1  0.10884396  0.64280815  1.02705452  1
  H+  H114  1  0.30173816  0.90541052  0.00025150  1
  H+  H115  1  0.90950642  0.75488227  0.16978065  1
  H+  H116  1  0.86794603  0.88246200  0.49242388  1
  H+  H117  1  0.36337035  0.51851681  0.65413795  1
  H+  H118  1  0.13227883  0.53262374  0.33371065  1
  H+  H119  1  0.24226046  0.87985810  0.49910052  1
  H+  H120  1  0.53674180  0.90014360  0.82624847  1
  H+  H121  1  0.35607372  0.15122403  0.16231255  1
  H+  H122  1  0.88995516  0.66785577  0.34091923  1
  H+  H123  1  0.51528282  0.13388714  0.34081760  1
  H+  H124  1  0.36466970  0.22908128  0.34340392  1
  H+  H125  1  0.36605967  0.13270249  0.49366418  1
  H+  H126  1  0.64987865  0.58152172  0.54430292  1
  H+  H127  1  0.57658659  0.80825085  0.01289305  1
  H+  H128  1  0.58305683  0.76019649  0.47735267  1
  H+  H129  1  0.11952281  0.48569169  1.01346318  1
  H+  H130  1  0.11080800  0.47874545  0.66720356  1
  H+  H131  1  0.13525358  0.12308055  0.17588455  1
  H+  H132  1  0.76641749  0.13129918  0.16811074  1
  H+  H133  1  0.02512111  0.38759843  0.81793669  1
  H+  H134  1  0.02570405  0.14045165  0.82844647  1
  H+  H135  1  0.10189413  0.71387483  0.66887459  1
  H+  H136  1  0.69696305  0.09213452  0.99385669  1
  H+  H137  1  0.93211950  0.59293656  0.90013086  1
  H+  H138  1  0.09845001  0.93835087  0.39253338  1
  H+  H139  1  0.66738238  0.81724877  0.92158540  1
  H+  H140  1  0.13067107  0.61381328  0.50673078  1
  H+  H141  1  0.87661813  0.63189574  0.49747683  1
  H+  H142  1  0.09714855  0.63499278  0.80981170  1
  H+  H143  1  0.03838814  0.88453500  0.66275356  1
  H+  H144  1  0.62517654  0.01593393  0.32783122  1
  H+  H145  1  0.60292806  0.08418362  0.98930438  1
  H+  H146  1  0.23262707  0.13016251  0.17601803  1
  H+  H147  1  0.74595521  0.87391167  0.15373191  1
  H+  H148  1  0.40506221  0.09392838  0.23329025  1
  H+  H149  1  0.98015882  0.86116573  0.49580231  1
  H+  H150  1  0.94446153  0.78831749  0.30767853  1
  H+  H151  1  0.50139169  0.11698892  0.00533858  1
  H+  H152  1  0.71191961  0.10918815  0.33173046  1
  H+  H153  1  0.52360266  0.88913165  0.49004621  1
  H+  H154  1  0.35708517  0.46615164  0.33111898  1
  H+  H155  1  0.60275004  0.62988424  0.49191733  1
  H+  H156  1  0.25996486  0.39747004  0.66483395  1
  H+  H157  1  0.88886350  0.02541803  0.50897181  1
  H+  H158  1  0.14074111  0.27317746  0.18152314  1
  H+  H159  1  0.13772457  0.52346088  0.17698469  1
  H+  H160  1  0.59918607  0.46999690  0.35038597  1
  H+  H161  1  0.61431434  0.51408247  0.16935771  1
  H+  H162  1  0.39250316  0.85156801  0.79069333  1
  H+  H163  1  0.66278744  0.84011763  0.55339526  1
  H+  H164  1  0.57370620  0.36987705  0.16702074  1
  H+  H165  1  0.11574979  0.47372100  0.81335189  1
  H+  H166  1  0.77717506  0.64423327  0.65880573  1
  H+  H167  1  0.26646555  0.38599622  0.82195313  1
  H+  H168  1  0.63091578  0.11781269  0.83870736  1
  H+  H169  1  0.90566994  0.53619343  0.24458610  1
  H+  H170  1  0.62914030  0.76485568  0.16047721  1
  H+  H171  1  -0.04455531  0.36516893  0.50159805  1
  H+  H172  1  0.86649488  0.90385982  0.82269943  1
  H+  H173  1  0.49434691  0.37921166  0.67469346  1
  H+  H174  1  0.12200960  0.73868352  0.49829730  1
  H+  H175  1  0.51923463  0.12726627  0.49626939  1
  H+  H176  1  0.62371673  0.26679464  0.33367773  1
  H+  H177  1  0.37810270  0.45118851  0.18340263  1
  H+  H178  1  0.77996587  0.62183503  1.02943823  1
  H+  H179  1  0.34574773  0.59955454  0.02127018  1
  H+  H180  1  0.77230955  0.88639586  0.62903152  1
  H+  H181  1  0.88378280  0.67041989  0.86881402  1
  H+  H182  1  0.68115202  0.59083520  0.73187897  1
  H+  H183  1  0.47287424  0.36323037  0.33490088  1
  H+  H184  1  0.35363403  0.40495428  0.66089385  1
  H+  H185  1  1.01045527  0.62397798  0.66102972  1
  H+  H186  1  0.92895794  0.35244132  0.88852910  1
  H+  H187  1  0.37193770  0.36785299  0.83776564  1
  H+  H188  1  0.38644126  0.52146302  0.83471612  1
  H+  H189  1  0.11466360  0.97721303  0.48763758  1
  H+  H190  1  0.99051771  0.34864347  0.16623004  1
  H+  H191  1  0.67589832  0.57573110  0.83895173  1
  H+  H192  1  0.64226832  0.03240011  0.84292625  1
  H+  H193  1  0.34808610  0.63374299  0.49571533  1
  H+  H194  1  0.34036566  0.04699659  0.65636355  1
  H+  H195  1  0.26924274  0.12266471  0.83240924  1
  H+  H196  1  0.89045124  0.28904857  0.83138936  1
  H+  H197  1  0.79368582  0.34642899  0.50789302  1
  H+  H198  1  0.35831708  0.37973545  0.34077873  1
  H+  H199  1  0.61948759  0.35442793  0.33576126  1
  H+  H200  1  0.18969070  0.82052358  0.61489503  1
  H+  H201  1  0.10953221  0.23078436  0.33662618  1
  H+  H202  1  0.03547275  0.67616956  0.34449285  1
  H+  H203  1  0.91845778  1.00414929  0.67571948  1
  H+  H204  1  0.03690026  0.14596768  0.67366983  1
  H+  H205  1  0.46166379  0.11761200  0.17371319  1
  H+  H206  1  0.58861101  0.16912198  0.76592540  1
  H+  H207  1  0.39465717  0.52942155  0.50444172  1
  H+  H208  1  0.59702743  0.89242068  0.67386439  1
  H+  H209  1  0.38270332  0.59436557  0.19331436  1
  H+  H210  1  0.02114669  0.13410973  0.15656237  1
  H+  H211  1  0.36795371  0.28856159  -0.00719524  1
  H+  H212  1  0.27460852  0.14375592  0.34019516  1
  H+  H213  1  0.91737617  0.28995407  0.97440996  1
  H+  H214  1  0.87671964  0.60359731  0.63778700  1
  H+  H215  1  0.16162356  0.58282783  0.59755939  1
  H+  H216  1  0.21498260  0.60700291  0.50585113  1
  H+  H217  1  0.65858916  0.64750375  0.81448327  1
  H+  H218  1  0.86882931  0.71474290  0.02375997  1
  H+  H219  1  0.60232793  0.12961451  0.34032792  1
  H+  H220  1  0.36524757  0.89187371  0.33395000  1
  H+  H221  1  0.36625112  0.88527914  0.48687960  1
  H+  H222  1  0.39131733  0.40290754  0.48970485  1
  H+  H223  1  0.97428273  0.37004668  0.65526856  1
  H+  H224  1  0.25122631  0.12833899  0.01285687  1
  H+  H225  1  0.37162731  0.01159108  0.84377829  1
  H+  H226  1  0.82331904  0.41594891  0.73291635  1
  H+  H227  1  0.13289994  0.10648580  0.84895762  1
  H+  H228  1  0.14614604  0.04094958  0.32194310  1
  H+  H229  1  0.38563634  0.02758207  0.32456584  1
  H+  H230  1  0.80579848  0.20123396  0.02334459  1
  H+  H231  1  0.60022419  0.37205500  0.00965883  1
  H+  H232  1  0.64833309  0.27886363  0.99196744  1
  H+  H233  1  0.59371192  0.21987561  0.16485807  1
  H+  H234  1  0.12597911  0.40038732  0.00351430  1
  H+  H235  1  0.51041613  0.88479980  0.33772215  1
  H+  H236  1  0.61797067  0.65803325  0.52007753  1
  H+  H237  1  0.26604690  0.63860468  0.66286589  1
  H+  H238  1  0.63591207  1.02220183  0.50634466  1
  H+  H239  1  0.15059588  0.88616077  0.32503352  1
  H+  H240  1  0.39362098  0.14195083  -0.03102374  1
  H+  H241  1  0.11484961  0.35325934  0.51334845  1
  H+  H242  1  1.01497131  0.84668953  0.17063552  1
  H+  H243  1  0.62713338  0.76832742  0.31544999  1
  H+  H244  1  0.87132002  0.39345793  -0.00998904  1
  H+  H245  1  0.11949643  0.40078790  0.34785965  1
  H+  H246  1  0.98515616  0.61852226  0.50126985  1
  H+  H247  1  0.24882040  0.40175760  0.98502939  1
  H+  H248  1  0.64727903  0.88410391  0.49659798  1
  H+  H249  1  0.80304138  0.71099330  0.37484674  1
  H+  H250  1  0.11185720  0.65219666  0.33980315  1
  H+  H251  1  0.40570660  0.94553904  0.65811923  1
  H+  H252  1  0.22663173  0.61140165  0.18295362  1
  H+  H253  1  0.13652203  0.02027652  0.83738530  1
  H+  H254  1  0.50126730  0.63400175  0.33850561  1
  H+  H255  1  0.34701495  0.28571944  0.64726799  1
  H+  H256  1  0.10529708  0.72212551  0.17232176  1
  H+  H257  1  0.23091122  0.10449541  0.50698989  1
  H+  H258  1  0.44125089  0.79695093  1.00557785  1
  H+  H259  1  0.59449098  0.76119016  0.64862407  1
  H+  H260  1  0.85357614  0.38244433  0.67523159  1
  H+  H261  1  1.02381952  0.13688205  0.33463848  1
  H+  H262  1  0.78885832  0.62883617  0.51578576  1
  H+  H263  1  0.12896152  0.89778804  0.82102143  1
  H+  H264  1  0.22781039  0.61333625  0.81447948  1
  H+  H265  1  0.84704623  0.97040379  0.15345713  1
  H+  H266  1  0.38380176  0.11615810  0.32896165  1
  H+  H267  1  0.12563049  0.23298690  0.67551346  1
  H+  H268  1  0.48396909  0.35091744  0.51137389  1
  H+  H269  1  0.13372483  0.36530215  0.65906191  1
  H+  H270  1  0.78071981  0.14262206  0.67136216  1
  H+  H271  1  0.46815592  0.36172645  0.99113317  1
  H+  H272  1  0.64274491  0.25397448  0.50940544  1
  H+  H273  1  0.14537035  0.79305009  0.32723978  1
  H+  H274  1  0.51046508  0.62886599  0.67126147  1
  H+  H275  1  0.51670679  0.63036952  0.16673990  1
  H+  H276  1  0.98047183  0.85677835  0.98968407  1
  H+  H277  1  0.76485335  0.86285142  0.00109993  1
  H+  H278  1  0.35774034  0.97669256  0.17348678  1
  H+  H279  1  0.70280563  0.87319868  0.30385620  1
  H+  H280  1  1.13352062  0.91378820  0.99528823  1
  H+  H281  1  0.45982331  0.63370752  0.50288162  1
  H+  H282  1  0.55778162  0.17651917  0.66661362  1
  H+  H283  1  0.98328507  0.60714538  0.20091106  1
  H+  H284  1  0.90137266  0.12513173  0.66150869  1
  H+  H285  1  0.45387630  0.59156126  1.00072629  1
  H+  H286  1  0.63149749  0.69831455  0.37959697  1
  H+  H287  1  0.38078084  0.85498276  0.18071118  1
  H+  H288  1  0.78029255  0.88728248  0.48699163  1
  H+  H289  1  0.32960580  0.66291474  0.72105437  1
  H+  H290  1  0.35396322  0.42906720  0.43247390  1
  H+  H291  1  0.90301489  0.67906319  0.74189887  1
  H+  H292  1  0.15852889  0.84238035  0.23629672  1
  H+  H293  1  0.10891955  0.17824251  0.43093223  1
  H+  H294  1  0.33494456  0.64732577  0.12253023  1
  H+  H295  1  0.85353513  0.22443009  0.49545950  1
  H+  H296  1  0.41390105  0.34035743  0.27408244  1
  H+  H297  1  0.23648898  0.35210859  0.18484531  1
  H+  H298  1  0.85956123  -0.01159108  0.82165433  1
  H+  H299  1  0.09855270  0.18183086  0.10682372  1
  H+  H300  1  0.17116297  0.09956916  0.24249311  1
  H+  H301  1  0.18125142  0.35029041  0.93126378  1
  H+  H302  1  0.49350490  0.38511560  0.15942571  1
  H+  H303  1  0.55532521  0.66362537  0.07169365  1
  H+  H304  1  0.32337324  0.66828858  0.43654042  1
  H+  H305  1  0.62050972  0.36259253  0.50051903  1
  H+  H306  1  0.71251326  0.32497232  0.67354490  1
  H+  H307  1  0.38927608  0.26849609  0.50600038  1
  H+  H308  1  0.57122448  0.67141880  0.72936117  1
  H+  H309  1  0.31636131  0.17991669  0.10545616  1
  H+  H310  1  0.11584913  0.89028186  0.47821853  1
  H+  H311  1  0.90328989  0.08484577  0.89280955  1
  H+  H312  1  0.94883370  0.83965051  0.22332146  1
  H+  H313  1  0.65622680  0.08544283  0.91301158  1
  H+  H314  1  0.14407393  0.89964771  0.12555984  1
  H+  H315  1  0.56667197  0.15393361  0.10741394  1
  H+  H316  1  0.41228276  0.83069294  0.26646043  1
  H+  H317  1  0.59118666  0.51370581  0.90645749  1
  H+  H318  1  0.88922858  0.70602457  0.75934296  1
  H+  H319  1  0.87694346  0.93970945  0.73100280  1
  H+  H320  1  0.33712683  0.91620643  0.42580940  1
  H+  H321  1  0.53978615  0.70809338  0.41734323  1
  H+  H322  1  0.81655906  0.90572360  0.09124188  1
  H+  H323  1  0.09841010  0.91851747  0.72194732  1
  H+  H324  1  0.72905311  0.37418836  0.84341687  1
  H+  H325  1  0.49276612  0.90407359  0.94197692  1
  H+  H326  1  0.65398972  0.82780049  0.21851598  1
  H+  H327  1  0.07014462  0.66637752  0.08410776  1
  H+  H328  1  0.09838678  0.41827816  0.10311015  1
  H+  H329  1  0.93441660  0.84288125  0.59412928  1
  H+  H330  1  0.69190638  0.55175720  0.59330177  1
  H+  H331  1  0.36001540  0.28925225  0.17553127  1
  H+  H332  1  0.64804077  0.57213837  0.22804355  1
  H+  H333  1  0.66983691  0.08538067  0.60025135  1
  H+  H334  1  0.18388255  0.61743294  0.96501547  1
  H+  H335  1  0.16301527  0.59230965  0.86838210  1
  H+  H336  1  0.60365928  0.62832783  0.15905159  1
  H+  H337  1  0.57806558  0.40880756  0.41009868  1
  H+  H338  1  0.90483428  0.78567767  0.94774185  1
  H+  H339  1  0.87719700  0.10140997  0.16902056  1
  H+  H340  1  0.41019011  0.57454680  0.89586234  1
  H+  H341  1  0.33426805  0.16460631  0.43611657  1
  H+  H342  1  0.88342160  0.43877220  0.08343704  1
  H+  H343  1  0.40321455  0.58492346  0.58847231  1
  H+  H344  1  0.40403722  0.33741255  0.59011528  1
  H+  H345  1  0.36658013  0.69455595  0.02833943  1
  H+  H346  1  0.18162767  0.84419833  0.94381049  1
  H+  H347  1  0.93154218  0.65893020  0.27931691  1
  H+  H348  1  0.42137279  0.85688397  0.85920649  1
  H+  H349  1  0.09665032  0.68695987  0.43581769  1
  H+  H350  1  0.90798483  0.06708313  0.22518999  1
  H+  H351  1  0.91902776  0.57324626  0.55554687  1
  H+  H352  1  0.08994988  0.16852957  0.77172877  1
  H+  H353  1  0.31708754  0.13681805  0.76903694  1
  H+  H354  1  0.55929190  0.39355794  0.06830068  1
  H+  H355  1  0.73038050  0.87020654  0.83152775  1
  H+  H356  1  0.62729536  0.31795725  0.24501980  1
  H+  H357  1  0.16807568  0.07584678  0.56472479  1
  H+  H358  1  0.63004321  0.60915046  0.68166365  1
  H+  H359  1  0.16470729  0.33772447  0.27393035  1
  H+  H360  1  0.42362578  0.57403763  0.24986463  1
  H+  H361  1  0.05834533  0.65747770  0.75448615  1
  H+  H362  1  0.59635057  0.93665222  0.77036757  1
  H+  H363  1  0.13833060  0.02173244  0.65721668  1
  H+  H364  1  0.49415023  0.04276977  0.04453202  1
  H+  H365  1  0.57632933  0.15644527  0.43508376  1
  H+  H366  1  0.60241297  -0.02584501  0.16143462  1
  H+  H367  1  0.65985363  0.08051065  0.23597470  1
  H+  H368  1  0.93420565  0.32548585  0.25574144  1
  H+  H369  1  0.42112441  0.09965701  0.91429892  1
  H+  H370  1  0.95417037  0.89848034  0.88872463  1
  H+  H371  1  0.07976243  0.41549098  0.72512900  1
  H+  H372  1  0.41774734  0.84013334  0.56301799  1
  H+  H373  1  0.90730274  0.34095809  0.59958761  1
  H+  H374  1  0.13690893  0.36198059  0.83565120  1
  H+  H375  1  0.84620947  0.43666419  0.37666888  1
  H+  H376  1  0.85024735  0.66270266  0.11552777  1
  H+  H377  1  0.58465030  0.55007544  0.91678427  1
  H+  H378  1  0.81149459  0.65073144  0.42263300  1
  H+  H379  1  0.89192849  0.52070543  -0.00319556  1
  H+  H380  1  0.54383558  0.37896354  0.76309548  1
  H+  H381  1  0.45451699  0.34590904  0.83793637  1
  H+  H382  1  0.63387754  0.10967599  0.50774934  1
  H+  H383  1  0.67062927  0.30422808  0.57188596  1
  O2-  O384  1  0.08457393  0.16810671  0.15094471  1
  O2-  O385  1  0.13462884  0.19604630  0.47151929  1
  O2-  O386  1  0.08791067  0.16910410  0.81725391  1
  O2-  O387  1  0.09788494  0.41862833  0.14828332  1
  O2-  O388  1  0.05454400  0.40975388  0.48177966  1
  O2-  O389  1  0.08574264  0.41124598  0.80340332  1
  O2-  O390  1  0.07540625  0.66075098  0.15931984  1
  O2-  O391  1  0.09441644  0.68040915  0.48103349  1
  O2-  O392  1  0.06163602  0.66074276  0.80007227  1
  O2-  O393  1  0.11991229  0.88609272  0.16684777  1
  O2-  O394  1  0.08393000  0.91974177  0.46588798  1
  O2-  O395  1  0.09911375  0.92488761  0.80088522  1
  O2-  O396  1  0.32318774  0.18139920  0.15070613  1
  O2-  O397  1  0.33580255  0.16456640  0.48159857  1
  O2-  O398  1  0.32675297  0.14791313  0.81322898  1
  O2-  O399  1  0.34619160  0.39102298  0.16701436  1
  O2-  O400  1  0.38019452  0.44770468  0.47321434  1
  O2-  O401  1  0.32835671  0.41599729  0.80712130  1
  O2-  O402  1  0.33392373  0.65265765  0.16741938  1
  O2-  O403  1  0.32095792  0.66742855  0.48203178  1
  O2-  O404  1  0.33179917  0.65866031  0.79815153  1
  O2-  O405  1  0.33431278  0.91471247  0.16603663  1
  O2-  O406  1  0.33628448  0.91605283  0.47166492  1
  O2-  O407  1  0.28050491  0.89636487  0.84399868  1
  O2-  O408  1  0.56987291  0.15866328  0.15229360  1
  O2-  O409  1  0.57967321  0.15568408  0.48060723  1
  O2-  O410  1  0.57710555  0.14568653  0.80746678  1
  O2-  O411  1  0.55219093  0.40340794  0.14406856  1
  O2-  O412  1  0.59040878  0.39478622  0.48907856  1
  O2-  O413  1  0.54235588  0.37048605  0.81015218  1
  O2-  O414  1  0.57313218  0.66076224  0.14539545  1
  O2-  O415  1  0.52730461  0.71603080  0.45949662  1
  O2-  O416  1  0.58302286  0.67686236  0.80486517  1
  O2-  O417  1  0.56773791  0.91551604  0.14431440  1
  O2-  O418  1  0.58381309  0.92256733  0.47443644  1
  O2-  O419  1  0.59857948  0.93572264  0.81611556  1
  O2-  O420  1  0.82437782  0.15359985  0.14810564  1
  O2-  O421  1  0.82721359  0.16483825  0.47897150  1
  O2-  O422  1  0.83989134  0.18501866  0.80969885  1
  O2-  O423  1  0.92214153  0.45484335  0.11885096  1
  O2-  O424  1  0.85070838  0.37102700  0.48731322  1
  O2-  O425  1  0.83110517  0.43006409  0.81201062  1
  O2-  O426  1  0.85856820  0.67556841  0.16022433  1
  O2-  O427  1  0.83960027  0.66090830  0.48941572  1
  O2-  O428  1  0.85972877  0.70862006  0.87997372  1
  O2-  O429  1  0.81233065  0.90879049  0.13786713  1
  O2-  O430  1  0.84119532  0.91412778  0.47291722  1
  O2-  O431  1  0.82997751  0.92695682  0.80762949  1
  O2-  O432  1  0.17042691  0.09734567  0.19307871  1
  O2-  O433  1  0.16913657  0.07178345  0.51947914  1
  O2-  O434  1  0.15994330  0.07298761  0.86342111  1
  O2-  O435  1  0.17585226  0.33379740  0.19523196  1
  O2-  O436  1  0.15471398  0.33569482  0.52979699  1
  O2-  O437  1  0.17051118  0.33612302  0.85308592  1
  O2-  O438  1  0.16372475  0.58370555  0.19245517  1
  O2-  O439  1  0.15473949  0.57755544  0.52155140  1
  O2-  O440  1  0.16472265  0.58305938  0.82502500  1
  O2-  O441  1  0.15319896  0.83112575  0.18997181  1
  O2-  O442  1  0.18286547  0.85796462  0.51769635  1
  O2-  O443  1  0.20367931  0.87162782  0.86336330  1
  O2-  O444  1  0.40131104  0.09453493  0.18773512  1
  O2-  O445  1  0.41424272  0.07604534  0.51722030  1
  O2-  O446  1  0.41164009  0.07420074  0.84678132  1
  O2-  O447  1  0.39193302  0.34905666  0.19285956  1
  O2-  O448  1  0.42212949  0.32930521  0.52136562  1
  O2-  O449  1  0.39825464  0.33513077  0.85853855  1
  O2-  O450  1  0.41571120  0.56546054  0.20560534  1
  O2-  O451  1  0.40725479  0.58689305  0.52383865  1
  O2-  O452  1  0.41626633  0.58126186  0.85112348  1
  O2-  O453  1  0.41114377  0.82308133  0.19273732  1
  O2-  O454  1  0.41872065  0.83616916  0.51774016  1
  O2-  O455  1  0.41908137  0.82919604  0.81839869  1
  O2-  O456  1  0.66393750  0.08378479  0.19042781  1
  O2-  O457  1  0.66645595  0.08166769  0.52365372  1
  O2-  O458  1  0.66722335  0.09326633  0.85971394  1
  O2-  O459  1  0.62264444  0.31814318  0.19842898  1
  O2-  O460  1  0.67891652  0.31281777  0.52736205  1
  O2-  O461  1  0.67304290  0.33969717  0.86490689  1
  O2-  O462  1  0.64600002  0.57465002  0.18316718  1
  O2-  O463  1  0.68047599  0.54968072  0.54961641  1
  O2-  O464  1  0.70095643  0.62633704  0.81286480  1
  O2-  O465  1  0.66100565  0.82765715  0.17276540  1
  O2-  O466  1  0.67351924  0.84833984  0.50916888  1
  O2-  O467  1  0.66948165  0.83730573  0.84769740  1
  O2-  O468  1  0.90685089  0.06814773  0.17990017  1
  O2-  O469  1  0.91388175  0.08343056  0.52642628  1
  O2-  O470  1  0.91572250  0.09141818  0.84797548  1
  O2-  O471  1  0.92773123  0.32150253  0.17521121  1
  O2-  O472  1  0.89391215  0.33046412  0.51872288  1
  O2-  O473  1  0.92346089  0.35132905  0.84364447  1
  O2-  O474  1  0.92280051  0.58402339  0.21600629  1
  O2-  O475  1  0.92310336  0.58428323  0.51090928  1
  O2-  O476  1  0.91856559  0.59837345  0.85782022  1
  O2-  O477  1  0.95263802  0.82782159  0.17845296  1
  O2-  O478  1  0.92187788  0.83275124  0.51466967  1
  O2-  O479  1  0.94023293  0.87193417  0.84850710  1
  O2-  O480  1  0.17356742  0.10172066  0.30531369  1
  O2-  O481  1  0.17086061  0.08362407  0.64370752  1
  O2-  O482  1  0.15372833  0.03099975  0.98211546  1
  O2-  O483  1  0.16032460  0.33504654  0.31919265  1
  O2-  O484  1  0.16894811  0.33920303  0.64577435  1
  O2-  O485  1  0.18722484  0.35953388  0.97644975  1
  O2-  O486  1  0.16163931  0.59324844  0.31763137  1
  O2-  O487  1  0.16618815  0.58512038  0.64330321  1
  O2-  O488  1  0.17039896  0.59814289  1.00702374  1
  O2-  O489  1  0.17497431  0.85119049  0.30735370  1
  O2-  O490  1  0.16969837  0.81577194  0.65656513  1
  O2-  O491  1  0.17841721  0.84768709  0.98878740  1
  O2-  O492  1  0.41520411  0.08890291  0.31037200  1
  O2-  O493  1  0.35470788  0.01099984  0.62935970  1
  O2-  O494  1  0.42497295  0.11203014  0.96035203  1
  O2-  O495  1  0.41217849  0.33329713  0.31871763  1
  O2-  O496  1  0.39333004  0.34234522  0.63551707  1
  O2-  O497  1  0.40955202  0.34425339  0.97376969  1
  O2-  O498  1  0.43447001  0.59643027  0.33629674  1
  O2-  O499  1  0.39772235  0.58369853  0.63724119  1
  O2-  O500  1  0.39462966  0.55449335  0.97982697  1
  O2-  O501  1  0.41116567  0.83561667  0.31242535  1
  O2-  O502  1  0.41723744  0.84880951  0.64260404  1
  O2-  O503  1  0.45708697  0.91896957  0.91741270  1
  O2-  O504  1  0.65375313  0.07700212  0.31293066  1
  O2-  O505  1  0.67270907  0.08896320  0.64599393  1
  O2-  O506  1  0.64364896  0.06923218  0.96842874  1
  O2-  O507  1  0.64819010  0.32564009  0.31560037  1
  O2-  O508  1  0.65284226  0.28942738  0.65544950  1
  O2-  O509  1  0.67303437  0.33913836  0.98070795  1
  O2-  O510  1  0.64491874  0.56827492  0.31327267  1
  O2-  O511  1  0.66245178  0.57821862  0.68873030  1
  O2-  O512  1  0.68014321  0.57229440  1.01816418  1
  O2-  O513  1  0.64460380  0.83035248  0.29250975  1
  O2-  O514  1  0.59657398  0.81075698  0.62619324  1
  O2-  O515  1  0.66630650  0.80549170  0.96699094  1
  O2-  O516  1  0.91204551  0.06773751  0.30703509  1
  O2-  O517  1  0.93609415  0.10038226  0.64591152  1
  O2-  O518  1  0.87466414  0.06630589  0.96668514  1
  O2-  O519  1  0.94286695  0.33023136  0.30044402  1
  O2-  O520  1  0.91165600  0.33905139  0.64452408  1
  O2-  O521  1  0.93688771  0.35086454  0.96949772  1
  O2-  O522  1  0.94442822  0.69384595  0.31666286  1
  O2-  O523  1  0.90775629  0.57036046  0.63400431  1
  O2-  O524  1  0.92545664  0.58745313  0.99119173  1
  O2-  O525  1  0.95279264  0.84616887  0.29588242  1
  O2-  O526  1  0.93637824  0.83647491  0.63897055  1
  O2-  O527  1  0.91752246  0.81574156  0.98735388  1
  O2-  O528  1  0.14888208  0.21361328  0.03665930  1
  O2-  O529  1  0.08466555  0.16816497  0.34734838  1
  O2-  O530  1  0.09675711  0.17264068  0.69082216  1
  O2-  O531  1  0.08975198  0.42293793  0.02161885  1
  O2-  O532  1  0.08665080  0.42957457  0.35987386  1
  O2-  O533  1  0.07846207  0.41686896  0.67969115  1
  O2-  O534  1  0.07155342  0.66739983  0.03798220  1
  O2-  O535  1  0.09454097  0.69289494  0.35723726  1
  O2-  O536  1  0.06912800  0.65084930  0.67957189  1
  O2-  O537  1  0.09573889  0.93999986  -0.00174083  1
  O2-  O538  1  0.10706145  0.94473764  0.34692445  1
  O2-  O539  1  0.10016040  0.91823462  0.67660926  1
  O2-  O540  1  0.28536143  0.18636373  0.03105612  1
  O2-  O541  1  0.33333412  0.16812508  0.35760204  1
  O2-  O542  1  0.32043027  0.12255356  0.68874598  1
  O2-  O543  1  0.35642472  0.46870045  0.00857620  1
  O2-  O544  1  0.32781117  0.41164448  0.35338272  1
  O2-  O545  1  0.32423714  0.43478304  0.67887257  1
  O2-  O546  1  0.32591929  0.63618694  0.04259447  1
  O2-  O547  1  0.32818614  0.67201912  0.35750164  1
  O2-  O548  1  0.32918215  0.66728026  0.67550447  1
  O2-  O549  1  0.36423626  0.94517658  -0.00135138  1
  O2-  O550  1  0.33812114  0.92497193  0.35054749  1
  O2-  O551  1  0.42021896  1.00551006  0.66642186  1
  O2-  O552  1  0.53678014  0.10149946  0.03251552  1
  O2-  O553  1  0.57522116  0.16184515  0.35775002  1
  O2-  O554  1  0.61651965  0.20297329  0.68286105  1
  O2-  O555  1  0.56576059  0.39859677  0.02276928  1
  O2-  O556  1  0.57062539  0.40914602  0.36510715  1
  O2-  O557  1  0.54975063  0.39866469  0.69573045  1
  O2-  O558  1  0.53841643  0.66522970  0.02828494  1
  O2-  O559  1  0.59880253  0.69044289  0.34248512  1
  O2-  O560  1  0.57089427  0.66500176  0.68373694  1
  O2-  O561  1  0.62519349  0.85367546  -0.00988314  1
  O2-  O562  1  0.57229076  0.91314992  0.35148954  1
  O2-  O563  1  0.57805284  0.92918532  0.69460037  1
  O2-  O564  1  0.78946186  0.14174690  0.03145313  1
  O2-  O565  1  0.80926950  0.18691926  0.36314897  1
  O2-  O566  1  0.83998826  0.17507378  0.68843982  1
  O2-  O567  1  0.84355717  0.42548608  0.00621910  1
  O2-  O568  1  0.82854745  0.44952501  0.33795867  1
  O2-  O569  1  0.81544027  0.40528795  0.68820103  1
  O2-  O570  1  0.84446898  0.65457468  0.03899960  1
  O2-  O571  1  0.79976973  0.65530115  0.37703778  1
  O2-  O572  1  0.82813727  0.66330531  0.63303600  1
  O2-  O573  1  0.82243050  0.89883918  0.02061238  1
  O2-  O574  1  0.85763495  0.90560914  0.35646215  1
  O2-  O575  1  0.91546321  0.95309813  0.69575996  1
