# generated using pymatgen
data_H2O
_symmetry_space_group_name_H-M   'P 1'
_cell_length_a   17.98865953
_cell_length_b   17.97864372
_cell_length_c   22.00606957
_cell_angle_alpha   89.99555198
_cell_angle_beta   89.99240599
_cell_angle_gamma   119.99934107
_symmetry_Int_Tables_number   1
_chemical_formula_structural   H2O
_chemical_formula_sum   'H384 O192'
_cell_volume   6163.56123851
_cell_formula_units_Z   192
loop_
 _symmetry_equiv_pos_site_id
 _symmetry_equiv_pos_as_xyz
  1  'x, y, z'
loop_
 _atom_type_symbol
 _atom_type_oxidation_number
  H+  1.0
  O2-  -2.0
loop_
 _atom_site_type_symbol
 _atom_site_label
 _atom_site_symmetry_multiplicity
 _atom_site_fract_x
 _atom_site_fract_y
 _atom_site_fract_z
 _atom_site_occupancy
  H+  H0  1  0.37559457  1.02752025  0.18459784  1
  H+  H1  1  0.55083940  0.65166280  0.15631254  1
  H+  H2  1  0.13023115  0.46263239  0.21080217  1
  H+  H3  1  0.62036581  0.22919927  0.81895763  1
  H+  H4  1  0.31109640  0.82264041  0.03246489  1
  H+  H5  1  0.59743339  0.88595075  0.67052891  1
  H+  H6  1  0.38579693  0.11538394  0.51527326  1
  H+  H7  1  0.26218912  0.39031672  1.01050819  1
  H+  H8  1  0.04549677  0.38292561  0.76643767  1
  H+  H9  1  0.35233678  0.48154789  1.01023051  1
  H+  H10  1  0.71774727  0.84918766  0.51668891  1
  H+  H11  1  0.35916893  0.38280501  0.68356148  1
  H+  H12  1  1.01969617  0.89499025  0.99738882  1
  H+  H13  1  0.90468721  0.87604999  0.84422143  1
  H+  H14  1  0.74585757  0.87894511  1.00097857  1
  H+  H15  1  0.63948411  0.52594838  0.13743359  1
  H+  H16  1  0.80103770  0.92646938  0.16759096  1
  H+  H17  1  0.75440939  0.12203522  0.32650554  1
  H+  H18  1  0.74311901  0.11945055  0.83086595  1
  H+  H19  1  0.11639198  0.85908537  0.18411453  1
  H+  H20  1  0.61056803  0.13364632  0.49386719  1
  H+  H21  1  0.51844060  0.36616043  0.49263802  1
  H+  H22  1  0.98850108  0.10727989  0.99186500  1
  H+  H23  1  0.15739308  0.64119736  0.38208021  1
  H+  H24  1  0.12663548  0.23586789  0.16725963  1
  H+  H25  1  0.95103960  0.32920155  0.32728740  1
  H+  H26  1  0.43781317  0.85648334  1.09035884  1
  H+  H27  1  0.33469099  0.40556943  0.09566471  1
  H+  H28  1  0.36422449  -0.05065886  0.97491782  1
  H+  H29  1  0.88502284  0.52886424  -0.00415817  1
  H+  H30  1  0.78052177  0.64335850  0.69393816  1
  H+  H31  1  0.20526359  0.85884297  0.17852229  1
  H+  H32  1  0.38080158  0.39441086  0.52059941  1
  H+  H33  1  0.46498775  0.98081399  0.38957980  1
  H+  H34  1  0.47108275  0.60247964  0.47177583  1
  H+  H35  1  0.40386960  0.60023784  0.74236801  1
  H+  H36  1  0.34013999  0.95966663  -0.00142673  1
  H+  H37  1  0.68382287  0.09763289  0.92598849  1
  H+  H38  1  1.02079042  0.89085084  0.64919630  1
  H+  H39  1  0.09218756  0.46922226  0.20878867  1
  H+  H40  1  0.39810514  0.36069812  0.32522043  1
  H+  H41  1  0.73464070  0.60918810  0.14123099  1
  H+  H42  1  0.52307165  0.38633994  0.66111888  1
  H+  H43  1  0.22839767  0.11839348  0.98603195  1
  H+  H44  1  0.12512196  0.52143812  1.00065606  1
  H+  H45  1  0.40559151  0.53512926  0.84576047  1
  H+  H46  1  0.08941093  0.69248375  0.53608054  1
  H+  H47  1  0.98652461  0.45800772  0.93815578  1
  H+  H48  1  0.13404685  0.26932771  0.84264810  1
  H+  H49  1  0.63310891  0.35609039  0.16915681  1
  H+  H50  1  0.10868370  0.73197489  0.15967450  1
  H+  H51  1  0.63723295  0.64892183  0.00677087  1
  H+  H52  1  0.60723233  0.68723868  0.06955964  1
  H+  H53  1  0.47036258  0.08814624  0.67010332  1
  H+  H54  1  0.74461471  0.61664010  0.36496690  1
  H+  H55  1  0.62406365  -0.01281336  0.98850925  1
  H+  H56  1  0.22705222  0.06361697  0.85536559  1
  H+  H57  1  0.60911274  0.88515700  0.49835631  1
  H+  H58  1  0.02959650  0.39890006  -0.00320315  1
  H+  H59  1  0.89180757  0.52644401  0.83931941  1
  H+  H60  1  0.12976244  0.79620286  0.48320764  1
  H+  H61  1  0.38710102  0.77467872  0.50764853  1
  H+  H62  1  0.63634906  0.64775874  0.14184666  1
  H+  H63  1  0.74513917  0.63172809  0.85208083  1
  H+  H64  1  0.59862799  0.63258862  0.48213334  1
  H+  H65  1  0.40095154  0.62269789  0.84388309  1
  H+  H66  1  0.16016450  0.63989741  0.13452978  1
  H+  H67  1  0.41373369  0.06657119  0.98820156  1
  H+  H68  1  0.11993717  0.13699938  0.49913105  1
  H+  H69  1  0.86219153  0.32713849  0.67606787  1
  H+  H70  1  0.22165597  0.81949631  0.01657829  1
  H+  H71  1  -0.00269041  0.84671441  0.19902623  1
  H+  H72  1  0.10935037  0.63288997  0.81850892  1
  H+  H73  1  0.36918793  0.15418799  0.00646162  1
  H+  H74  1  0.54272990  0.90139326  0.83791805  1
  H+  H75  1  0.85182589  0.10926680  0.14958490  1
  H+  H76  1  0.87922075  0.64789916  0.83321365  1
  H+  H77  1  0.77443341  0.39419831  0.82159890  1
  H+  H78  1  0.63277354  0.26663437  0.17243537  1
  H+  H79  1  0.21808977  0.32515614  0.16176391  1
  H+  H80  1  0.61089893  0.47380351  0.65919680  1
  H+  H81  1  0.77199060  0.37868876  0.15751863  1
  H+  H82  1  0.66810384  0.58240807  0.41214621  1
  H+  H83  1  0.99366653  0.87868747  0.85745393  1
  H+  H84  1  0.62424698  0.01667503  0.65055280  1
  H+  H85  1  0.41857947  0.09110586  0.27186037  1
  H+  H86  1  0.37774856  0.98454767  0.82329377  1
  H+  H87  1  0.28339795  0.64661213  0.46566886  1
  H+  H88  1  0.12126450  0.13872071  0.33855043  1
  H+  H89  1  0.85501131  0.00430918  0.50691638  1
  H+  H90  1  0.63420448  1.01851566  0.15978626  1
  H+  H91  1  0.14082719  0.02174170  0.61647527  1
  H+  H92  1  0.98420102  0.60869742  0.33048792  1
  H+  H93  1  0.54797715  0.16360118  0.98934596  1
  H+  H94  1  0.78085064  0.87918898  0.35881972  1
  H+  H95  1  0.12771833  0.17672797  0.43146359  1
  H+  H96  1  0.14878378  0.77896228  0.83127007  1
  H+  H97  1  0.89657878  0.30679805  0.23175430  1
  H+  H98  1  0.62461009  0.38644918  0.33800689  1
  H+  H99  1  0.39095504  0.12096883  0.33223191  1
  H+  H100  1  0.87118897  0.62379820  0.15883036  1
  H+  H101  1  0.73009128  0.62091527  0.00274821  1
  H+  H102  1  0.00991638  0.62083436  0.67223979  1
  H+  H103  1  0.58885584  0.17381495  0.39780873  1
  H+  H104  1  0.10358951  0.33881609  0.84597474  1
  H+  H105  1  0.62769598  0.64136010  0.34889234  1
  H+  H106  1  0.48257403  0.12276680  0.83218250  1
  H+  H107  1  0.25755064  0.13102753  0.53939585  1
  H+  H108  1  -0.01530269  0.86853512  0.34243198  1
  H+  H109  1  0.29914937  0.65786638  0.35331862  1
  H+  H110  1  0.87001327  0.22798061  0.83315482  1
  H+  H111  1  0.51187151  0.39432353  0.14346048  1
  H+  H112  1  0.00605921  0.10534092  0.15129301  1
  H+  H113  1  0.08380341  0.33119158  0.14623191  1
  H+  H114  1  0.30688568  0.69137688  0.82057813  1
  H+  H115  1  0.12278551  0.14299221  -0.00010684  1
  H+  H116  1  0.30617453  0.96646300  0.11175428  1
  H+  H117  1  0.95651110  0.14985034  0.63661043  1
  H+  H118  1  0.40594822  0.60611364  0.17355712  1
  H+  H119  1  0.83494810  0.11742525  0.48464921  1
  H+  H120  1  0.60093189  0.67789461  0.77776803  1
  H+  H121  1  0.87060113  0.89609449  0.02355530  1
  H+  H122  1  0.53114393  0.87254893  0.33528838  1
  H+  H123  1  0.62764114  0.89787874  -0.00955512  1
  H+  H124  1  0.77419776  0.38327862  0.33690306  1
  H+  H125  1  0.20530937  0.61470095  0.98702560  1
  H+  H126  1  0.17240447  0.27501110  0.50806280  1
  H+  H127  1  0.37739648  0.59591110  0.47562296  1
  H+  H128  1  0.87679151  0.72552766  0.35717143  1
  H+  H129  1  0.87978420  0.41101618  0.00024173  1
  H+  H130  1  0.75963014  0.37904903  0.48732745  1
  H+  H131  1  0.00666201  0.35878429  0.53442615  1
  H+  H132  1  0.27182449  0.89076961  0.49154536  1
  H+  H133  1  0.34376081  0.22648454  0.00981296  1
  H+  H134  1  -0.00409797  0.33485614  0.15167773  1
  H+  H135  1  0.65946474  0.77963236  0.32118636  1
  H+  H136  1  0.87317638  0.50435670  0.66535294  1
  H+  H137  1  0.52931953  0.64132891  0.69481403  1
  H+  H138  1  0.31867914  0.26782461  0.63292744  1
  H+  H139  1  0.51324202  0.36006736  0.81683707  1
  H+  H140  1  0.46601447  0.88060212  0.65354631  1
  H+  H141  1  0.87975498  0.98897540  0.00981276  1
  H+  H142  1  0.61643297  0.50083729  0.49187337  1
  H+  H143  1  0.88537778  0.98841799  0.82964293  1
  H+  H144  1  0.33840948  0.17338043  0.74926233  1
  H+  H145  1  0.40819705  0.58613333  0.94335552  1
  H+  H146  1  0.89361865  0.05967875  0.66311788  1
  H+  H147  1  0.85749214  0.38545703  0.82791129  1
  H+  H148  1  0.65149352  0.38022534  0.98226572  1
  H+  H149  1  0.37477850  0.23663292  0.33729766  1
  H+  H150  1  0.19317625  0.56340947  0.81572220  1
  H+  H151  1  0.88442138  0.74041547  0.83455614  1
  H+  H152  1  0.67968835  0.79916580  0.17281588  1
  H+  H153  1  0.35324912  0.73218039  0.02918640  1
  H+  H154  1  0.21780950  0.61370942  0.65869094  1
  H+  H155  1  0.11411729  0.49753703  0.50759327  1
  H+  H156  1  0.13181504  0.86075282  0.33470708  1
  H+  H157  1  0.88339454  0.78195798  0.65935227  1
  H+  H158  1  0.02918157  0.63355496  0.15952143  1
  H+  H159  1  0.52231802  0.13762541  0.16682285  1
  H+  H160  1  0.07970093  0.60773946  0.50883440  1
  H+  H161  1  0.85777931  0.37259765  0.34262949  1
  H+  H162  1  0.61748397  0.64620966  0.67522663  1
  H+  H163  1  0.64227543  0.26763592  0.50185795  1
  H+  H164  1  0.34912741  0.35686896  0.98728055  1
  H+  H165  1  0.38780786  0.52772978  0.69627389  1
  H+  H166  1  0.38375137  0.40024204  0.83146118  1
  H+  H167  1  0.84772910  0.12716717  0.32881146  1
  H+  H168  1  0.88685116  0.77805603  0.00141986  1
  H+  H169  1  0.51988563  0.88543048  0.49672388  1
  H+  H170  1  0.63851872  0.89680543  0.14751174  1
  H+  H171  1  0.98250877  0.61530907  0.84052900  1
  H+  H172  1  0.63408822  0.35587515  0.82815780  1
  H+  H173  1  0.28962941  0.38408720  0.33399565  1
  H+  H174  1  0.42825725  0.80737918  0.79239152  1
  H+  H175  1  0.79574344  0.90007758  0.82485269  1
  H+  H176  1  0.95227098  0.60094395  0.51479043  1
  H+  H177  1  0.86768030  0.87348201  0.36093251  1
  H+  H178  1  0.13138307  0.34552358  0.66533828  1
  H+  H179  1  0.36429779  0.60782913  -0.00198354  1
  H+  H180  1  0.87363853  0.63617744  0.34668723  1
  H+  H181  1  0.92167189  0.82171006  0.28745164  1
  H+  H182  1  0.63675544  0.35455387  0.50250923  1
  H+  H183  1  0.91298914  0.83865275  0.94222783  1
  H+  H184  1  0.38292067  0.25478662  0.67415684  1
  H+  H185  1  0.24030550  0.86724073  0.82926279  1
  H+  H186  1  0.12302889  0.84527409  0.63960142  1
  H+  H187  1  0.87650739  0.59661005  0.66725209  1
  H+  H188  1  0.71763958  0.61551303  0.60899200  1
  H+  H189  1  0.58556181  0.15961477  0.72809732  1
  H+  H190  1  0.77576900  0.14757687  0.00206463  1
  H+  H191  1  0.10063165  0.62244459  1.00868411  1
  H+  H192  1  0.85295432  0.17130400  0.66748309  1
  H+  H193  1  0.96652302  0.75921315  0.23643888  1
  H+  H194  1  0.36491874  0.86933445  0.16882181  1
  H+  H195  1  0.48179797  0.87042695  1.02586934  1
  H+  H196  1  0.74193792  0.38290368  -0.01386602  1
  H+  H197  1  0.41898024  0.09087351  0.57393477  1
  H+  H198  1  0.64852259  0.83316530  0.60563401  1
  H+  H199  1  0.62522166  0.76810178  0.50701616  1
  H+  H200  1  0.28848653  0.39256614  0.52506311  1
  H+  H201  1  0.81674731  0.28073825  0.87765218  1
  H+  H202  1  0.53248840  0.39762216  -0.01306612  1
  H+  H203  1  0.91818990  0.36041661  0.91506585  1
  H+  H204  1  0.62814410  0.78261062  0.66801523  1
  H+  H205  1  0.12785788  0.09749843  0.17619790  1
  H+  H206  1  0.13553298  0.90196818  0.84270859  1
  H+  H207  1  0.12124814  -0.01327500  0.34209622  1
  H+  H208  1  0.16155190  0.55315989  0.12644996  1
  H+  H209  1  0.38479739  0.74072226  0.33002992  1
  H+  H210  1  0.12961865  0.01003387  0.18671537  1
  H+  H211  1  0.53860200  0.64030055  0.33351804  1
  H+  H212  1  0.40518276  0.61809199  0.32214929  1
  H+  H213  1  0.16322395  0.55719171  0.39232863  1
  H+  H214  1  0.62884257  0.10965658  0.64966384  1
  H+  H215  1  0.09779777  0.49381879  0.82555128  1
  H+  H216  1  0.09447404  0.89283111  0.49657479  1
  H+  H217  1  0.08891906  1.00856569  0.52688750  1
  H+  H218  1  0.11553557  0.75291152  0.64517075  1
  H+  H219  1  0.62057075  0.14038223  0.81971725  1
  H+  H220  1  0.36212895  0.66988319  0.66247627  1
  H+  H221  1  0.85564032  0.36884874  0.15835842  1
  H+  H222  1  0.11090677  0.73247692  0.35108933  1
  H+  H223  1  1.00385526  0.12047273  0.83793846  1
  H+  H224  1  0.37791263  0.13687006  0.69787429  1
  H+  H225  1  0.86871309  0.24564513  0.17272315  1
  H+  H226  1  0.52837850  0.14941364  0.33931025  1
  H+  H227  1  0.37558734  0.47323144  0.33801310  1
  H+  H228  1  0.89379956  0.51079476  0.17268916  1
  H+  H229  1  0.10694549  0.45902635  0.67683547  1
  H+  H230  1  0.07848536  0.43019992  0.33533798  1
  H+  H231  1  0.37749118  0.11744551  0.17891074  1
  H+  H232  1  0.35893634  0.26175931  0.82983874  1
  H+  H233  1  0.58101804  0.89824796  0.39889754  1
  H+  H234  1  0.34880170  0.94757472  0.75719020  1
  H+  H235  1  0.60542838  0.21411949  0.66683082  1
  H+  H236  1  1.00760569  0.63022461  1.00744277  1
  H+  H237  1  0.83894482  0.62423755  0.52997836  1
  H+  H238  1  0.83053937  0.70656652  0.51638766  1
  H+  H239  1  0.72242870  0.10588017  0.16200113  1
  H+  H240  1  0.11633228  0.12058655  0.65597119  1
  H+  H241  1  0.65604577  0.63107265  0.85104829  1
  H+  H242  1  0.13778889  0.87124366  -0.02004185  1
  H+  H243  1  0.10071975  0.62414325  0.67321824  1
  H+  H244  1  0.30246085  0.64691684  0.15435702  1
  H+  H245  1  0.54009081  0.65033742  0.83668901  1
  H+  H246  1  0.64207675  0.74837077  0.00586067  1
  H+  H247  1  0.02838039  0.08706016  0.69042185  1
  H+  H248  1  0.13910252  0.03888438  0.96768014  1
  H+  H249  1  0.09873126  0.35605396  0.32803513  1
  H+  H250  1  0.72192691  0.10684851  0.50016954  1
  H+  H251  1  0.23365920  0.12091172  0.32672261  1
  H+  H252  1  0.83437616  0.89243967  0.44280866  1
  H+  H253  1  0.52837624  0.14676871  0.49763788  1
  H+  H254  1  0.65741221  0.87359015  0.85416861  1
  H+  H255  1  0.86261052  0.23638057  0.00899634  1
  H+  H256  1  0.37953221  0.78878850  0.17340077  1
  H+  H257  1  0.87638996  0.71340839  0.16940700  1
  H+  H258  1  0.13431560  0.25799220  0.66571894  1
  H+  H259  1  0.02251577  0.37087906  0.66416675  1
  H+  H260  1  0.63975761  0.24617323  -0.01328848  1
  H+  H261  1  0.97306889  0.11412445  0.31286134  1
  H+  H262  1  0.07588764  0.14552193  0.09631506  1
  H+  H263  1  0.42445101  0.89383267  0.79451701  1
  H+  H264  1  0.76755262  0.37171852  0.67569899  1
  H+  H265  1  0.38220053  0.93980520  0.65768529  1
  H+  H266  1  0.86521076  0.64304268  0.00617043  1
  H+  H267  1  0.13283114  0.36289575  0.99606523  1
  H+  H268  1  0.91715074  0.12639291  0.83517837  1
  H+  H269  1  0.38033783  0.49564395  0.49757792  1
  H+  H270  1  0.41828364  0.32008646  0.57111966  1
  H+  H271  1  0.62756625  0.01501999  0.50577974  1
  H+  H272  1  0.12025876  0.22605543  0.34117260  1
  H+  H273  1  0.27096679  0.38194478  0.68289568  1
  H+  H274  1  0.63429177  0.35375548  0.65360397  1
  H+  H275  1  -0.01903695  0.35772229  0.82299556  1
  H+  H276  1  0.17324297  0.16633712  0.81723330  1
  H+  H277  1  0.89580011  0.51920639  0.32787935  1
  H+  H278  1  0.58143118  0.91862679  0.90601566  1
  H+  H279  1  0.91253504  0.93910417  0.67649428  1
  H+  H280  1  0.65348108  1.03307110  0.84549806  1
  H+  H281  1  0.65769886  0.78494508  0.84510086  1
  H+  H282  1  0.62557955  0.47480334  0.35410591  1
  H+  H283  1  0.37443201  0.26573528  0.51314926  1
  H+  H284  1  0.13043610  0.37288599  0.49190171  1
  H+  H285  1  0.91552781  0.07832882  0.25302324  1
  H+  H286  1  0.07901923  0.66862950  0.76407253  1
  H+  H287  1  0.29409002  0.27600264  0.94713869  1
  H+  H288  1  0.14978895  0.82884871  0.55251618  1
  H+  H289  1  0.08220186  0.38231489  0.43309172  1
  H+  H290  1  0.57340712  0.40895523  0.08849386  1
  H+  H291  1  0.67927537  0.60179579  0.93795099  1
  H+  H292  1  0.17464372  0.83945499  0.92614346  1
  H+  H293  1  0.93542519  0.95108700  0.53637584  1
  H+  H294  1  0.06820014  0.39483489  0.06236494  1
  H+  H295  1  0.87990098  0.07276875  0.55996265  1
  H+  H296  1  0.64433255  0.27722867  0.32371260  1
  H+  H297  1  0.82939389  0.40738350  0.73504539  1
  H+  H298  1  0.21258186  0.41569185  0.27965168  1
  H+  H299  1  0.36515676  0.68605900  0.42686460  1
  H+  H300  1  0.48500762  0.35787101  0.32600287  1
  H+  H301  1  0.89231453  0.96721444  0.73925428  1
  H+  H302  1  0.09416036  0.93504714  0.69773125  1
  H+  H303  1  0.70281227  0.59270901  0.50735459  1
  H+  H304  1  0.16982411  0.08581293  0.26867649  1
  H+  H305  1  0.85255703  0.68039485  0.74254574  1
  H+  H306  1  0.66025768  0.08464218  0.25354595  1
  H+  H307  1  0.18750035  0.61832802  0.26743263  1
  H+  H308  1  0.38018943  0.86130844  0.50608618  1
  H+  H309  1  0.34572483  0.42954825  0.77842977  1
  H+  H310  1  0.59093366  0.54603274  0.24589523  1
  H+  H311  1  0.14750680  0.56349266  0.60681526  1
  H+  H312  1  0.67440449  0.33856210  0.88845868  1
  H+  H313  1  0.85004381  0.47634643  0.48924679  1
  H+  H314  1  0.67303873  0.33497724  0.26255606  1
  H+  H315  1  0.15116073  0.82182775  0.27578348  1
  H+  H316  1  0.24533705  0.17288057  0.48232651  1
  H+  H317  1  0.07038096  0.67498325  0.41225531  1
  H+  H318  1  0.11410451  0.16479283  0.76467323  1
  H+  H319  1  0.26524243  0.13431564  0.16476778  1
  H+  H320  1  0.11607317  0.96309910  0.80285255  1
  H+  H321  1  0.62550448  0.53425868  0.24620206  1
  H+  H322  1  0.66884675  0.32458657  0.59732457  1
  H+  H323  1  0.60870248  0.91974015  0.08613425  1
  H+  H324  1  0.40718080  1.00439350  0.35014676  1
  H+  H325  1  0.41070521  0.87912956  0.32480785  1
  H+  H326  1  0.32527496  0.16584124  0.10551882  1
  H+  H327  1  0.85742853  0.24726242  0.32662971  1
  H+  H328  1  0.04458947  0.48462005  0.55222815  1
  H+  H329  1  0.65770331  0.07612431  0.57853978  1
  H+  H330  1  0.64767769  0.12552682  -0.01762003  1
  H+  H331  1  0.43330517  0.58126262  0.26550655  1
  H+  H332  1  0.17311866  0.32104416  0.57206129  1
  H+  H333  1  0.40550040  0.51693435  0.17029485  1
  H+  H334  1  0.65432012  0.86383304  0.32703583  1
  H+  H335  1  0.11485231  0.22750829  1.00916424  1
  H+  H336  1  0.40691538  0.84965079  0.59495922  1
  H+  H337  1  0.91865463  0.58669500  0.93432358  1
  H+  H338  1  0.61575616  0.48838308  -0.00118803  1
  H+  H339  1  0.89288272  0.55927269  0.57272821  1
  H+  H340  1  0.85748893  0.95631146  0.10073748  1
  H+  H341  1  0.27849739  0.86948839  0.09898291  1
  H+  H342  1  0.58397704  0.67676955  0.42442198  1
  H+  H343  1  0.38136065  0.68537384  0.11206671  1
  H+  H344  1  0.42336798  0.84990917  0.25839659  1
  H+  H345  1  0.33854082  0.17533182  0.39705882  1
  H+  H346  1  0.63634312  0.12007490  0.31317460  1
  H+  H347  1  0.80228889  0.14464449  0.42542260  1
  H+  H348  1  0.35470268  0.29685309  0.15267947  1
  H+  H349  1  0.57835471  0.39593581  0.43146773  1
  H+  H350  1  0.62668288  0.57263629  0.58583118  1
  H+  H351  1  0.33506457  0.68844136  0.75211452  1
  H+  H352  1  0.16946774  0.32592874  0.24794710  1
  H+  H353  1  0.00360163  0.89202787  0.48942188  1
  H+  H354  1  0.60916734  0.13498611  0.15876962  1
  H+  H355  1  0.08862149  0.93283817  0.40383765  1
  H+  H356  1  0.27195807  0.65542080  0.06222305  1
  H+  H357  1  0.83119819  0.15784932  0.09554183  1
  H+  H358  1  0.43524163  0.63254533  0.58892746  1
  H+  H359  1  0.34708960  0.92595564  0.44191711  1
  H+  H360  1  0.22510946  0.61481201  0.25618320  1
  H+  H361  1  0.38511335  0.10762590  0.84040039  1
  H+  H362  1  0.54979423  0.91253194  0.72258484  1
  H+  H363  1  0.15808731  0.32849442  0.93717357  1
  H+  H364  1  0.40274949  0.31718363  0.88925646  1
  H+  H365  1  0.70038303  0.85362628  0.23434027  1
  H+  H366  1  0.38700203  0.60835527  0.59068652  1
  H+  H367  1  0.92585893  0.57199902  0.23196433  1
  H+  H368  1  0.69535995  0.84472386  0.93637669  1
  H+  H369  1  0.37639466  0.79870234  0.91190353  1
  H+  H370  1  0.85342171  0.18553388  0.76809288  1
  H+  H371  1  0.09984986  0.94900467  0.04077045  1
  H+  H372  1  0.57513980  0.39731510  0.75955785  1
  H+  H373  1  0.43381138  0.11515649  0.92654962  1
  H+  H374  1  0.83989755  0.41894824  0.06528803  1
  H+  H375  1  0.07366849  0.66534376  0.07075990  1
  H+  H376  1  0.89343216  0.83976959  0.60013814  1
  H+  H377  1  0.84175122  0.66968438  0.06925332  1
  H+  H378  1  0.93146860  0.07436544  0.93137989  1
  H+  H379  1  0.93069901  0.32703252  0.58374091  1
  H+  H380  1  0.05998177  0.90578187  0.13016314  1
  H+  H381  1  0.35339359  0.75469868  0.66242738  1
  H+  H382  1  0.82650801  0.41470912  0.42175874  1
  H+  H383  1  0.41660969  0.79732519  0.91855591  1
  O2-  O384  1  0.06984883  0.13896103  0.14173680  1
  O2-  O385  1  0.15645121  0.18668480  0.47215217  1
  O2-  O386  1  0.12031806  0.16959470  0.80932588  1
  O2-  O387  1  0.04831738  0.35203887  0.12685950  1
  O2-  O388  1  0.09497060  0.39740254  0.47648533  1
  O2-  O389  1  0.04196494  0.38656988  0.81136693  1
  O2-  O390  1  0.08623290  0.67288970  0.14015427  1
  O2-  O391  1  0.06343666  0.65339773  0.50164566  1
  O2-  O392  1  0.08486573  0.67086646  0.80930696  1
  O2-  O393  1  0.07466390  0.91031148  0.17289468  1
  O2-  O394  1  0.06623322  0.92666171  0.48362942  1
  O2-  O395  1  0.11107732  0.94156334  0.84404951  1
  O2-  O396  1  0.32623173  0.17004927  0.15081490  1
  O2-  O397  1  0.28902381  0.16238451  0.50250073  1
  O2-  O398  1  0.27760598  0.16926035  0.80699123  1
  O2-  O399  1  0.33629304  0.39678086  0.14197436  1
  O2-  O400  1  0.35356586  0.43092619  0.52717248  1
  O2-  O401  1  0.36353885  0.44123213  0.82140852  1
  O2-  O402  1  0.36624316  0.67628811  0.15534163  1
  O2-  O403  1  0.34566661  0.67127441  0.47042675  1
  O2-  O404  1  0.35180903  0.69063584  0.79626261  1
  O2-  O405  1  0.30024607  0.91652774  0.13352770  1
  O2-  O406  1  0.33367262  0.91271757  0.48553777  1
  O2-  O407  1  0.35038386  0.92950795  0.79976481  1
  O2-  O408  1  0.58145994  0.17033606  0.15139213  1
  O2-  O409  1  0.58631691  0.16930297  0.47835738  1
  O2-  O410  1  0.58789996  0.16791369  0.80413376  1
  O2-  O411  1  0.57173845  0.41116107  0.13358827  1
  O2-  O412  1  0.57902255  0.39782290  0.47762674  1
  O2-  O413  1  0.57436769  0.39056369  0.80383219  1
  O2-  O414  1  0.60937774  0.68645283  0.13919729  1
  O2-  O415  1  0.57289925  0.66804152  0.46994686  1
  O2-  O416  1  0.60144468  0.68095408  0.82305262  1
  O2-  O417  1  0.60145150  0.91750680  0.13031271  1
  O2-  O418  1  0.58071721  0.91657500  0.48197105  1
  O2-  O419  1  0.59722189  0.92422471  0.86243665  1
  O2-  O420  1  0.82717798  0.14753105  0.14075363  1
  O2-  O421  1  0.80201482  0.14586455  0.47092411  1
  O2-  O422  1  0.85401272  0.17196872  0.81171937  1
  O2-  O423  1  0.83321424  0.40672499  0.14359878  1
  O2-  O424  1  0.82204286  0.41659116  0.47016380  1
  O2-  O425  1  0.83674321  0.42372271  0.80907633  1
  O2-  O426  1  0.84580658  0.65912442  0.14491619  1
  O2-  O427  1  0.80292032  0.65154732  0.53762104  1
  O2-  O428  1  0.85241311  0.68116160  0.81714799  1
  O2-  O429  1  0.86216425  0.96182782  0.14921445  1
  O2-  O430  1  0.82800633  0.89207372  0.49399409  1
  O2-  O431  1  0.85702124  0.92922368  0.81154350  1
  O2-  O432  1  0.16331991  0.07496070  0.19477871  1
  O2-  O433  1  0.08771729  0.05472163  0.55302275  1
  O2-  O434  1  0.28619350  0.11190448  0.85136383  1
  O2-  O435  1  0.15988985  0.29877263  0.17958480  1
  O2-  O436  1  0.18708730  0.33140812  0.52773050  1
  O2-  O437  1  0.14300355  0.32159267  0.86389129  1
  O2-  O438  1  0.19848247  0.61541746  0.12539488  1
  O2-  O439  1  0.09860223  0.53224108  0.53459519  1
  O2-  O440  1  0.13929778  0.55683147  0.83043246  1
  O2-  O441  1  0.14630059  0.82274910  0.19449840  1
  O2-  O442  1  0.15499333  0.84809995  0.50807117  1
  O2-  O443  1  0.18112005  0.83958688  0.84608411  1
  O2-  O444  1  0.40850447  0.08820898  0.19584079  1
  O2-  O445  1  0.43745098  0.12300628  0.53530149  1
  O2-  O446  1  0.42577352  0.08843197  0.85296736  1
  O2-  O447  1  0.39314643  0.35975813  0.14736683  1
  O2-  O448  1  0.41883486  0.32529141  0.52590456  1
  O2-  O449  1  0.40838056  0.31883817  0.84463307  1
  O2-  O450  1  0.43787804  0.57653941  0.18581050  1
  O2-  O451  1  0.40665656  0.56157803  0.46871761  1
  O2-  O452  1  0.43360768  0.59740729  0.86106856  1
  O2-  O453  1  0.40716760  0.85154767  0.17849413  1
  O2-  O454  1  0.41499703  0.83493860  0.52221680  1
  O2-  O455  1  0.46441515  0.87058445  0.78921988  1
  O2-  O456  1  0.66112359  0.07871390  0.17533151  1
  O2-  O457  1  0.65880420  0.07660041  0.52130841  1
  O2-  O458  1  0.68334540  0.09717963  0.84617894  1
  O2-  O459  1  0.66608916  0.33009231  0.18543019  1
  O2-  O460  1  0.67343536  0.32978858  0.51621263  1
  O2-  O461  1  0.67195212  0.33222007  0.84329286  1
  O2-  O462  1  0.67406944  0.58862755  0.12972426  1
  O2-  O463  1  0.64039543  0.56479551  0.49694947  1
  O2-  O464  1  0.68700728  0.60418620  0.87025046  1
  O2-  O465  1  0.70681588  0.85877450  0.18848361  1
  O2-  O466  1  0.65611766  0.82649681  0.52565384  1
  O2-  O467  1  0.69305933  0.84575050  0.86004938  1
  O2-  O468  1  0.90187889  0.05290671  0.16918703  1
  O2-  O469  1  0.88363913  0.06653960  0.51567353  1
  O2-  O470  1  0.94312093  0.09227788  0.85081153  1
  O2-  O471  1  0.89830012  0.30729070  0.18648173  1
  O2-  O472  1  0.98343113  0.37658915  0.56851039  1
  O2-  O473  1  0.87591236  0.31539951  0.86364273  1
  O2-  O474  1  0.92632496  0.57213941  0.18649007  1
  O2-  O475  1  0.89073476  0.56575373  0.52712777  1
  O2-  O476  1  0.92269415  0.58570453  0.85743304  1
  O2-  O477  1  0.94161058  0.79179717  0.21904410  1
  O2-  O478  1  0.90190406  0.89078551  0.52284541  1
  O2-  O479  1  0.93067518  0.84426148  0.86439242  1
  O2-  O480  1  0.17183153  0.08922868  0.31468989  1
  O2-  O481  1  0.15966958  0.07871017  0.59626176  1
  O2-  O482  1  0.17433924  0.10191991  0.96359044  1
  O2-  O483  1  0.18084432  0.35465087  0.28995119  1
  O2-  O484  1  0.16498995  0.31799606  0.65107715  1
  O2-  O485  1  0.16391814  0.33224139  0.98311586  1
  O2-  O486  1  0.19726730  0.61945309  0.39435867  1
  O2-  O487  1  0.15611546  0.57136996  0.65156839  1
  O2-  O488  1  0.14225131  0.58000222  0.98371575  1
  O2-  O489  1  0.15341523  0.82229815  0.32101699  1
  O2-  O490  1  0.14202136  0.80741480  0.62126800  1
  O2-  O491  1  0.16536006  0.83690086  0.97063694  1
  O2-  O492  1  0.42401472  0.09312562  0.31725998  1
  O2-  O493  1  0.40883680  0.06281100  0.65563651  1
  O2-  O494  1  0.43726663  0.12462042  0.97187345  1
  O2-  O495  1  0.42461908  0.32592951  0.31185958  1
  O2-  O496  1  0.37858558  0.29934951  0.64596957  1
  O2-  O497  1  0.35143405  0.30870708  0.96490106  1
  O2-  O498  1  0.43309437  0.58416473  0.31081607  1
  O2-  O499  1  0.41723008  0.59152654  0.70091167  1
  O2-  O500  1  0.39659738  0.57861433  0.98762513  1
  O2-  O501  1  0.42640109  0.84060255  0.30270270  1
  O2-  O502  1  0.40493839  0.85757193  0.64027265  1
  O2-  O503  1  0.42567263  0.84025553  1.04715949  1
  O2-  O504  1  0.66240071  0.08628788  0.29887121  1
  O2-  O505  1  0.65573143  0.07635738  0.63192863  1
  O2-  O506  1  0.67686381  0.09107118  0.97095098  1
  O2-  O507  1  0.67729282  0.33815102  0.30832798  1
  O2-  O508  1  0.66376900  0.32131733  0.64246913  1
  O2-  O509  1  0.68428872  0.35356828  0.96627711  1
  O2-  O510  1  0.67916223  0.58520258  0.36810302  1
  O2-  O511  1  0.65836152  0.58601497  0.62469762  1
  O2-  O512  1  0.67091609  0.59648552  0.98506001  1
  O2-  O513  1  0.69238554  0.84179385  0.31046384  1
  O2-  O514  1  0.64756560  0.84009100  0.65037467  1
  O2-  O515  1  0.68762542  0.84412771  0.98196515  1
  O2-  O516  1  0.91662162  0.09733861  0.29533809  1
  O2-  O517  1  0.89527256  0.10832593  0.63961988  1
  O2-  O518  1  0.92912555  0.06859966  0.97616961  1
  O2-  O519  1  0.89206949  0.31081739  0.31336919  1
  O2-  O520  1  0.89070884  0.29299833  0.66428840  1
  O2-  O521  1  0.95019682  0.40077933  0.95513518  1
  O2-  O522  1  0.92612716  0.57852227  0.31130823  1
  O2-  O523  1  0.90204731  0.56449955  0.64815445  1
  O2-  O524  1  0.91741777  0.58989066  0.98003084  1
  O2-  O525  1  0.92219445  0.83120225  0.33244383  1
  O2-  O526  1  0.91265334  0.84120275  0.64240109  1
  O2-  O527  1  0.91438261  0.83953396  0.98777493  1
  O2-  O528  1  0.08842765  0.16570335  0.02126116  1
  O2-  O529  1  0.09119009  0.16790924  0.35762838  1
  O2-  O530  1  0.08539002  0.13904406  0.68394818  1
  O2-  O531  1  0.08450424  0.41827097  0.01938666  1
  O2-  O532  1  0.06122953  0.37307352  0.35097922  1
  O2-  O533  1  0.07637831  0.39697944  0.68770227  1
  O2-  O534  1  0.06896209  0.65559878  0.02445101  1
  O2-  O535  1  0.08400223  0.67134150  0.36952273  1
  O2-  O536  1  0.07119187  0.65676138  0.68466383  1
  O2-  O537  1  0.08455950  0.92983320  -0.00098798  1
  O2-  O538  1  0.09049049  0.92694626  0.35919653  1
  O2-  O539  1  0.08501772  0.92242421  0.65447339  1
  O2-  O540  1  0.32825910  0.16875804  0.02637217  1
  O2-  O541  1  0.33951421  0.17304441  0.35282582  1
  O2-  O542  1  0.38318371  0.18924663  0.71621282  1
  O2-  O543  1  0.32372232  0.41948534  0.02520783  1
  O2-  O544  1  0.34717622  0.41259777  0.35196455  1
  O2-  O545  1  0.33141361  0.41539389  0.69736912  1
  O2-  O546  1  0.31271573  0.66886165  0.02793348  1
  O2-  O547  1  0.36212320  0.68280907  0.34976021  1
  O2-  O548  1  0.32593113  0.69281804  0.67702406  1
  O2-  O549  1  0.25413755  0.80628221  0.04890230  1
  O2-  O550  1  0.40734906  0.95519462  0.37243635  1
  O2-  O551  1  0.36021994  0.97451249  0.67927703  1
  O2-  O552  1  0.60919184  0.18430553  -0.00232487  1
  O2-  O553  1  0.58978674  0.17816049  0.35268336  1
  O2-  O554  1  0.57876897  0.15385060  0.68245042  1
  O2-  O555  1  0.58749687  0.42511978  0.00805297  1
  O2-  O556  1  0.59143026  0.41087668  0.35812344  1
  O2-  O557  1  0.58335717  0.41337300  0.67299343  1
  O2-  O558  1  0.61024131  0.68674561  0.02239331  1
  O2-  O559  1  0.59754795  0.67536000  0.35135932  1
  O2-  O560  1  0.59322023  0.67567310  0.69885101  1
  O2-  O561  1  0.58882297  0.92243253  -0.00738991  1
  O2-  O562  1  0.58515501  0.88574641  0.35581222  1
  O2-  O563  1  0.56766093  0.92100263  0.67961763  1
  O2-  O564  1  0.83342575  0.17691549  0.02222295  1
  O2-  O565  1  0.81362343  0.15170770  0.34677100  1
  O2-  O566  1  0.83457564  0.20756983  0.69053460  1
  O2-  O567  1  0.84111662  0.42913513  0.02039042  1
  O2-  O568  1  0.83295917  0.40957511  0.35685496  1
  O2-  O569  1  0.82867733  0.40088740  0.68923920  1
  O2-  O570  1  0.83607947  0.67287290  0.02398413  1
  O2-  O571  1  0.84751820  0.66408442  0.37024891  1
  O2-  O572  1  0.84301316  0.67402689  0.69676774  1
  O2-  O573  1  0.84532769  0.93236958  0.03601091  1
  O2-  O574  1  0.83514695  0.89793844  0.38225582  1
  O2-  O575  1  0.91946015  0.98993903  0.69860757  1
