# generated using pymatgen
data_H2O
_symmetry_space_group_name_H-M   'P 1'
_cell_length_a   17.98703235
_cell_length_b   17.98948152
_cell_length_c   21.99876640
_cell_angle_alpha   89.99825124
_cell_angle_beta   89.99545633
_cell_angle_gamma   120.01581528
_symmetry_Int_Tables_number   1
_chemical_formula_structural   H2O
_chemical_formula_sum   'H384 O192'
_cell_volume   6163.64881235
_cell_formula_units_Z   192
loop_
 _symmetry_equiv_pos_site_id
 _symmetry_equiv_pos_as_xyz
  1  'x, y, z'
loop_
 _atom_type_symbol
 _atom_type_oxidation_number
  H+  1.0
  O2-  -2.0
loop_
 _atom_site_type_symbol
 _atom_site_label
 _atom_site_symmetry_multiplicity
 _atom_site_fract_x
 _atom_site_fract_y
 _atom_site_fract_z
 _atom_site_occupancy
  H+  H0  1  0.88851597  0.11118117  0.33940817  1
  H+  H1  1  0.50647935  0.61893445  0.67417420  1
  H+  H2  1  0.47518011  0.12256618  0.65753711  1
  H+  H3  1  0.39039380  0.03183415  0.65905107  1
  H+  H4  1  0.94168238  0.58861662  0.65003806  1
  H+  H5  1  0.63617900  0.61899171  0.50645059  1
  H+  H6  1  0.34856622  0.22550551  0.33829470  1
  H+  H7  1  0.53703300  0.64602521  0.15993188  1
  H+  H8  1  0.40874833  0.30086341  0.50158067  1
  H+  H9  1  0.88232210  0.61844133  0.99862354  1
  H+  H10  1  -0.02640272  0.11067410  0.35601970  1
  H+  H11  1  0.88562447  0.51527295  0.49420207  1
  H+  H12  1  0.85530858  0.47192552  0.81970864  1
  H+  H13  1  0.51873718  0.63507790  0.49213851  1
  H+  H14  1  0.66837496  0.59104674  0.89964903  1
  H+  H15  1  0.14502138  0.27179655  0.51638396  1
  H+  H16  1  0.84911272  0.35859973  0.19897954  1
  H+  H17  1  0.77152706  0.13239050  0.49713511  1
  H+  H18  1  0.50828302  0.13102769  0.82441337  1
  H+  H19  1  0.60667737  -0.02310093  0.83397841  1
  H+  H20  1  0.27828031  0.86649916  0.16158479  1
  H+  H21  1  0.82462408  0.66218936  0.76576453  1
  H+  H22  1  0.25219145  0.38900293  0.68170916  1
  H+  H23  1  0.64332674  0.88270116  0.66319787  1
  H+  H24  1  0.34819317  0.72543480  0.49284841  1
  H+  H25  1  0.24060686  0.38448718  0.18019019  1
  H+  H26  1  0.99303812  0.10703090  0.66515162  1
  H+  H27  1  0.09529813  -0.04645448  0.49713466  1
  H+  H28  1  0.02535164  0.14106465  0.02192496  1
  H+  H29  1  0.75459973  0.36956830  0.33661918  1
  H+  H30  1  0.11966699  0.15070119  0.38515155  1
  H+  H31  1  0.90348636  0.32211528  0.58707266  1
  H+  H32  1  0.20743679  0.10496901  0.17693663  1
  H+  H33  1  0.63803926  0.62496019  -0.00764183  1
  H+  H34  1  0.82113453  0.16408358  0.72635018  1
  H+  H35  1  0.13777451  0.61420081  0.65840799  1
  H+  H36  1  0.85680556  0.63273961  0.48874505  1
  H+  H37  1  0.97214960  0.86401824  0.32617475  1
  H+  H38  1  0.63847177  0.53609989  0.99116278  1
  H+  H39  1  0.77616818  0.13594155  0.34607078  1
  H+  H40  1  0.01446183  0.62872297  0.49967171  1
  H+  H41  1  0.62968219  0.35431044  0.81859842  1
  H+  H42  1  0.58233606  0.22699185  0.30867695  1
  H+  H43  1  0.04693997  0.07777987  0.82219636  1
  H+  H44  1  0.71933353  0.11633536  0.65571042  1
  H+  H45  1  0.75070003  0.13796506  0.82702907  1
  H+  H46  1  0.35404247  0.22607155  0.82731112  1
  H+  H47  1  0.53387358  0.90319986  1.00193815  1
  H+  H48  1  0.12806645  0.51814504  0.51153963  1
  H+  H49  1  0.36456346  0.95756878  0.16258657  1
  H+  H50  1  0.47493311  0.09543785  0.17947422  1
  H+  H51  1  0.26960208  0.38453237  1.01648600  1
  H+  H52  1  0.36450759  0.11558615  0.83232087  1
  H+  H53  1  0.58796750  0.88306713  0.49405084  1
  H+  H54  1  0.13864955  0.77468159  0.99721948  1
  H+  H55  1  0.61459356  0.38949492  0.67553562  1
  H+  H56  1  0.39413846  0.35963157  0.85319052  1
  H+  H57  1  0.35953999  0.38204034  0.00975845  1
  H+  H58  1  0.12277521  0.84746044  0.50250651  1
  H+  H59  1  0.42135784  0.50595321  0.85287438  1
  H+  H60  1  0.36594839  0.59604294  0.79175655  1
  H+  H61  1  0.89027565  0.03315989  1.00773441  1
  H+  H62  1  0.13348320  0.26052950  0.81408795  1
  H+  H63  1  0.62002696  0.36035413  0.32794503  1
  H+  H64  1  0.85121800  0.25329918  0.83170735  1
  H+  H65  1  0.02436621  0.63822461  0.00685209  1
  H+  H66  1  0.11099600  0.38683202  0.50551543  1
  H+  H67  1  0.12187111  0.09990692  0.66155741  1
  H+  H68  1  0.25571237  0.88105150  0.64388104  1
  H+  H69  1  0.89295786  0.37734439  0.01692486  1
  H+  H70  1  0.96490034  0.09931411  0.50784102  1
  H+  H71  1  0.63940092  0.27902516  0.50772064  1
  H+  H72  1  0.97223339  0.86472247  0.99583292  1
  H+  H73  1  0.64403404  0.37133835  0.50628767  1
  H+  H74  1  0.12986956  0.26659531  1.00548815  1
  H+  H75  1  0.17117197  0.79270015  0.65163649  1
  H+  H76  1  0.13824417  0.85033926  0.32906056  1
  H+  H77  1  0.40315364  0.62263232  0.16775505  1
  H+  H78  1  0.81997566  0.39921247  0.39326246  1
  H+  H79  1  0.85971572  0.37958493  0.48690215  1
  H+  H80  1  0.59835349  0.47271443  0.33695322  1
  H+  H81  1  0.96386364  0.85381101  0.66039709  1
  H+  H82  1  0.86190267  0.89033554  0.00552708  1
  H+  H83  1  0.12602626  0.49731719  0.84776589  1
  H+  H84  1  0.19635241  0.69765695  0.80352114  1
  H+  H85  1  0.11621604  0.96065766  0.34002482  1
  H+  H86  1  0.87892012  0.49094414  1.01929090  1
  H+  H87  1  0.15322638  0.08430414  0.93301632  1
  H+  H88  1  0.15036597  0.78763798  0.84341905  1
  H+  H89  1  0.71725029  0.61807178  0.66038408  1
  H+  H90  1  0.91212439  0.82251177  0.56176878  1
  H+  H91  1  0.51914701  0.88687492  0.83148149  1
  H+  H92  1  0.72050409  0.36034173  0.18310202  1
  H+  H93  1  0.39903896  0.85924434  0.17133759  1
  H+  H94  1  0.37754097  0.61566462  0.50859343  1
  H+  H95  1  0.66564233  0.58612077  0.23203304  1
  H+  H96  1  0.38580779  0.28968298  0.16842814  1
  H+  H97  1  0.72385094  0.87021656  0.65223184  1
  H+  H98  1  0.27608651  0.63752091  0.00870223  1
  H+  H99  1  0.27478720  0.88779843  1.00788505  1
  H+  H100  1  0.64051457  0.28498866  0.99765943  1
  H+  H101  1  0.67679893  0.10409361  0.11642142  1
  H+  H102  1  0.39404381  0.77951543  0.99243059  1
  H+  H103  1  0.64278285  0.53394186  0.16987929  1
  H+  H104  1  0.63070540  0.02557039  0.50069294  1
  H+  H105  1  0.42667563  0.59010500  0.22925743  1
  H+  H106  1  -0.01411090  0.91501317  0.16589704  1
  H+  H107  1  0.85092294  0.37577973  0.66137263  1
  H+  H108  1  1.01532394  0.87875741  0.83471506  1
  H+  H109  1  0.53408083  0.15513005  0.25737860  1
  H+  H110  1  0.88119728  0.76297798  0.84215850  1
  H+  H111  1  0.62859336  1.03085809  0.66012011  1
  H+  H112  1  0.35805357  0.98407835  0.82252483  1
  H+  H113  1  0.64954872  0.78273131  0.17327064  1
  H+  H114  1  0.37885554  0.86556246  0.50409598  1
  H+  H115  1  0.85594558  0.50131121  0.65067121  1
  H+  H116  1  0.18194927  0.57883869  0.28798677  1
  H+  H117  1  0.84357716  0.14418755  0.83237739  1
  H+  H118  1  0.70875824  0.59659725  0.32602977  1
  H+  H119  1  0.52728634  0.40275341  -0.00185445  1
  H+  H120  1  0.10105248  0.48130699  0.68021109  1
  H+  H121  1  0.52386221  0.88083843  0.33443461  1
  H+  H122  1  0.61280701  0.39591658  0.15470478  1
  H+  H123  1  0.71523908  0.34916224  0.81497487  1
  H+  H124  1  0.66017900  0.08220574  0.56166903  1
  H+  H125  1  0.09711543  0.46410568  0.01024017  1
  H+  H126  1  0.95405115  0.60732568  0.84475432  1
  H+  H127  1  0.61556848  0.88457167  0.33842550  1
  H+  H128  1  0.52650031  0.89133487  0.67499768  1
  H+  H129  1  0.62407922  0.60624612  0.32443353  1
  H+  H130  1  0.37040421  0.40103001  0.49434933  1
  H+  H131  1  0.62737734  0.27856733  0.17903575  1
  H+  H132  1  0.84219716  0.63177360  0.66862952  1
  H+  H133  1  0.27429307  0.32708066  0.81365636  1
  H+  H134  1  0.07674812  0.63124479  0.27713155  1
  H+  H135  1  0.61193618  0.47706692  0.67361757  1
  H+  H136  1  0.25480082  0.63489125  0.82375806  1
  H+  H137  1  0.95028015  0.34360270  0.83915865  1
  H+  H138  1  0.62132428  0.11089829  0.84280773  1
  H+  H139  1  0.19196428  0.07581746  0.49367007  1
  H+  H140  1  0.26628654  0.88575440  0.49028815  1
  H+  H141  1  0.86006575  0.72366650  0.49113991  1
  H+  H142  1  0.26685436  0.38709878  0.34547310  1
  H+  H143  1  0.11391920  0.24519489  0.16960574  1
  H+  H144  1  0.38893126  0.11726961  0.50502323  1
  H+  H145  1  0.38414849  0.08205192  0.20063589  1
  H+  H146  1  0.13282054  0.59520773  0.18802434  1
  H+  H147  1  0.20942754  0.50956617  0.87637618  1
  H+  H148  1  0.53903008  0.63635352  0.82746360  1
  H+  H149  1  0.88606409  0.85716671  0.50114318  1
  H+  H150  1  0.62702481  0.64784653  0.15870437  1
  H+  H151  1  0.62589748  0.99051695  0.00409673  1
  H+  H152  1  0.88106795  0.09398332  0.65285807  1
  H+  H153  1  0.96087444  0.35129953  0.64792256  1
  H+  H154  1  0.86932902  0.27940851  0.99907661  1
  H+  H155  1  0.85265831  0.21843285  0.66503055  1
  H+  H156  1  0.89053014  0.96975699  0.80392762  1
  H+  H157  1  0.16017388  0.32552558  0.60247545  1
  H+  H158  1  0.63110857  0.82817379  0.57275950  1
  H+  H159  1  0.10890797  0.88772254  0.83311652  1
  H+  H160  1  0.36483397  0.63801527  0.00264150  1
  H+  H161  1  0.78953103  0.89849440  0.81813482  1
  H+  H162  1  0.63426681  0.36570981  -0.01715664  1
  H+  H163  1  0.86535693  0.60390934  0.83708257  1
  H+  H164  1  0.32302434  0.66583487  0.43434999  1
  H+  H165  1  0.26551324  0.13694874  0.67165672  1
  H+  H166  1  0.53631784  0.89490192  0.16216594  1
  H+  H167  1  0.85090498  0.04657131  0.88056303  1
  H+  H168  1  0.33499866  0.15041419  0.14551863  1
  H+  H169  1  0.77241164  0.64291405  0.00964970  1
  H+  H170  1  0.86364735  0.96342037  0.49505810  1
  H+  H171  1  0.35569030  0.38717198  0.33984454  1
  H+  H172  1  0.87546694  0.85463900  0.65088740  1
  H+  H173  1  0.63171108  0.02317732  0.34029243  1
  H+  H174  1  0.37945990  0.52766293  0.50743495  1
  H+  H175  1  0.89999509  0.13432521  0.14700057  1
  H+  H176  1  0.11379358  0.34111313  0.65785950  1
  H+  H177  1  0.35496559  0.97746543  0.49419845  1
  H+  H178  1  0.64816127  0.78431417  0.83156409  1
  H+  H179  1  0.39042323  0.86649649  0.99410640  1
  H+  H180  1  0.77942837  0.90989931  0.15974611  1
  H+  H181  1  0.76592789  0.63217810  0.82662742  1
  H+  H182  1  -0.01066267  0.13185674  0.16719252  1
  H+  H183  1  0.20007395  0.11128673  0.83570655  1
  H+  H184  1  0.09565811  0.37069392  1.01108526  1
  H+  H185  1  0.93905526  0.10096009  0.84642401  1
  H+  H186  1  0.80000864  0.15422717  0.13929088  1
  H+  H187  1  0.35975103  0.23776876  -0.00256209  1
  H+  H188  1  0.60380611  0.61905978  0.67020740  1
  H+  H189  1  0.62851110  0.64468815  0.82011729  1
  H+  H190  1  0.12899502  0.60187761  0.99880211  1
  H+  H191  1  0.05484473  0.69259788  0.68047328  1
  H+  H192  1  0.38298061  0.52807521  0.32389360  1
  H+  H193  1  0.86416242  0.97499418  0.65765131  1
  H+  H194  1  0.12192013  0.10635120  0.51564904  1
  H+  H195  1  0.10954558  0.07451278  0.30875140  1
  H+  H196  1  0.11656139  1.01317922  0.17278065  1
  H+  H197  1  0.35569975  0.13906906  0.67209866  1
  H+  H198  1  0.29930170  0.18043567  0.50348476  1
  H+  H199  1  0.09619451  0.96647495  0.67649979  1
  H+  H200  1  0.02874354  0.62094390  0.15092429  1
  H+  H201  1  0.47917891  0.36276318  0.65743373  1
  H+  H202  1  0.78936668  0.63615018  0.16789610  1
  H+  H203  1  0.88722871  0.03585001  0.15874959  1
  H+  H204  1  0.52548896  0.39799563  0.15679939  1
  H+  H205  1  0.38790375  0.52159866  1.00223483  1
  H+  H206  1  0.86644757  0.35944167  0.83029306  1
  H+  H207  1  0.73154124  0.86442132  0.33230632  1
  H+  H208  1  0.27091373  0.63631299  0.66817400  1
  H+  H209  1  0.05982418  0.84819697  0.15814834  1
  H+  H210  1  0.63997400  0.87050545  -0.01261198  1
  H+  H211  1  0.06084108  0.38928352  0.77311109  1
  H+  H212  1  0.25141534  0.62032807  0.34249444  1
  H+  H213  1  0.46579196  0.35908668  0.33038323  1
  H+  H214  1  0.10852050  0.89081481  0.01108339  1
  H+  H215  1  0.10981209  0.63020651  0.50447722  1
  H+  H216  1  0.27242243  0.42547081  0.86250050  1
  H+  H217  1  0.33202660  0.91511578  0.40038815  1
  H+  H218  1  0.15587226  0.24301509  0.83352594  1
  H+  H219  1  0.61796985  0.14700145  0.49435487  1
  H+  H220  1  0.36348319  0.14806311  -0.00032829  1
  H+  H221  1  0.37469754  0.49087745  0.16075445  1
  H+  H222  1  0.11883308  0.70947578  0.16182043  1
  H+  H223  1  0.41270958  0.08470914  0.56516017  1
  H+  H224  1  0.49015935  0.79389983  0.61074812  1
  H+  H225  1  0.04033367  0.80771778  0.13925248  1
  H+  H226  1  0.86146082  -0.02458492  0.34790409  1
  H+  H227  1  0.22961116  0.36608357  0.51084037  1
  H+  H228  1  0.61580474  0.14029718  0.17354284  1
  H+  H229  1  0.52948185  0.14573727  0.49730606  1
  H+  H230  1  0.36541362  0.72139338  0.66470920  1
  H+  H231  1  0.85936271  0.12830680  0.50037429  1
  H+  H232  1  0.95755073  0.59563343  0.32496733  1
  H+  H233  1  0.38730013  0.90129286  0.67614554  1
  H+  H234  1  0.61336652  0.72888858  0.33953980  1
  H+  H235  1  0.77362653  0.89182754  1.00107086  1
  H+  H236  1  0.60977121  0.73168194  0.00472600  1
  H+  H237  1  0.37017855  0.78251156  0.83901040  1
  H+  H238  1  0.76061097  0.37523384  0.66785126  1
  H+  H239  1  0.36410867  0.89741387  0.82774723  1
  H+  H240  1  0.46831963  0.86667807  0.49543023  1
  H+  H241  1  0.12082753  0.01603716  0.84168636  1
  H+  H242  1  0.88875108  0.50722502  0.17445286  1
  H+  H243  1  0.60349804  0.76826622  0.51254855  1
  H+  H244  1  0.42934918  0.35004782  0.56536708  1
  H+  H245  1  0.39459621  0.01805444  0.99788561  1
  H+  H246  1  0.39063724  0.76923176  0.32936627  1
  H+  H247  1  0.42924249  0.33437040  1.03572169  1
  H+  H248  1  0.64633030  0.86984689  0.17562971  1
  H+  H249  1  0.88175792  0.37448637  0.30804490  1
  H+  H250  1  0.34382548  0.47801674  0.68090355  1
  H+  H251  1  0.12756796  0.27196936  0.35318939  1
  H+  H252  1  0.99000655  0.36663761  0.19230460  1
  H+  H253  1  0.85297911  0.72656865  0.67021538  1
  H+  H254  1  0.39322914  0.63811261  0.80744607  1
  H+  H255  1  0.10192855  0.64258851  0.82912622  1
  H+  H256  1  0.00906609  0.86337411  0.49263696  1
  H+  H257  1  0.01394137  0.44477295  0.71402110  1
  H+  H258  1  0.38565848  0.73151210  0.15908355  1
  H+  H259  1  0.42849735  0.82247187  0.58457121  1
  H+  H260  1  0.06610129  0.15957107  0.55252439  1
  H+  H261  1  0.63067378  0.27347910  0.65923565  1
  H+  H262  1  0.07068737  0.36522216  0.16505134  1
  H+  H263  1  0.82492754  0.37641528  0.13109097  1
  H+  H264  1  0.52122488  0.64166353  0.33690581  1
  H+  H265  1  0.33524857  0.91130198  0.06684655  1
  H+  H266  1  0.14739103  0.84094234  0.17946703  1
  H+  H267  1  0.62529894  0.48859655  0.49242539  1
  H+  H268  1  0.88147261  0.26306011  0.50237235  1
  H+  H269  1  0.91092554  0.79292926  0.18249068  1
  H+  H270  1  0.63684815  0.52559853  0.84204103  1
  H+  H271  1  0.88288285  0.85221866  0.83790033  1
  H+  H272  1  0.10766610  0.39066964  0.35834574  1
  H+  H273  1  0.25786383  0.13409176  0.33927347  1
  H+  H274  1  0.97088580  0.35555579  0.50472416  1
  H+  H275  1  0.14067336  0.76129903  0.32214615  1
  H+  H276  1  0.87000004  0.50776622  0.32506344  1
  H+  H277  1  0.46421349  0.12000311  0.33167431  1
  H+  H278  1  0.32201513  0.17264896  0.76398004  1
  H+  H279  1  0.83712148  0.61186627  0.33758571  1
  H+  H280  1  0.60012377  0.21754792  0.81466157  1
  H+  H281  1  0.60774252  0.13952068  0.66835124  1
  H+  H282  1  0.07338234  0.33993519  0.82890609  1
  H+  H283  1  0.53797653  0.14062811  1.02430722  1
  H+  H284  1  0.52728422  0.38836774  0.83354063  1
  H+  H285  1  0.38831116  0.27699322  0.65319334  1
  H+  H286  1  0.72700433  0.62030837  0.50832561  1
  H+  H287  1  0.77340164  0.38499081  0.49068599  1
  H+  H288  1  0.66859535  0.83805406  0.92863446  1
  H+  H289  1  0.63032738  0.10479823  0.31450537  1
  H+  H290  1  0.65324572  0.33947845  0.26564988  1
  H+  H291  1  0.53574328  0.40289170  0.49474969  1
  H+  H292  1  0.21678150  0.61087653  0.50713183  1
  H+  H293  1  0.17871313  0.81962144  0.24061353  1
  H+  H294  1  0.11374140  0.69013199  0.73289730  1
  H+  H295  1  0.57918405  0.41952563  0.39942011  1
  H+  H296  1  0.58441748  0.42915244  0.05853993  1
  H+  H297  1  0.16939868  0.34039209  0.95165626  1
  H+  H298  1  0.12312116  0.62907704  0.33460010  1
  H+  H299  1  0.32052679  0.18524776  0.08493607  1
  H+  H300  1  0.66409144  0.33459784  0.59949388  1
  H+  H301  1  0.44094049  0.56850465  0.91004796  1
  H+  H302  1  0.38449668  0.61289266  0.66295521  1
  H+  H303  1  0.38963573  0.85978921  0.32485646  1
  H+  H304  1  0.38709003  0.61975284  0.32427109  1
  H+  H305  1  0.58016679  0.42121905  0.77054983  1
  H+  H306  1  0.08317909  0.90113602  0.39986972  1
  H+  H307  1  0.41139094  0.58354781  0.60143966  1
  H+  H308  1  0.90171249  0.58044036  0.93879399  1
  H+  H309  1  0.83266886  0.41484796  0.75720863  1
  H+  H310  1  0.66030134  0.58801066  0.59848515  1
  H+  H311  1  0.30051393  0.68206332  0.76073006  1
  H+  H312  1  0.41750197  0.70307147  0.38423759  1
  H+  H313  1  0.16039187  0.57551388  0.60071031  1
  H+  H314  1  -0.00947747  0.36753318  0.00756079  1
  H+  H315  1  0.41255387  0.83718332  0.90027021  1
  H+  H316  1  0.16665602  0.05834840  0.25914212  1
  H+  H317  1  0.06422568  0.91008324  0.73620967  1
  H+  H318  1  0.22119370  0.11516555  -0.01218946  1
  H+  H319  1  0.57606668  0.65319829  0.73689195  1
  H+  H320  1  0.57868181  0.66622273  0.43296564  1
  H+  H321  1  0.91625063  0.11149436  0.96321222  1
  H+  H322  1  0.08138015  0.17514338  0.44004623  1
  H+  H323  1  0.83139832  0.90871975  0.71558196  1
  H+  H324  1  0.91021849  0.82933371  0.93770060  1
  H+  H325  1  0.42244299  0.33014819  0.91244108  1
  H+  H326  1  0.16048496  0.56431342  0.94426373  1
  H+  H327  1  0.42866701  0.83324736  0.23271846  1
  H+  H328  1  0.46877172  0.07086662  0.95114348  1
  H+  H329  1  0.80913851  0.64645852  0.39520602  1
  H+  H330  1  0.66652379  0.09596490  0.90196144  1
  H+  H331  1  0.59399122  0.92394954  0.10170333  1
  H+  H332  1  0.63206084  0.15256962  0.02200202  1
  H+  H333  1  0.89126376  0.59460585  0.15434484  1
  H+  H334  1  0.32996513  0.18060956  0.43499769  1
  H+  H335  1  0.90895078  0.06902567  0.57030100  1
  H+  H336  1  0.09526108  0.18425392  0.11229065  1
  H+  H337  1  0.12687058  0.48661730  0.36215077  1
  H+  H338  1  0.08548474  0.19727761  0.68037859  1
  H+  H339  1  0.11212412  0.73058136  0.50251518  1
  H+  H340  1  0.17102203  0.82963379  0.55999420  1
  H+  H341  1  0.39249542  0.37992967  0.17549658  1
  H+  H342  1  0.64273007  0.86993299  0.83473437  1
  H+  H343  1  0.65133325  0.03242096  0.16358312  1
  H+  H344  1  0.14978403  0.31762994  0.28762287  1
  H+  H345  1  0.01696568  0.10090324  0.76059808  1
  H+  H346  1  0.86196576  0.73048555  0.01141946  1
  H+  H347  1  0.67482820  0.83670615  0.27122998  1
  H+  H348  1  0.16944100  0.83848049  0.94013196  1
  H+  H349  1  0.08372582  0.42007148  0.44566524  1
  H+  H350  1  0.91847013  0.84910218  0.26274846  1
  H+  H351  1  0.90461515  0.48481536  0.08437129  1
  H+  H352  1  0.57353724  0.16189667  0.72916973  1
  H+  H353  1  0.33320355  0.42367961  0.43513414  1
  H+  H354  1  0.10753546  0.97873032  0.00372989  1
  H+  H355  1  0.39000982  0.08604378  0.89348402  1
  H+  H356  1  0.90117955  0.56866493  0.55569594  1
  H+  H357  1  0.11408131  0.13978263  0.01379499  1
  H+  H358  1  0.57739695  0.92625534  0.73878872  1
  H+  H359  1  0.37343681  0.01942571  0.35128725  1
  H+  H360  1  0.10384381  0.49880262  0.20189536  1
  H+  H361  1  0.58780461  0.67585745  0.06626907  1
  H+  H362  1  0.83773396  0.90792566  0.43384676  1
  H+  H363  1  0.36701931  0.11323252  0.35281740  1
  H+  H364  1  0.31726432  0.40730008  0.76906964  1
  H+  H365  1  0.83110617  0.93699526  0.09541960  1
  H+  H366  1  0.57597685  0.91833416  0.42887723  1
  H+  H367  1  0.83142550  0.15395835  0.07275923  1
  H+  H368  1  0.29041015  0.47475141  0.92479372  1
  H+  H369  1  0.86400152  0.88766528  0.33947474  1
  H+  H370  1  0.17990687  0.41123759  0.21270790  1
  H+  H371  1  0.47586919  0.61375296  0.99971860  1
  H+  H372  1  0.08734208  0.66245573  0.06469418  1
  H+  H373  1  0.04829155  0.94827260  0.10256520  1
  H+  H374  1  0.15621116  0.07133271  0.60365368  1
  H+  H375  1  0.83618499  0.16419998  0.40276520  1
  H+  H376  1  0.34495009  0.92302377  0.73237470  1
  H+  H377  1  0.58228833  0.16875103  0.11800344  1
  H+  H378  1  0.33810047  0.42594361  0.10330353  1
  H+  H379  1  0.23155305  0.87873164  0.84273010  1
  H+  H380  1  0.27500586  0.88640747  0.33973133  1
  H+  H381  1  0.35163389  0.67364993  0.09966665  1
  H+  H382  1  0.84075604  0.66508118  0.10651629  1
  H+  H383  1  0.41118330  0.33411103  0.26866914  1
  O2-  O384  1  0.08750420  0.18490057  0.15704212  1
  O2-  O385  1  0.09235449  0.16430845  0.51286975  1
  O2-  O386  1  -0.00371214  0.07573371  0.80243292  1
  O2-  O387  1  0.04420800  0.40079398  0.16835430  1
  O2-  O388  1  0.08004546  0.41726029  0.49281950  1
  O2-  O389  1  0.05216576  0.37863871  0.81783437  1
  O2-  O390  1  0.09183844  0.65316173  0.14077308  1
  O2-  O391  1  0.07932933  0.66273252  0.49036085  1
  O2-  O392  1  0.13789973  0.69439259  0.80565343  1
  O2-  O393  1  0.03933024  0.97067199  0.14074191  1
  O2-  O394  1  0.07226988  0.89480625  0.47969438  1
  O2-  O395  1  0.07516424  0.91433583  0.81856062  1
  O2-  O396  1  0.31958338  0.19164793  0.13043614  1
  O2-  O397  1  0.34769342  0.18802058  0.47884661  1
  O2-  O398  1  0.31721825  0.16804265  0.80972927  1
  O2-  O399  1  0.33921268  0.42806252  0.14879539  1
  O2-  O400  1  0.33342717  0.42497771  0.48070667  1
  O2-  O401  1  0.31787702  0.38794295  0.81383206  1
  O2-  O402  1  0.35667412  0.67118964  0.14422938  1
  O2-  O403  1  0.31618619  0.66363027  0.48050212  1
  O2-  O404  1  0.28099668  0.69064567  0.80163694  1
  O2-  O405  1  0.33672303  0.89993398  0.14275657  1
  O2-  O406  1  0.32740677  0.91748168  0.47733173  1
  O2-  O407  1  0.33176532  0.92311885  0.80818807  1
  O2-  O408  1  0.57797048  0.16497657  0.16377013  1
  O2-  O409  1  0.58962698  0.18091153  0.48395094  1
  O2-  O410  1  0.56752597  0.15206695  0.80977783  1
  O2-  O411  1  0.58394487  0.42678991  0.13817565  1
  O2-  O412  1  0.59518915  0.42785797  0.47754915  1
  O2-  O413  1  0.58571556  0.42340971  0.81591385  1
  O2-  O414  1  0.59687695  0.67844918  0.14309074  1
  O2-  O415  1  0.57948954  0.66462479  0.47858214  1
  O2-  O416  1  0.59447767  0.67130410  0.80441628  1
  O2-  O417  1  0.59733363  0.92705057  0.14673640  1
  O2-  O418  1  0.56874788  0.92137337  0.47394157  1
  O2-  O419  1  0.57989108  0.91769085  0.81686867  1
  O2-  O420  1  0.85215239  0.17358383  0.11448686  1
  O2-  O421  1  0.83369369  0.16348653  0.48556927  1
  O2-  O422  1  0.81254496  0.17106196  0.81161644  1
  O2-  O423  1  0.81749158  0.38422361  0.17418695  1
  O2-  O424  1  0.83239278  0.41302368  0.47217310  1
  O2-  O425  1  0.83338443  0.41293644  0.80288590  1
  O2-  O426  1  0.84769184  0.65830096  0.15061544  1
  O2-  O427  1  0.82419431  0.66160337  0.47791576  1
  O2-  O428  1  0.82722933  0.65984873  0.81119300  1
  O2-  O429  1  0.83212359  0.95364514  0.13853553  1
  O2-  O430  1  0.84183318  0.90434031  0.47929743  1
  O2-  O431  1  0.84445320  0.90914332  0.79965962  1
  O2-  O432  1  0.17765094  0.04871086  0.19667674  1
  O2-  O433  1  0.14512812  0.06036206  0.52205070  1
  O2-  O434  1  0.14215245  0.07749985  0.85389830  1
  O2-  O435  1  0.18259138  0.36045869  0.20043211  1
  O2-  O436  1  0.16990058  0.33453403  0.52748938  1
  O2-  O437  1  0.24482043  0.44283121  0.89517749  1
  O2-  O438  1  0.14072513  0.55843502  0.21755543  1
  O2-  O439  1  0.15693567  0.58066360  0.52541974  1
  O2-  O440  1  0.17931681  0.54253965  0.86643005  1
  O2-  O441  1  0.17973937  0.81434885  0.19460883  1
  O2-  O442  1  0.15680939  0.81813604  0.51457600  1
  O2-  O443  1  0.17234809  0.84596202  0.86032501  1
  O2-  O444  1  0.41860378  0.05429848  0.19921775  1
  O2-  O445  1  0.41171118  0.08060426  0.51961639  1
  O2-  O446  1  0.39493810  0.08523144  0.84910937  1
  O2-  O447  1  0.42038370  0.34612884  0.18902651  1
  O2-  O448  1  0.43307808  0.35895425  0.51918357  1
  O2-  O449  1  0.42350930  0.32883085  0.86720372  1
  O2-  O450  1  0.43216995  0.59005398  0.18396927  1
  O2-  O451  1  0.40919315  0.58741058  0.52467491  1
  O2-  O452  1  0.45834545  0.56398143  0.86772173  1
  O2-  O453  1  0.43589700  0.83670136  0.18722755  1
  O2-  O454  1  0.40900327  0.83334567  0.51460561  1
  O2-  O455  1  0.41139709  0.84066467  0.85461730  1
  O2-  O456  1  0.68064167  0.09706277  0.16011319  1
  O2-  O457  1  0.66506736  0.08564917  0.51653997  1
  O2-  O458  1  0.65735163  0.08560349  0.85746808  1
  O2-  O459  1  0.65729191  0.34034516  0.18985480  1
  O2-  O460  1  0.67297811  0.34069656  0.52318612  1
  O2-  O461  1  0.65292798  0.31617912  0.80817479  1
  O2-  O462  1  0.67443269  0.59311859  0.18675666  1
  O2-  O463  1  0.66645055  0.59013358  0.52474885  1
  O2-  O464  1  0.66933955  0.58800669  0.85386617  1
  O2-  O465  1  0.67811999  0.84168949  0.19118428  1
  O2-  O466  1  0.59735984  0.81337540  0.53371738  1
  O2-  O467  1  0.67809566  0.84401518  0.84757610  1
  O2-  O468  1  0.92359778  0.10258260  0.17232611  1
  O2-  O469  1  0.90523613  0.07068600  0.52256924  1
  O2-  O470  1  0.89488456  0.10585355  0.87235654  1
  O2-  O471  1  0.89804872  0.32619011  0.23403726  1
  O2-  O472  1  0.90864602  0.32545090  0.51629658  1
  O2-  O473  1  0.88766545  0.31976232  0.84854130  1
  O2-  O474  1  0.92248401  0.56113423  0.15157287  1
  O2-  O475  1  0.91530786  0.57566794  0.51157089  1
  O2-  O476  1  0.89344040  0.57091880  0.85431018  1
  O2-  O477  1  0.92259256  0.84937697  0.19658010  1
  O2-  O478  1  0.91409738  0.82189608  0.51641580  1
  O2-  O479  1  0.91094880  0.82287194  0.85831818  1
  O2-  O480  1  0.15867441  0.06550136  0.30738828  1
  O2-  O481  1  0.16002224  0.07674063  0.64863209  1
  O2-  O482  1  0.15847823  0.08475486  0.97829293  1
  O2-  O483  1  0.15684089  0.32843049  0.33160994  1
  O2-  O484  1  0.15175367  0.31880327  0.64813821  1
  O2-  O485  1  0.15728666  0.33093281  0.99530765  1
  O2-  O486  1  0.18934380  0.58725145  0.33326825  1
  O2-  O487  1  0.16166936  0.57708198  0.64675497  1
  O2-  O488  1  0.15662557  0.56642325  0.98915291  1
  O2-  O489  1  0.17374347  0.82463697  0.31389305  1
  O2-  O490  1  0.19647581  0.84632774  0.62814454  1
  O2-  O491  1  0.16979536  0.83672333  0.98544775  1
  O2-  O492  1  0.40466753  0.08588321  0.35596365  1
  O2-  O493  1  0.41376928  0.09103391  0.64310089  1
  O2-  O494  1  0.43211746  0.07784474  0.98053821  1
  O2-  O495  1  0.40535031  0.32816011  0.31395974  1
  O2-  O496  1  0.42272010  0.33580298  0.63649088  1
  O2-  O497  1  0.40851141  0.33321098  0.99446905  1
  O2-  O498  1  0.41516352  0.58719000  0.30703775  1
  O2-  O499  1  0.41382335  0.58209866  0.64734931  1
  O2-  O500  1  0.41564557  0.58016242  0.98301550  1
  O2-  O501  1  0.41815607  0.82938951  0.30855664  1
  O2-  O502  1  0.44714887  0.80854195  0.62476864  1
  O2-  O503  1  0.42355739  0.84009577  0.97715579  1
  O2-  O504  1  0.66333386  0.08706705  0.33947605  1
  O2-  O505  1  0.65818412  0.08945946  0.64149901  1
  O2-  O506  1  0.69671181  0.11417142  0.98447878  1
  O2-  O507  1  0.64659478  0.32721681  0.31062778  1
  O2-  O508  1  0.66395477  0.33477711  0.64539347  1
  O2-  O509  1  0.65234682  0.32687184  0.96538794  1
  O2-  O510  1  0.64760157  0.57045359  0.30822915  1
  O2-  O511  1  0.65650987  0.58490005  0.64472639  1
  O2-  O512  1  0.67030012  0.59720790  0.97621267  1
  O2-  O513  1  0.66994580  0.83350402  0.31644013  1
  O2-  O514  1  0.66117933  0.84483585  0.64371114  1
  O2-  O515  1  0.66626576  0.83591321  0.97394436  1
  O2-  O516  1  0.92144263  0.08029507  0.33141023  1
  O2-  O517  1  0.91271816  0.06636471  0.63782534  1
  O2-  O518  1  0.92391355  0.09717037  1.00481951  1
  O2-  O519  1  0.93147737  0.37640421  0.28525013  1
  O2-  O520  1  0.90100879  0.32211963  0.63387267  1
  O2-  O521  1  0.91217213  0.34074774  0.99383290  1
  O2-  O522  1  0.89731597  0.56880009  0.31238548  1
  O2-  O523  1  0.88307942  0.56275762  0.63499457  1
  O2-  O524  1  0.91309615  0.58831872  0.98288364  1
  O2-  O525  1  0.91527890  0.84885724  0.31078953  1
  O2-  O526  1  0.90467821  0.82020361  0.64145571  1
  O2-  O527  1  0.91022397  0.83273951  0.98293097  1
  O2-  O528  1  0.08903807  0.17362121  0.03169639  1
  O2-  O529  1  0.08571226  0.17776864  0.39417041  1
  O2-  O530  1  0.05490237  0.13538230  0.68913545  1
  O2-  O531  1  0.06226090  0.40089571  0.02090682  1
  O2-  O532  1  0.08764543  0.42727497  0.37730196  1
  O2-  O533  1  0.05538117  0.42774532  0.70137926  1
  O2-  O534  1  0.08595950  0.66468604  0.01882219  1
  O2-  O535  1  0.08464760  0.65078915  0.31941406  1
  O2-  O536  1  0.10487001  0.68632390  0.68754297  1
  O2-  O537  1  0.07443407  0.91894317  0.01980414  1
  O2-  O538  1  0.08923029  0.90042521  0.35482580  1
  O2-  O539  1  0.05976262  0.90681880  0.69135286  1
  O2-  O540  1  0.32672831  0.17201064  0.00970966  1
  O2-  O541  1  0.31699695  0.16649349  0.35743982  1
  O2-  O542  1  0.32608895  0.16986503  0.68721432  1
  O2-  O543  1  0.33219841  0.41787540  0.02467150  1
  O2-  O544  1  0.32917990  0.42024428  0.35622087  1
  O2-  O545  1  0.30377763  0.42826538  0.70593970  1
  O2-  O546  1  0.33849262  0.67253302  0.01667234  1
  O2-  O547  1  0.36284104  0.68408481  0.36365579  1
  O2-  O548  1  0.32845720  0.66742864  0.68798262  1
  O2-  O549  1  0.33657376  0.91739805  0.02131014  1
  O2-  O550  1  0.33556626  0.92268767  0.35498024  1
  O2-  O551  1  0.35229301  0.92672546  0.68678956  1
  O2-  O552  1  0.59518407  0.17110608  0.04352971  1
  O2-  O553  1  0.54376031  0.16224044  0.30125233  1
  O2-  O554  1  0.57630091  0.16890968  0.68407355  1
  O2-  O555  1  0.58751301  0.43382751  0.01314088  1
  O2-  O556  1  0.56962192  0.41236365  0.35441100  1
  O2-  O557  1  0.58351320  0.41852794  0.69154516  1
  O2-  O558  1  0.58033837  0.67166931  0.02073473  1
  O2-  O559  1  0.58009799  0.66790882  0.35465017  1
  O2-  O560  1  0.56830065  0.64470356  0.69004010  1
  O2-  O561  1  0.59390310  0.92989624  0.01753128  1
  O2-  O562  1  0.58252862  0.91280063  0.35257159  1
  O2-  O563  1  0.58187234  0.93323561  0.69362017  1
  O2-  O564  1  0.78120856  0.15435895  -0.00442523  1
  O2-  O565  1  0.83752181  0.16314105  0.35784218  1
  O2-  O566  1  0.82136592  0.15899912  0.68173066  1
  O2-  O567  1  0.87593892  0.44746678  0.04897702  1
  O2-  O568  1  0.81637535  0.39797981  0.34800523  1
  O2-  O569  1  0.82398326  0.40746525  0.68014021  1
  O2-  O570  1  0.83244245  0.66919486  0.02535070  1
  O2-  O571  1  0.79915039  0.63423082  0.35135802  1
  O2-  O572  1  0.81824014  0.66528898  0.68726880  1
  O2-  O573  1  0.83318812  0.92359867  0.01738849  1
  O2-  O574  1  0.82882008  0.91251985  0.35848886  1
  O2-  O575  1  0.82929763  0.90987494  0.67080109  1
