# generated using pymatgen
data_H2O
_symmetry_space_group_name_H-M   'P 1'
_cell_length_a   17.99061817
_cell_length_b   17.98203167
_cell_length_c   21.98096830
_cell_angle_alpha   89.99635022
_cell_angle_beta   89.99206385
_cell_angle_gamma   120.03539096
_symmetry_Int_Tables_number   1
_chemical_formula_structural   H2O
_chemical_formula_sum   'H384 O192'
_cell_volume   6156.12312280
_cell_formula_units_Z   192
loop_
 _symmetry_equiv_pos_site_id
 _symmetry_equiv_pos_as_xyz
  1  'x, y, z'
loop_
 _atom_type_symbol
 _atom_type_oxidation_number
  H+  1.0
  O2-  -2.0
loop_
 _atom_site_type_symbol
 _atom_site_label
 _atom_site_symmetry_multiplicity
 _atom_site_fract_x
 _atom_site_fract_y
 _atom_site_fract_z
 _atom_site_occupancy
  H+  H0  1  0.28190338  0.14821922  0.01434870  1
  H+  H1  1  0.62948648  0.84769646  0.18187097  1
  H+  H2  1  0.93503466  0.84975923  0.22954624  1
  H+  H3  1  0.52687427  0.90245169  0.82640252  1
  H+  H4  1  0.13424254  0.77744184  0.98804339  1
  H+  H5  1  0.60802147  0.87612449  0.34551451  1
  H+  H6  1  0.13659403  0.10574041  0.50670777  1
  H+  H7  1  0.27081956  0.14548728  0.81537891  1
  H+  H8  1  0.87767112  0.38649407  0.48883978  1
  H+  H9  1  0.40203260  0.54840947  0.92747621  1
  H+  H10  1  0.87918337  0.00781081  0.50320606  1
  H+  H11  1  0.09293146  0.65371336  0.51491357  1
  H+  H12  1  0.66232187  0.26398794  0.35014450  1
  H+  H13  1  0.64303840  0.22079033  0.65506280  1
  H+  H14  1  0.28673433  0.64080610  0.49765142  1
  H+  H15  1  0.62249714  0.72697274  0.16317585  1
  H+  H16  1  0.64199299  0.48859923  0.82406706  1
  H+  H17  1  1.05158539  0.87045550  0.66201168  1
  H+  H18  1  0.72490152  0.85802278  0.33134508  1
  H+  H19  1  0.14561256  0.01075918  0.98290772  1
  H+  H20  1  0.11630776  0.14004027  1.00593902  1
  H+  H21  1  0.10400874  0.74081077  0.49267520  1
  H+  H22  1  0.01079050  0.55254151  0.79231586  1
  H+  H23  1  0.97673797  0.11296616  0.32729042  1
  H+  H24  1  0.89226272  0.53353733  0.98123618  1
  H+  H25  1  0.32806129  0.68597800  0.86738559  1
  H+  H26  1  0.22548869  0.60807495  0.32801465  1
  H+  H27  1  0.59944869  0.42348607  0.39442938  1
  H+  H28  1  0.72962832  0.61245726  0.17711440  1
  H+  H29  1  0.16933037  0.34276191  0.23632451  1
  H+  H30  1  0.89763062  0.60361865  0.66571457  1
  H+  H31  1  0.13741996  0.11918413  0.32361868  1
  H+  H32  1  0.13081878  0.59259832  0.84228161  1
  H+  H33  1  0.90138898  0.02049964  0.84664220  1
  H+  H34  1  0.71164566  0.66875181  0.64001689  1
  H+  H35  1  0.14878440  0.57994163  0.50504141  1
  H+  H36  1  0.02709521  0.90578207  0.15407947  1
  H+  H37  1  0.90077282  0.84267131  0.90177565  1
  H+  H38  1  0.84101683  0.15894548  0.76067594  1
  H+  H39  1  0.46320545  0.88754975  0.67532760  1
  H+  H40  1  0.77839922  0.40089566  -0.02716017  1
  H+  H41  1  0.36010369  0.23880333  0.81926215  1
  H+  H42  1  0.84190514  0.67203331  0.07476490  1
  H+  H43  1  0.34680473  0.73339514  0.69449208  1
  H+  H44  1  0.10595398  0.13011292  0.16483995  1
  H+  H45  1  0.86117789  -0.02308522  0.34262120  1
  H+  H46  1  0.60008564  0.38328372  0.16580397  1
  H+  H47  1  0.88705157  0.02737552  0.99670143  1
  H+  H48  1  0.84270150  0.42308231  0.42150877  1
  H+  H49  1  0.61718869  0.25597357  -0.01277710  1
  H+  H50  1  0.88364373  0.10257832  0.17421208  1
  H+  H51  1  0.13930045  0.11568829  0.83332353  1
  H+  H52  1  0.06316273  0.88728060  0.44101775  1
  H+  H53  1  0.38423622  0.56854285  -0.00681002  1
  H+  H54  1  0.72568274  0.10307831  0.33506888  1
  H+  H55  1  0.22526173  0.34980493  0.51696765  1
  H+  H56  1  0.13289300  0.35739476  0.33336985  1
  H+  H57  1  0.09921866  0.41545158  0.07918103  1
  H+  H58  1  0.12399902  0.38697436  0.16505100  1
  H+  H59  1  0.75283116  0.15464018  0.66923263  1
  H+  H60  1  0.45110183  0.60963338  0.83381726  1
  H+  H61  1  0.66280564  0.53025874  0.66743247  1
  H+  H62  1  0.36920801  0.22196575  0.49750903  1
  H+  H63  1  0.02709400  0.63900084  0.15416379  1
  H+  H64  1  0.59905504  0.94671211  0.02705668  1
  H+  H65  1  0.11747376  0.83955025  0.35066420  1
  H+  H66  1  0.49815776  0.39001438  0.01638141  1
  H+  H67  1  0.59288564  0.66145715  0.66307633  1
  H+  H68  1  1.02562361  0.38072130  0.34193223  1
  H+  H69  1  0.58689578  0.65413164  0.80873220  1
  H+  H70  1  -0.01385807  0.61890269  0.32459153  1
  H+  H71  1  0.57197254  0.36874978  0.02968477  1
  H+  H72  1  0.86732419  0.13392812  0.34363235  1
  H+  H73  1  0.15901542  0.30471994  0.70518478  1
  H+  H74  1  0.82843886  0.13911786  0.65280773  1
  H+  H75  1  0.61629801  0.80179498  0.65759469  1
  H+  H76  1  0.63671149  1.03016923  0.50790547  1
  H+  H77  1  0.32687346  0.18201403  0.73636963  1
  H+  H78  1  0.99715782  0.64570889  0.84799303  1
  H+  H79  1  0.92069534  0.57750048  0.22913435  1
  H+  H80  1  0.21401524  0.85252216  0.34981552  1
  H+  H81  1  0.67932889  0.39937362  0.50694754  1
  H+  H82  1  0.58898042  0.74143836  0.82262270  1
  H+  H83  1  0.35760953  0.49152799  0.66721443  1
  H+  H84  1  0.89246320  0.11935082  0.99324461  1
  H+  H85  1  0.23286247  0.37616277  0.17819350  1
  H+  H86  1  0.38547818  0.27094140  0.33877068  1
  H+  H87  1  0.65580139  0.60225698  0.86358895  1
  H+  H88  1  0.12332111  0.60155873  0.17389617  1
  H+  H89  1  0.13664200  0.60714780  0.65966178  1
  H+  H90  1  0.62330121  0.63645815  0.16126230  1
  H+  H91  1  0.33464423  0.66626069  0.40097054  1
  H+  H92  1  0.66270557  0.34358996  0.60135362  1
  H+  H93  1  0.37660218  0.64804824  0.49440893  1
  H+  H94  1  0.02656816  0.13688560  0.00489496  1
  H+  H95  1  0.97276215  0.36504308  0.50882474  1
  H+  H96  1  0.76679941  0.12330988  0.49339074  1
  H+  H97  1  0.37907485  0.12074286  0.84058828  1
  H+  H98  1  0.11484618  0.22605429  0.33936881  1
  H+  H99  1  0.10720800  0.97706979  0.82039728  1
  H+  H100  1  0.35883574  0.60116533  0.84143780  1
  H+  H101  1  0.38637679  0.78081392  0.50282437  1
  H+  H102  1  0.62525248  0.84384331  1.00126501  1
  H+  H103  1  0.46736539  0.35896464  0.18750469  1
  H+  H104  1  0.36983747  0.01131954  0.34522477  1
  H+  H105  1  0.90079745  0.62561654  0.31314807  1
  H+  H106  1  0.36684572  0.39230448  0.50466307  1
  H+  H107  1  0.61852099  0.99240412  0.82628629  1
  H+  H108  1  0.78945465  0.40901555  0.32896963  1
  H+  H109  1  0.27954214  0.61780075  0.00754846  1
  H+  H110  1  0.60254239  -0.04548263  0.16866820  1
  H+  H111  1  0.92863617  0.85683327  0.67548918  1
  H+  H112  1  0.86271990  0.22185351  0.34663733  1
  H+  H113  1  0.38577816  0.86301537  0.18446423  1
  H+  H114  1  0.22194589  0.86535901  0.48635359  1
  H+  H115  1  0.27387120  0.89688952  0.82059880  1
  H+  H116  1  0.22628986  0.60053310  0.84173136  1
  H+  H117  1  0.37361703  0.72534474  0.15957911  1
  H+  H118  1  0.44466584  0.34820883  0.46760031  1
  H+  H119  1  0.70540579  0.85616108  0.83950977  1
  H+  H120  1  0.13209568  0.87371844  0.82919694  1
  H+  H121  1  0.89524941  0.51477144  0.65687572  1
  H+  H122  1  0.22802854  0.10868498  0.50666151  1
  H+  H123  1  0.63068056  0.24787781  0.32438395  1
  H+  H124  1  0.60219996  0.92037118  0.66994166  1
  H+  H125  1  0.60263442  0.63031574  0.49911336  1
  H+  H126  1  0.47196309  0.87325392  0.50463854  1
  H+  H127  1  0.38113709  0.77139073  0.33880745  1
  H+  H128  1  0.11410713  0.72147906  0.34667277  1
  H+  H129  1  0.38326418  0.85752685  0.58629367  1
  H+  H130  1  0.51416289  0.34044843  0.67842344  1
  H+  H131  1  0.47444561  0.12966067  -0.00815182  1
  H+  H132  1  0.62384509  0.72629589  0.01026092  1
  H+  H133  1  0.02919508  0.63498602  0.66328736  1
  H+  H134  1  0.34775855  0.35521352  0.64094539  1
  H+  H135  1  0.62998754  0.51459452  1.01148471  1
  H+  H136  1  0.01674456  0.89532609  0.00054813  1
  H+  H137  1  0.09537320  0.18525562  0.66020383  1
  H+  H138  1  0.35381162  0.47475441  0.82278760  1
  H+  H139  1  0.37083487  0.15261700  0.01440541  1
  H+  H140  1  0.76946218  0.88891095  0.00956827  1
  H+  H141  1  0.50670276  0.09286454  0.35484913  1
  H+  H142  1  0.23248935  0.11622649  0.18028568  1
  H+  H143  1  0.36013580  0.87649629  0.36843372  1
  H+  H144  1  0.36585707  0.47798382  0.16973713  1
  H+  H145  1  0.89337385  0.26201687  0.83216523  1
  H+  H146  1  0.47324028  0.61294021  0.51285710  1
  H+  H147  1  0.88355062  0.76917926  0.51963784  1
  H+  H148  1  0.62825526  0.08782948  0.33781583  1
  H+  H149  1  0.87172083  0.64163448  0.16680775  1
  H+  H150  1  0.80804425  0.90787276  0.75376643  1
  H+  H151  1  0.38042683  0.28331604  -0.00113848  1
  H+  H152  1  0.35988264  0.88101543  0.46591469  1
  H+  H153  1  0.86338440  0.39373185  0.98613641  1
  H+  H154  1  0.85708436  0.11263412  0.49474183  1
  H+  H155  1  0.37359914  0.89333536  1.01313544  1
  H+  H156  1  0.33472631  0.23356368  0.66239632  1
  H+  H157  1  0.40670721  0.32612316  0.24589287  1
  H+  H158  1  0.11321739  0.45166003  0.51889924  1
  H+  H159  1  0.10678556  0.47042388  0.67039525  1
  H+  H160  1  0.38652377  0.52475207  0.33256127  1
  H+  H161  1  0.17128647  0.08770609  0.25441945  1
  H+  H162  1  0.63023063  0.77597385  0.51273105  1
  H+  H163  1  0.37978466  0.36313376  0.83550525  1
  H+  H164  1  0.36408640  0.63733497  0.34105651  1
  H+  H165  1  0.82891546  0.50903324  0.86074591  1
  H+  H166  1  0.22278803  0.35890864  0.33429673  1
  H+  H167  1  0.14399247  0.60704045  0.99613700  1
  H+  H168  1  0.74818033  0.61404059  0.85631909  1
  H+  H169  1  0.92417668  0.08359880  0.90369125  1
  H+  H170  1  0.96297426  0.61720648  0.50508909  1
  H+  H171  1  0.66391781  0.40467103  0.30890963  1
  H+  H172  1  0.89826258  0.08010997  0.66368366  1
  H+  H173  1  0.62551432  0.87164452  0.84280613  1
  H+  H174  1  0.92099074  0.67334439  0.85708667  1
  H+  H175  1  0.83998957  0.68475008  0.25834100  1
  H+  H176  1  0.61784597  0.49030668  0.34128830  1
  H+  H177  1  0.13207796  0.08300883  0.65570430  1
  H+  H178  1  0.88064803  0.77767076  0.99596707  1
  H+  H179  1  0.67752800  0.44747982  0.66714134  1
  H+  H180  1  0.35970143  0.47719460  0.50456563  1
  H+  H181  1  0.87404387  0.12935657  0.82031004  1
  H+  H182  1  0.10928892  0.47185597  0.16166820  1
  H+  H183  1  0.14970546  0.87866453  0.65268850  1
  H+  H184  1  0.03928677  0.64028237  0.00870638  1
  H+  H185  1  0.37799444  0.98467710  0.01560959  1
  H+  H186  1  0.65769155  0.32726122  0.89631451  1
  H+  H187  1  0.88069358  0.27296084  0.65693309  1
  H+  H188  1  0.62317665  0.05950206  0.66296528  1
  H+  H189  1  0.11136080  0.46822911  0.82428879  1
  H+  H190  1  1.02659549  0.13400908  0.82343099  1
  H+  H191  1  0.77049471  0.87938328  0.16447663  1
  H+  H192  1  0.14960916  0.56886433  0.23418958  1
  H+  H193  1  0.13595975  0.60583412  0.33129607  1
  H+  H194  1  0.09968039  0.88396078  0.00095682  1
  H+  H195  1  0.99576294  0.35929886  0.17139122  1
  H+  H196  1  0.37768363  0.10781485  0.18713364  1
  H+  H197  1  0.39706014  0.61819965  0.17722118  1
  H+  H198  1  0.14246034  0.79072764  0.82592719  1
  H+  H199  1  0.80562475  0.85355457  0.67113554  1
  H+  H200  1  0.60887107  0.89307188  0.49851440  1
  H+  H201  1  0.23502673  0.04183985  0.95274871  1
  H+  H202  1  0.52568530  0.14067802  0.49510111  1
  H+  H203  1  0.73604801  0.11737228  0.82852431  1
  H+  H204  1  0.70995806  0.32886710  0.80691262  1
  H+  H205  1  0.99064287  0.86556643  0.33748109  1
  H+  H206  1  0.36321003  0.13040563  0.49178562  1
  H+  H207  1  0.40085720  0.06740242  0.28359097  1
  H+  H208  1  1.01358176  0.09144648  0.66461212  1
  H+  H209  1  0.71024278  0.88321125  0.66142956  1
  H+  H210  1  0.26902585  0.40308567  0.66860019  1
  H+  H211  1  0.85551333  0.87628065  0.50184065  1
  H+  H212  1  0.86349311  0.74391625  0.83686623  1
  H+  H213  1  0.35499300  0.12975943  0.34709477  1
  H+  H214  1  0.62506657  0.63310644  0.01566690  1
  H+  H215  1  0.07320995  0.41126360  0.73084876  1
  H+  H216  1  0.10531638  -0.03374699  0.49589317  1
  H+  H217  1  0.58003508  0.94594262  0.73346302  1
  H+  H218  1  0.39145416  0.02300819  0.48143442  1
  H+  H219  1  0.38958120  0.78300435  0.82947301  1
  H+  H220  1  0.64268177  0.06541645  0.97158929  1
  H+  H221  1  0.09550607  0.35642219  0.51907088  1
  H+  H222  1  0.83812350  0.42962643  0.81891123  1
  H+  H223  1  0.87291471  0.73379840  0.16537297  1
  H+  H224  1  0.72827843  0.20497815  0.22059466  1
  H+  H225  1  0.24971092  0.84296594  0.63489843  1
  H+  H226  1  0.49903851  0.30181272  0.69856324  1
  H+  H227  1  0.65202496  0.15542887  -0.01698955  1
  H+  H228  1  0.87664281  0.86522749  0.99753384  1
  H+  H229  1  0.87540042  0.36934736  0.66277447  1
  H+  H230  1  0.02098128  0.12405888  0.49257181  1
  H+  H231  1  0.47479087  0.36200595  0.33568033  1
  H+  H232  1  0.62924855  0.39308639  0.80245883  1
  H+  H233  1  0.86711998  0.97796156  0.66059202  1
  H+  H234  1  0.87955686  0.22582553  0.15770314  1
  H+  H235  1  0.13649441  1.02721187  0.17503836  1
  H+  H236  1  0.12899919  0.38339536  1.00907339  1
  H+  H237  1  0.77743888  0.63332889  1.01897994  1
  H+  H238  1  0.40547689  0.09229488  0.93843451  1
  H+  H239  1  0.36540610  0.70537870  0.00130516  1
  H+  H240  1  0.51903224  0.63503773  0.34630641  1
  H+  H241  1  0.11371939  0.46892328  0.34026302  1
  H+  H242  1  0.36150021  0.22463844  0.17329047  1
  H+  H243  1  0.40689968  0.58950175  0.56910699  1
  H+  H244  1  0.46475180  0.84288268  -0.00573080  1
  H+  H245  1  0.38673208  0.86946518  0.83638419  1
  H+  H246  1  0.88868904  0.86385072  0.17206095  1
  H+  H247  1  0.87642398  0.71093185  0.68426401  1
  H+  H248  1  0.73225385  0.62922492  0.32160141  1
  H+  H249  1  0.37890042  1.03255280  0.84494915  1
  H+  H250  1  0.22864214  0.11742183  0.32693781  1
  H+  H251  1  0.76682138  0.87821691  0.49801997  1
  H+  H252  1  0.11092403  0.21180427  0.49669703  1
  H+  H253  1  0.47051799  0.86065893  0.34141970  1
  H+  H254  1  0.85878759  0.35227264  0.81562197  1
  H+  H255  1  0.11038818  0.37849685  0.81973447  1
  H+  H256  1  0.82417071  0.52339397  0.82951236  1
  H+  H257  1  0.86601045  0.48095113  0.48548943  1
  H+  H258  1  0.97867591  0.35624813  0.83059310  1
  H+  H259  1  0.61332939  0.13760272  0.16905711  1
  H+  H260  1  0.22531997  0.36231798  0.83337682  1
  H+  H261  1  0.71018788  0.59686113  0.51043105  1
  H+  H262  1  0.45940809  0.63080079  0.65895022  1
  H+  H263  1  0.78581218  0.15464533  1.00198996  1
  H+  H264  1  0.78565600  0.14700379  0.16115558  1
  H+  H265  1  0.12165342  0.72242858  0.66566775  1
  H+  H266  1  0.39959398  -0.01555783  0.62789793  1
  H+  H267  1  0.12793629  0.47825082  0.01386529  1
  H+  H268  1  0.89451345  0.62296756  0.99989176  1
  H+  H269  1  0.84932347  0.62838679  0.49771431  1
  H+  H270  1  0.88199587  0.52498221  0.16595322  1
  H+  H271  1  -0.03007946  0.09766323  0.17548859  1
  H+  H272  1  0.46469747  0.10555041  0.19083035  1
  H+  H273  1  0.88961791  0.28722136  0.98995159  1
  H+  H274  1  0.64352233  0.38397706  0.94302615  1
  H+  H275  1  0.36765084  0.62219904  0.66653024  1
  H+  H276  1  0.88131024  0.48710866  0.33649762  1
  H+  H277  1  0.82804615  0.91789754  0.06979910  1
  H+  H278  1  0.65884422  0.84476838  0.56780850  1
  H+  H279  1  0.88565834  0.35845341  0.32490771  1
  H+  H280  1  0.62262367  0.26506739  0.16238765  1
  H+  H281  1  0.90712901  0.35887924  0.17138504  1
  H+  H282  1  0.35618532  0.96776676  0.17467292  1
  H+  H283  1  0.79454800  0.61428428  0.69483189  1
  H+  H284  1  0.22088435  0.85001608  0.18742400  1
  H+  H285  1  0.26646173  0.12995613  0.67127425  1
  H+  H286  1  0.86941029  0.86917542  0.84051292  1
  H+  H287  1  0.36160031  0.38728034  0.34949838  1
  H+  H288  1  0.41240615  0.83237491  0.24547587  1
  H+  H289  1  0.82032825  0.66714011  0.44373505  1
  H+  H290  1  0.54196402  0.09808032  0.11735361  1
  H+  H291  1  0.85823370  -0.02993212  0.16443963  1
  H+  H292  1  0.16810301  0.30862321  0.57590541  1
  H+  H293  1  0.60616674  0.23518451  0.49651748  1
  H+  H294  1  0.88293599  0.75549039  0.30837543  1
  H+  H295  1  0.58104694  0.92120780  0.43825808  1
  H+  H296  1  0.31952544  0.66938022  0.75151917  1
  H+  H297  1  0.70616455  0.35737826  0.14778328  1
  H+  H298  1  0.35125770  0.66442482  0.10063420  1
  H+  H299  1  0.90996092  0.88356006  0.32589177  1
  H+  H300  1  0.08542032  0.94251061  0.09463900  1
  H+  H301  1  0.68923569  0.36957747  0.25088072  1
  H+  H302  1  0.50857504  0.87110765  0.17637339  1
  H+  H303  1  0.13844029  0.27674329  -0.00806642  1
  H+  H304  1  0.16415108  0.56714961  0.93687630  1
  H+  H305  1  0.41297424  0.82676425  0.93233040  1
  H+  H306  1  0.13773325  0.27180120  0.83306323  1
  H+  H307  1  0.62830154  0.50363836  0.53081986  1
  H+  H308  1  0.83281894  0.15219264  0.42913987  1
  H+  H309  1  0.90499973  0.57442310  0.56359580  1
  H+  H310  1  0.18181972  0.82667231  0.58306348  1
  H+  H311  1  0.56303593  0.41896017  0.11492099  1
  H+  H312  1  0.06519593  0.64033313  0.75828697  1
  H+  H313  1  0.64505774  0.46773262  0.74843252  1
  H+  H314  1  0.90916767  0.06259884  0.56403063  1
  H+  H315  1  0.64615618  0.12439777  0.50532981  1
  H+  H316  1  0.84857129  0.67368646  0.78412198  1
  H+  H317  1  0.77574484  0.37693067  0.66513243  1
  H+  H318  1  0.67633025  0.11345451  0.88180137  1
  H+  H319  1  0.13943890  0.97184829  0.65495219  1
  H+  H320  1  0.07633256  0.65645831  0.40261320  1
  H+  H321  1  0.67329103  0.56933914  0.95141216  1
  H+  H322  1  0.01713150  0.89172432  0.82800592  1
  H+  H323  1  0.07788472  0.15049224  0.76050084  1
  H+  H324  1  0.93130013  0.82227244  0.60869268  1
  H+  H325  1  0.17956110  0.57480358  0.57283952  1
  H+  H326  1  0.56378864  0.88289285  0.08148572  1
  H+  H327  1  0.89761747  0.33668742  0.55653129  1
  H+  H328  1  0.00536435  0.79193798  0.39294119  1
  H+  H329  1  0.59940548  0.21058240  0.05273279  1
  H+  H330  1  0.11757267  0.34921129  0.66804398  1
  H+  H331  1  0.63694763  0.52366669  0.17932292  1
  H+  H332  1  0.84139444  0.17347315  0.06295735  1
  H+  H333  1  0.95032258  0.63470908  0.92033459  1
  H+  H334  1  0.40275233  0.33043248  0.89553851  1
  H+  H335  1  0.17081999  0.06901369  0.59291212  1
  H+  H336  1  0.61127573  0.96583464  0.34114133  1
  H+  H337  1  0.97598083  0.36463395  0.65858648  1
  H+  H338  1  0.32432269  0.16190127  0.40428145  1
  H+  H339  1  0.66115168  0.10671135  0.59995466  1
  H+  H340  1  0.91780232  0.32345718  0.26943177  1
  H+  H341  1  0.63448011  0.76869285  0.33465330  1
  H+  H342  1  0.56275144  0.69103100  0.72271365  1
  H+  H343  1  0.65442240  0.82385661  0.93722584  1
  H+  H344  1  0.33119249  0.41923493  0.76161852  1
  H+  H345  1  0.59677352  0.24802727  0.74960305  1
  H+  H346  1  0.59943516  0.67063618  0.08169084  1
  H+  H347  1  0.66369019  0.58917300  0.27032842  1
  H+  H348  1  0.91313029  0.33525855  0.92636477  1
  H+  H349  1  0.33138887  0.41861865  0.40740288  1
  H+  H350  1  0.97503343  0.85743959  0.51784844  1
  H+  H351  1  0.33535335  0.16968229  0.11160826  1
  H+  H352  1  0.38031530  0.31834413  0.58674236  1
  H+  H353  1  0.68293645  0.11198941  0.24875254  1
  H+  H354  1  0.41222684  0.06266092  0.54879950  1
  H+  H355  1  0.34299463  0.93098242  0.76729161  1
  H+  H356  1  0.83162719  0.39425491  0.72891805  1
  H+  H357  1  0.77123291  0.48047408  0.10333336  1
  H+  H358  1  0.91319632  0.08038192  0.26971938  1
  H+  H359  1  0.16046726  0.81769351  0.24544029  1
  H+  H360  1  0.57397353  0.13358032  0.40913062  1
  H+  H361  1  0.16197837  0.33537817  0.93234602  1
  H+  H362  1  0.83370336  0.91295497  0.39975131  1
  H+  H363  1  0.11633979  0.72562878  0.16493939  1
  H+  H364  1  0.50417075  0.36129073  0.52813865  1
  H+  H365  1  0.22469217  0.60933284  0.67022995  1
  H+  H366  1  0.45939529  0.08252056  0.64429200  1
  H+  H367  1  0.37890121  0.43489691  -0.01132220  1
  H+  H368  1  0.17592870  0.08249799  0.88841102  1
  H+  H369  1  0.81151689  0.43277536  0.06959853  1
  H+  H370  1  0.15477489  0.83494024  0.92806883  1
  H+  H371  1  0.35743311  0.38606684  0.17083181  1
  H+  H372  1  0.57688689  0.66565517  0.44124426  1
  H+  H373  1  0.48263156  0.61219246  0.17940361  1
  H+  H374  1  0.13404157  0.86894311  0.50255893  1
  H+  H375  1  0.33970247  0.91501721  0.11327732  1
  H+  H376  1  0.65150909  0.59869772  0.59198219  1
  H+  H377  1  0.79726026  0.96600331  0.80389661  1
  H+  H378  1  0.61003241  0.63799686  0.34693124  1
  H+  H379  1  0.07465992  0.15471585  0.10446049  1
  H+  H380  1  0.42000316  0.58499120  0.27273769  1
  H+  H381  1  0.66473748  0.82180260  0.24011121  1
  H+  H382  1  0.10008147  0.67360175  0.06606221  1
  H+  H383  1  0.08458551  0.16045307  0.39627405  1
  O2-  O384  1  0.06306228  0.14341887  0.14833396  1
  O2-  O385  1  0.08151511  0.15287441  0.47842720  1
  O2-  O386  1  0.08500331  0.16383786  0.80470285  1
  O2-  O387  1  0.08680049  0.41089064  0.14448403  1
  O2-  O388  1  0.06692916  0.39121161  0.52118142  1
  O2-  O389  1  0.07909978  0.40870678  0.80502101  1
  O2-  O390  1  0.08812297  0.66887548  0.14180272  1
  O2-  O391  1  0.06750977  0.67588688  0.48627327  1
  O2-  O392  1  0.04581082  0.61413343  0.79997732  1
  O2-  O393  1  0.08575210  0.94754024  0.13961920  1
  O2-  O394  1  0.07257654  0.90312999  0.48985904  1
  O2-  O395  1  0.07438494  0.91502731  0.80938804  1
  O2-  O396  1  0.33242741  0.16391118  0.15684036  1
  O2-  O397  1  0.33175937  0.16209199  0.48242185  1
  O2-  O398  1  0.33071176  0.17949083  0.79825369  1
  O2-  O399  1  0.33113293  0.41844141  0.15423665  1
  O2-  O400  1  0.33015924  0.41541408  0.49109665  1
  O2-  O401  1  0.32676693  0.41381665  0.80659892  1
  O2-  O402  1  0.35501467  0.66664233  0.14572159  1
  O2-  O403  1  0.34503216  0.67791580  0.48035654  1
  O2-  O404  1  0.31533992  0.65506217  0.82880048  1
  O2-  O405  1  0.33230864  0.90857910  0.15863225  1
  O2-  O406  1  0.32888345  0.91154574  0.45002392  1
  O2-  O407  1  0.33701419  0.92504373  0.81137577  1
  O2-  O408  1  0.56959009  0.14602790  0.14588232  1
  O2-  O409  1  0.58901705  0.17568118  0.48633709  1
  O2-  O410  1  0.58796692  0.23917503  0.79464018  1
  O2-  O411  1  0.57329574  0.41979439  0.15949961  1
  O2-  O412  1  0.58707427  0.40446311  0.55121743  1
  O2-  O413  1  0.61761576  0.44209068  0.79182267  1
  O2-  O414  1  0.59506265  0.66805057  0.14326621  1
  O2-  O415  1  0.57710469  0.66579845  0.48701775  1
  O2-  O416  1  0.55660950  0.68492488  0.79973872  1
  O2-  O417  1  0.56914574  0.89417671  0.15704479  1
  O2-  O418  1  0.58073761  0.92568059  0.48382050  1
  O2-  O419  1  0.58752592  0.93021696  0.81191986  1
  O2-  O420  1  0.84194103  0.16591300  0.14183952  1
  O2-  O421  1  0.82800669  0.14510097  0.47717939  1
  O2-  O422  1  0.84479538  0.16064328  0.80552651  1
  O2-  O423  1  0.79423886  0.44244586  0.11128699  1
  O2-  O424  1  0.84266966  0.42130317  0.46847823  1
  O2-  O425  1  0.82080263  0.37561237  0.79720580  1
  O2-  O426  1  0.83779665  0.67034329  0.15546641  1
  O2-  O427  1  0.81890382  0.66129071  0.48794045  1
  O2-  O428  1  0.84580457  0.68098975  0.82903013  1
  O2-  O429  1  0.82923476  0.91022823  0.14650508  1
  O2-  O430  1  0.82757197  0.90605128  0.48270826  1
  O2-  O431  1  0.80766173  0.91763118  0.80206135  1
  O2-  O432  1  0.17188182  0.08681558  0.19701762  1
  O2-  O433  1  0.16755212  0.07612818  0.52246172  1
  O2-  O434  1  0.17166624  0.08539416  0.84325009  1
  O2-  O435  1  0.17086383  0.34899954  0.19156445  1
  O2-  O436  1  0.16508738  0.31101697  0.53146216  1
  O2-  O437  1  0.16374482  0.33196682  0.84763759  1
  O2-  O438  1  0.13963780  0.56002802  0.18976208  1
  O2-  O439  1  0.18676647  0.56668001  0.52813808  1
  O2-  O440  1  0.16005386  0.56208636  0.85631880  1
  O2-  O441  1  0.16029646  0.81589822  0.20055664  1
  O2-  O442  1  0.16828932  0.83760429  0.51073879  1
  O2-  O443  1  0.16943115  0.84855631  0.84259233  1
  O2-  O444  1  0.40472277  0.07560258  0.20510968  1
  O2-  O445  1  0.41833182  0.07789931  0.50417338  1
  O2-  O446  1  0.39847368  0.08812617  0.86549151  1
  O2-  O447  1  0.40649793  0.32325791  0.20049604  1
  O2-  O448  1  0.43741776  0.33341778  0.51075719  1
  O2-  O449  1  0.40584113  0.32900551  0.85079686  1
  O2-  O450  1  0.42475748  0.58643055  0.19701606  1
  O2-  O451  1  0.41082575  0.58354089  0.52409822  1
  O2-  O452  1  0.39355044  0.57050798  0.85036120  1
  O2-  O453  1  0.41800991  0.83419112  0.20039397  1
  O2-  O454  1  0.40872540  0.84307160  0.51321437  1
  O2-  O455  1  0.41899868  0.84005090  0.84918673  1
  O2-  O456  1  0.69667798  0.14476624  0.20808322  1
  O2-  O457  1  0.67417656  0.09196389  0.52093022  1
  O2-  O458  1  0.67509555  0.09490162  0.83951971  1
  O2-  O459  1  0.65365549  0.32624212  0.17348485  1
  O2-  O460  1  0.63275505  0.35744531  0.53281111  1
  O2-  O461  1  0.65321296  0.32291999  0.81926182  1
  O2-  O462  1  0.66895567  0.58589605  0.19163480  1
  O2-  O463  1  0.65036526  0.56828833  0.52609487  1
  O2-  O464  1  0.68751089  0.57212529  0.87050717  1
  O2-  O465  1  0.66464403  0.82151897  0.19415196  1
  O2-  O466  1  0.66257669  0.83847974  0.52262588  1
  O2-  O467  1  0.64723784  0.83241999  0.85783653  1
  O2-  O468  1  0.90883037  0.06959371  0.19255507  1
  O2-  O469  1  0.90820711  0.06906299  0.51884114  1
  O2-  O470  1  0.92624837  0.08135762  0.85754535  1
  O2-  O471  1  0.93298904  0.32664497  0.18761598  1
  O2-  O472  1  0.90780793  0.34345402  0.51231909  1
  O2-  O473  1  0.91656062  0.32360142  0.84403632  1
  O2-  O474  1  0.91731550  0.58254847  0.18377540  1
  O2-  O475  1  0.90203667  0.57790523  0.51831986  1
  O2-  O476  1  0.97043213  0.66914419  0.87737794  1
  O2-  O477  1  0.92349649  0.83724957  0.18499474  1
  O2-  O478  1  0.91550510  0.82784057  0.53729827  1
  O2-  O479  1  0.90094267  0.84127081  0.85587229  1
  O2-  O480  1  0.16966267  0.08988021  0.30755462  1
  O2-  O481  1  0.17011799  0.06123080  0.63952533  1
  O2-  O482  1  0.19620182  0.06327214  0.96297419  1
  O2-  O483  1  0.16307086  0.32560371  0.31868945  1
  O2-  O484  1  0.14947903  0.31675680  0.66343828  1
  O2-  O485  1  0.16260899  0.33669785  0.97738762  1
  O2-  O486  1  0.16447905  0.57507399  0.31454690  1
  O2-  O487  1  0.16802415  0.57644655  0.64833354  1
  O2-  O488  1  0.16847846  0.57060161  0.98228137  1
  O2-  O489  1  0.15706041  0.82038703  0.33059019  1
  O2-  O490  1  0.18785333  0.82358339  0.62877938  1
  O2-  O491  1  0.14475687  0.83346794  0.97221028  1
  O2-  O492  1  0.40216211  0.07070012  0.32904929  1
  O2-  O493  1  0.40739667  0.04287678  0.62235257  1
  O2-  O494  1  0.41207149  0.09623008  0.98447188  1
  O2-  O495  1  0.41299529  0.33197377  0.32459769  1
  O2-  O496  1  0.33989069  0.30189071  0.62093050  1
  O2-  O497  1  0.40995648  0.34352735  0.98124726  1
  O2-  O498  1  0.41871125  0.58583808  0.31867632  1
  O2-  O499  1  0.39766931  0.59459361  0.64659404  1
  O2-  O500  1  0.40849089  0.53786492  0.97104230  1
  O2-  O501  1  0.40874897  0.83476761  0.32958460  1
  O2-  O502  1  0.39871570  0.84715336  0.67556427  1
  O2-  O503  1  0.40641707  0.81717623  0.97696296  1
  O2-  O504  1  0.66872196  0.07300269  0.31471241  1
  O2-  O505  1  0.65874536  0.11785421  0.64425630  1
  O2-  O506  1  0.68337499  0.12651601  0.96713809  1
  O2-  O507  1  0.71274790  0.40687997  0.28683487  1
  O2-  O508  1  0.68173585  0.34622511  0.64551128  1
  O2-  O509  1  0.66557138  0.34437607  0.94045825  1
  O2-  O510  1  0.66908360  0.59316563  0.31572550  1
  O2-  O511  1  0.65645853  0.61568315  0.63733129  1
  O2-  O512  1  0.66840504  0.57449324  0.99600221  1
  O2-  O513  1  0.66407859  0.82798592  0.31660930  1
  O2-  O514  1  0.65111981  0.86258750  0.64362863  1
  O2-  O515  1  0.65982258  0.82031476  0.98234570  1
  O2-  O516  1  0.91467293  0.08397389  0.31550029  1
  O2-  O517  1  0.91361000  0.04266934  0.64166641  1
  O2-  O518  1  0.92065288  0.08633756  0.97891583  1
  O2-  O519  1  0.90935873  0.32044201  0.31427934  1
  O2-  O520  1  0.91340196  0.33530076  0.64290827  1
  O2-  O521  1  0.90914996  0.34377742  0.97044052  1
  O2-  O522  1  0.92664092  0.58880829  0.30631169  1
  O2-  O523  1  0.92300317  0.57465682  0.64159581  1
  O2-  O524  1  0.92659736  0.59845288  0.97779274  1
  O2-  O525  1  0.94300655  0.85888127  0.30720056  1
  O2-  O526  1  0.94490144  0.81950759  0.65388758  1
  O2-  O527  1  0.90556250  0.83588354  0.97783013  1
  O2-  O528  1  0.08674255  0.16940662  0.02081407  1
  O2-  O529  1  0.08465719  0.16248812  0.35100834  1
  O2-  O530  1  0.07507339  0.12872274  0.67913725  1
  O2-  O531  1  0.10249281  0.41758413  0.03093155  1
  O2-  O532  1  0.08558731  0.40887184  0.35600605  1
  O2-  O533  1  0.07012857  0.40934400  0.68454060  1
  O2-  O534  1  0.10040391  0.67012474  0.02013388  1
  O2-  O535  1  0.08108985  0.65769999  0.35792008  1
  O2-  O536  1  0.08673305  0.66387787  0.68353519  1
  O2-  O537  1  0.07738403  0.92325081  0.01439564  1
  O2-  O538  1  0.04637544  0.85180172  0.38328015  1
  O2-  O539  1  0.11583269  0.90720729  0.66852160  1
  O2-  O540  1  0.34053557  0.18299670  0.03104678  1
  O2-  O541  1  0.32561764  0.16287541  0.35862204  1
  O2-  O542  1  0.32299969  0.17820857  0.68624487  1
  O2-  O543  1  0.35319259  0.37375826  0.00458390  1
  O2-  O544  1  0.33222717  0.41934792  0.36225656  1
  O2-  O545  1  0.33013715  0.42928600  0.67946338  1
  O2-  O546  1  0.34113679  0.64711299  0.01913286  1
  O2-  O547  1  0.33239471  0.66667967  0.35560090  1
  O2-  O548  1  0.31951890  0.67188367  0.70580393  1
  O2-  O549  1  0.36630399  0.93353771  0.03962083  1
  O2-  O550  1  0.32554983  0.90504050  0.38271221  1
  O2-  O551  1  0.36451235  0.87463810  0.62499406  1
  O2-  O552  1  0.59315091  0.19965493  0.00889091  1
  O2-  O553  1  0.55776257  0.09492562  0.37367688  1
  O2-  O554  1  0.62129214  0.25898546  0.66966505  1
  O2-  O555  1  0.55786436  0.41395516  0.03581823  1
  O2-  O556  1  0.58818389  0.42722708  0.35150493  1
  O2-  O557  1  0.68646760  0.49854144  0.69069444  1
  O2-  O558  1  0.59924556  0.66805441  0.03153036  1
  O2-  O559  1  0.57920147  0.66672576  0.36348270  1
  O2-  O560  1  0.56318394  0.69234228  0.67719950  1
  O2-  O561  1  0.56820875  0.88535028  0.03563200  1
  O2-  O562  1  0.57895730  0.90788483  0.36028740  1
  O2-  O563  1  0.57295399  0.94988326  0.68851700  1
  O2-  O564  1  0.84506031  0.17737233  0.01752108  1
  O2-  O565  1  0.83549537  0.16132762  0.36303874  1
  O2-  O566  1  0.81630437  0.17532387  0.67926714  1
  O2-  O567  1  0.83320333  0.42890578  -0.00454168  1
  O2-  O568  1  0.84571928  0.42591407  0.35028386  1
  O2-  O569  1  0.83710844  0.40373266  0.68233035  1
  O2-  O570  1  0.83952507  0.66848062  0.02926411  1
  O2-  O571  1  0.84645997  0.69019575  0.30262609  1
  O2-  O572  1  0.85422517  0.65547426  0.70658965  1
  O2-  O573  1  0.82986211  0.92099439  0.02393803  1
  O2-  O574  1  0.83363935  0.91508030  0.35460784  1
  O2-  O575  1  0.80667166  0.90420168  0.68768759  1
