# generated using pymatgen
data_H2O
_symmetry_space_group_name_H-M   'P 1'
_cell_length_a   17.98831439
_cell_length_b   17.99522825
_cell_length_c   22.00428903
_cell_angle_alpha   90.00107307
_cell_angle_beta   90.02066928
_cell_angle_gamma   119.99459619
_symmetry_Int_Tables_number   1
_chemical_formula_structural   H2O
_chemical_formula_sum   'H384 O192'
_cell_volume   6168.92382531
_cell_formula_units_Z   192
loop_
 _symmetry_equiv_pos_site_id
 _symmetry_equiv_pos_as_xyz
  1  'x, y, z'
loop_
 _atom_type_symbol
 _atom_type_oxidation_number
  H+  1.0
  O2-  -2.0
loop_
 _atom_site_type_symbol
 _atom_site_label
 _atom_site_symmetry_multiplicity
 _atom_site_fract_x
 _atom_site_fract_y
 _atom_site_fract_z
 _atom_site_occupancy
  H+  H0  1  0.85278214  0.48918667  0.82881148  1
  H+  H1  1  0.66866214  0.98329649  0.48228186  1
  H+  H2  1  0.97280941  0.36451785  0.53309615  1
  H+  H3  1  0.60512782  0.72539602  0.69375654  1
  H+  H4  1  0.71872308  0.11752401  0.32317787  1
  H+  H5  1  1.02393026  0.63230465  0.33719488  1
  H+  H6  1  0.25385801  0.89149573  0.48107253  1
  H+  H7  1  0.57288845  0.16710208  0.75499145  1
  H+  H8  1  0.77771746  0.90668187  0.47493740  1
  H+  H9  1  0.65521429  0.34015260  0.93937829  1
  H+  H10  1  0.60371311  0.67660476  0.86556396  1
  H+  H11  1  0.63664125  0.51971868  0.17471860  1
  H+  H12  1  0.36091030  0.13723794  0.00220980  1
  H+  H13  1  0.03116332  0.15209387  0.33822533  1
  H+  H14  1  0.42851174  -0.00750204  0.21184822  1
  H+  H15  1  0.15585419  0.86757939  0.49820454  1
  H+  H16  1  0.63041957  0.53143330  0.99531865  1
  H+  H17  1  0.89331886  0.11458561  0.64395941  1
  H+  H18  1  0.90559818  0.58716595  0.90859056  1
  H+  H19  1  0.85249146  0.50131334  0.01506620  1
  H+  H20  1  0.13337227  0.36759238  0.50935074  1
  H+  H21  1  0.01943631  0.12621089  0.00251133  1
  H+  H22  1  0.87184251  0.23843269  0.38805781  1
  H+  H23  1  0.40158136  0.40467846  0.53043414  1
  H+  H24  1  0.85389570  0.71533987  0.50056703  1
  H+  H25  1  0.64345696  0.27442780  0.50843721  1
  H+  H26  1  0.15611744  0.14265573  0.49657727  1
  H+  H27  1  0.37939162  0.27227140  0.99150822  1
  H+  H28  1  0.61189873  0.13152701  0.50143921  1
  H+  H29  1  0.87670661  0.52202344  0.17748654  1
  H+  H30  1  0.45433527  0.33349306  0.61459585  1
  H+  H31  1  0.44373586  0.60061475  0.83251886  1
  H+  H32  1  0.52339703  0.89407295  0.83851848  1
  H+  H33  1  0.38220318  0.60537782  0.17124938  1
  H+  H34  1  0.38782486  0.77265120  0.84648448  1
  H+  H35  1  -0.02383429  0.35866081  0.32985250  1
  H+  H36  1  0.02925476  0.89159773  0.83351026  1
  H+  H37  1  0.12672159  0.61723974  0.84320505  1
  H+  H38  1  0.28481726  0.38592478  0.34205474  1
  H+  H39  1  0.84135333  0.32921984  -0.05325857  1
  H+  H40  1  0.48011670  0.89871237  0.18675841  1
  H+  H41  1  0.10700815  0.20675811  0.82306866  1
  H+  H42  1  1.00347403  0.39212925  0.97971205  1
  H+  H43  1  0.37240172  0.51583211  0.98745682  1
  H+  H44  1  0.63494984  0.77556657  0.17910423  1
  H+  H45  1  0.11366327  0.26534379  0.98961046  1
  H+  H46  1  0.91078408  0.22141522  -0.04214101  1
  H+  H47  1  0.41592087  0.08739212  0.92680165  1
  H+  H48  1  0.51824156  0.62801764  0.19713407  1
  H+  H49  1  0.65140336  0.79043031  0.32108478  1
  H+  H50  1  0.61184325  0.97928673  0.16269787  1
  H+  H51  1  0.60055291  0.62299375  0.48774752  1
  H+  H52  1  0.63111429  0.61428217  -0.03234490  1
  H+  H53  1  0.26119018  0.64041106  0.83512573  1
  H+  H54  1  0.59841558  -0.03186112  1.01884819  1
  H+  H55  1  0.22544278  0.33773482  0.83349714  1
  H+  H56  1  0.63666271  0.03166670  0.83943513  1
  H+  H57  1  0.35633894  0.63459193  1.00128138  1
  H+  H58  1  0.88961572  0.60845454  0.33387462  1
  H+  H59  1  0.39676355  0.04988635  0.33842257  1
  H+  H60  1  0.15853911  0.08169169  0.22398850  1
  H+  H61  1  0.86157153  0.63092602  0.50588145  1
  H+  H62  1  0.32427635  0.66603200  0.77631650  1
  H+  H63  1  0.89233797  1.00553794  0.83756861  1
  H+  H64  1  0.10484825  0.72240390  0.16109147  1
  H+  H65  1  0.78020114  0.62837937  0.34546416  1
  H+  H66  1  0.47307903  0.11650912  0.98784330  1
  H+  H67  1  0.15671754  0.11192506  0.66276309  1
  H+  H68  1  0.12436854  0.39670208  0.67098617  1
  H+  H69  1  0.64538336  0.27748540  0.34313666  1
  H+  H70  1  0.62308810  0.36431634  0.16130433  1
  H+  H71  1  0.15989470  0.57672858  0.26535966  1
  H+  H72  1  0.35978820  0.47326029  0.15839056  1
  H+  H73  1  0.88614257  0.87308570  0.65364962  1
  H+  H74  1  0.63376322  0.12218282  0.32887616  1
  H+  H75  1  0.11519957  0.83903602  0.67134041  1
  H+  H76  1  0.63466928  0.60573658  0.19276540  1
  H+  H77  1  0.18128899  0.83600522  0.40216880  1
  H+  H78  1  0.22582029  0.11620306  0.98866302  1
  H+  H79  1  0.46623141  0.86113434  0.00230884  1
  H+  H80  1  0.71503315  0.59764602  0.50847091  1
  H+  H81  1  0.44548949  0.12732770  0.66831132  1
  H+  H82  1  0.59989842  0.46195959  0.81718819  1
  H+  H83  1  0.05955911  0.69997304  0.67529301  1
  H+  H84  1  0.13869550  0.28154007  0.50257387  1
  H+  H85  1  0.85831432  0.10188396  0.81344754  1
  H+  H86  1  0.89535073  -0.00075565  0.98862035  1
  H+  H87  1  0.12455857  0.01354582  0.31427594  1
  H+  H88  1  0.52111533  0.13436399  0.16450802  1
  H+  H89  1  0.15493044  0.05173101  0.49375769  1
  H+  H90  1  0.73523095  0.12054031  0.50365641  1
  H+  H91  1  0.62902170  0.86373536  0.67282814  1
  H+  H92  1  0.62435119  0.37586621  0.34351041  1
  H+  H93  1  0.09821218  0.72295437  0.82598705  1
  H+  H94  1  0.36004301  0.97049900  0.84003913  1
  H+  H95  1  0.86798423  0.87223054  0.82792751  1
  H+  H96  1  0.32008358  0.94231637  0.69784586  1
  H+  H97  1  0.08038504  0.65673407  0.43222529  1
  H+  H98  1  1.02306536  0.88940070  0.67130628  1
  H+  H99  1  0.67181598  0.60698200  0.83383669  1
  H+  H100  1  0.36283952  0.88147176  0.84503428  1
  H+  H101  1  0.57749504  0.67684452  0.38757837  1
  H+  H102  1  0.88085694  0.63179806  1.00122646  1
  H+  H103  1  0.33025737  0.73489905  0.57810451  1
  H+  H104  1  0.53134832  0.15040994  0.35316949  1
  H+  H105  1  0.63172431  1.02261031  0.66015541  1
  H+  H106  1  0.34042471  0.71481817  0.48497155  1
  H+  H107  1  0.61857651  0.37960360  0.48699606  1
  H+  H108  1  0.36066586  0.37810643  0.82209787  1
  H+  H109  1  0.64295007  0.63290191  0.67030049  1
  H+  H110  1  0.37908319  0.16655744  0.35820511  1
  H+  H111  1  0.21939114  0.85335859  0.84779547  1
  H+  H112  1  0.62607277  0.26889457  0.16592325  1
  H+  H113  1  1.02020609  0.90102482  1.00922232  1
  H+  H114  1  0.40099241  0.28904467  0.33439245  1
  H+  H115  1  0.39966508  0.83769433  0.63253247  1
  H+  H116  1  0.37607271  0.93275870  0.48915991  1
  H+  H117  1  0.13666432  0.35803391  0.17667717  1
  H+  H118  1  0.32281486  0.91276675  0.04894261  1
  H+  H119  1  0.11020144  0.48630533  0.50824478  1
  H+  H120  1  0.11315861  0.88281794  0.82757519  1
  H+  H121  1  0.52158621  0.89324614  0.68918613  1
  H+  H122  1  0.52614910  0.14026930  0.50484254  1
  H+  H123  1  0.46746619  0.35369575  0.83522175  1
  H+  H124  1  0.96786255  0.62478390  1.00344059  1
  H+  H125  1  0.87691880  0.36725182  0.79144616  1
  H+  H126  1  0.53087144  0.38314361  0.33902921  1
  H+  H127  1  0.78706588  0.65679003  0.68355421  1
  H+  H128  1  0.12736419  0.23096497  0.33569153  1
  H+  H129  1  0.59408280  0.37245834  0.80930941  1
  H+  H130  1  0.13680413  0.11677306  0.98736346  1
  H+  H131  1  0.12586244  0.72831325  0.48222956  1
  H+  H132  1  0.86697121  0.39037554  0.51129381  1
  H+  H133  1  0.91924592  0.35579511  0.70523920  1
  H+  H134  1  0.59778715  0.39339801  0.00833891  1
  H+  H135  1  0.87843032  0.27081401  0.17265351  1
  H+  H136  1  0.37120367  0.61107684  0.32515786  1
  H+  H137  1  0.35742625  0.60362963  0.83687239  1
  H+  H138  1  0.13316946  0.61165728  0.17443564  1
  H+  H139  1  0.73865058  0.89375994  0.85033223  1
  H+  H140  1  0.11016282  0.22360886  0.15585815  1
  H+  H141  1  0.28832117  0.11945429  0.66456434  1
  H+  H142  1  0.26185447  0.14899616  0.50610893  1
  H+  H143  1  0.35323318  0.73208772  0.33676272  1
  H+  H144  1  0.38246063  0.27546346  0.17313239  1
  H+  H145  1  0.35587274  -0.02315808  0.99185818  1
  H+  H146  1  0.87198934  0.48177412  0.50850609  1
  H+  H147  1  0.60858793  -0.02117269  0.33521797  1
  H+  H148  1  0.87138088  0.78720163  0.00798359  1
  H+  H149  1  0.12159124  0.47356468  0.33052599  1
  H+  H150  1  0.15179071  0.36097499  0.31790851  1
  H+  H151  1  0.11308268  -0.01507307  1.00212760  1
  H+  H152  1  0.14055147  0.61583927  0.50808252  1
  H+  H153  1  0.03176717  0.98404882  0.45277456  1
  H+  H154  1  0.15092638  0.82322730  0.90128089  1
  H+  H155  1  0.77174956  0.63748001  0.16275912  1
  H+  H156  1  0.37507880  0.73153498  0.69218484  1
  H+  H157  1  0.41311612  0.80824246  0.54643995  1
  H+  H158  1  0.28849986  0.91154777  0.34769240  1
  H+  H159  1  0.72433301  0.11686143  0.16720992  1
  H+  H160  1  0.07156107  0.30956718  0.95442823  1
  H+  H161  1  0.62630595  0.25817524  0.83629118  1
  H+  H162  1  0.13778072  0.27293418  0.66104156  1
  H+  H163  1  0.18069680  0.59161959  0.56817602  1
  H+  H164  1  0.51004859  0.62433530  -0.04551009  1
  H+  H165  1  0.63037679  0.74778085  0.51265496  1
  H+  H166  1  0.36976493  0.24238032  0.53084219  1
  H+  H167  1  0.16403566  0.33165869  0.60133332  1
  H+  H168  1  1.03289310  0.13500706  0.66450522  1
  H+  H169  1  0.27220022  0.12999142  0.81736078  1
  H+  H170  1  0.85053962  0.10139145  0.00446329  1
  H+  H171  1  0.48934232  0.86050357  0.47615907  1
  H+  H172  1  0.26095118  0.62300847  0.48792513  1
  H+  H173  1  0.96293707  0.86317776  0.50172270  1
  H+  H174  1  1.02366511  0.38575621  0.16212852  1
  H+  H175  1  0.34172022  -0.03710572  0.13902725  1
  H+  H176  1  0.38830061  0.88109055  0.33794096  1
  H+  H177  1  0.27418770  0.39585172  0.66822065  1
  H+  H178  1  0.16138263  0.53658994  0.65387831  1
  H+  H179  1  0.10566464  0.11840966  0.81936172  1
  H+  H180  1  0.64982721  0.88764183  0.48666099  1
  H+  H181  1  0.22607373  0.35883858  0.16808120  1
  H+  H182  1  0.14699190  0.77460398  0.34584752  1
  H+  H183  1  0.38650856  0.36574973  0.17074420  1
  H+  H184  1  0.59750479  0.13469890  0.66365832  1
  H+  H185  1  0.60652629  0.46345809  0.48736641  1
  H+  H186  1  0.52033834  0.63408079  0.69227695  1
  H+  H187  1  0.14661722  0.41019067  0.02278704  1
  H+  H188  1  0.58246933  0.66479599  0.25255659  1
  H+  H189  1  0.60617388  0.88699656  0.16536422  1
  H+  H190  1  0.60914964  0.22836323  0.66607006  1
  H+  H191  1  0.86152794  0.72716547  0.16292461  1
  H+  H192  1  1.02703916  0.87560891  0.33900378  1
  H+  H193  1  0.34793879  0.46072336  0.82099198  1
  H+  H194  1  0.60932119  0.23538658  0.00857100  1
  H+  H195  1  0.86012533  0.21677291  0.67141497  1
  H+  H196  1  0.76741003  0.11180974  1.00040735  1
  H+  H197  1  0.50892473  0.65272614  0.33542849  1
  H+  H198  1  1.04699948  0.41798975  0.67327063  1
  H+  H199  1  0.37944500  0.52534316  0.33179683  1
  H+  H200  1  0.65252088  0.51921478  0.33133991  1
  H+  H201  1  0.10250223  0.72753540  0.01124280  1
  H+  H202  1  0.60625998  0.13672359  0.81266999  1
  H+  H203  1  0.40392535  0.09244215  0.57077505  1
  H+  H204  1  0.87927939  0.14799631  0.48072973  1
  H+  H205  1  0.37441867  0.85808064  0.69554761  1
  H+  H206  1  0.88826783  0.27655851  0.52127524  1
  H+  H207  1  0.13402392  0.02502136  0.16357160  1
  H+  H208  1  0.09849054  0.48013253  0.82700621  1
  H+  H209  1  0.38585429  0.52430769  0.66766219  1
  H+  H210  1  0.12077261  0.88513697  0.35064909  1
  H+  H211  1  0.65074108  0.82248084  0.61499071  1
  H+  H212  1  0.87958685  0.66267692  0.68579615  1
  H+  H213  1  0.01718577  0.63168599  0.16371778  1
  H+  H214  1  0.26034571  0.38088508  1.00148629  1
  H+  H215  1  0.51745023  0.38028379  0.16163670  1
  H+  H216  1  0.14174398  1.01906453  0.83541095  1
  H+  H217  1  0.37691798  0.86053440  0.99014269  1
  H+  H218  1  0.61090803  0.84331148  1.00226762  1
  H+  H219  1  0.59478879  0.71632839  -0.03850761  1
  H+  H220  1  0.22172877  0.60736744  0.32362658  1
  H+  H221  1  0.88801779  0.86236883  0.17844235  1
  H+  H222  1  0.83357326  0.30600882  0.97675004  1
  H+  H223  1  1.02125290  0.88856760  0.15851415  1
  H+  H224  1  0.07947731  0.92057270  0.09778387  1
  H+  H225  1  0.89953288  0.78614518  0.85413454  1
  H+  H226  1  0.79680136  0.90472574  0.32820514  1
  H+  H227  1  0.89092049  1.02577159  0.64709344  1
  H+  H228  1  0.84982644  0.38045423  0.16327080  1
  H+  H229  1  0.76613363  0.64981132  0.00767325  1
  H+  H230  1  0.51165703  0.87574635  0.50660426  1
  H+  H231  1  0.62480481  0.11483705  -0.00234305  1
  H+  H232  1  0.37110375  0.15510063  0.51073990  1
  H+  H233  1  0.03558539  0.14601702  0.48789052  1
  H+  H234  1  0.72537719  0.37563270  0.65913810  1
  H+  H235  1  0.89814630  0.04641515  0.32573250  1
  H+  H236  1  0.97793621  0.09667046  0.83578438  1
  H+  H237  1  0.86842725  0.47712522  0.34829362  1
  H+  H238  1  0.12702192  0.85700554  0.16527096  1
  H+  H239  1  0.71512616  0.38097086  0.99810635  1
  H+  H240  1  0.97408220  1.11597917  0.16830524  1
  H+  H241  1  0.38198598  0.04111289  0.50498008  1
  H+  H242  1  0.76877620  0.89160250  0.67221215  1
  H+  H243  1  0.27507714  0.63069345  0.16043757  1
  H+  H244  1  0.85848455  0.13453131  0.15659193  1
  H+  H245  1  0.87388619  0.42976005  0.67349424  1
  H+  H246  1  0.22700991  0.62563934  -0.00488332  1
  H+  H247  1  0.37759595  0.39581754  0.34614069  1
  H+  H248  1  0.65725012  0.80364979  0.84917946  1
  H+  H249  1  0.86739647  0.65468094  0.83954932  1
  H+  H250  1  0.89627527  0.13258665  0.33905913  1
  H+  H251  1  0.72144975  0.36316019  0.16603268  1
  H+  H252  1  0.21077267  0.85017173  0.15791787  1
  H+  H253  1  0.24917827  0.62419675  0.65809993  1
  H+  H254  1  0.61776448  0.90379918  0.83863885  1
  H+  H255  1  0.50836693  0.39185981  0.00853709  1
  H+  H256  1  0.89057394  0.76424626  0.33525353  1
  H+  H257  1  0.76530702  0.39928085  0.82039438  1
  H+  H258  1  0.13390273  0.52267639  0.17828377  1
  H+  H259  1  0.58302651  0.35635619  0.65998715  1
  H+  H260  1  0.46977795  0.10743045  0.83063970  1
  H+  H261  1  0.35094566  0.13767500  0.16073865  1
  H+  H262  1  0.34767526  0.37805395  -0.00008575  1
  H+  H263  1  0.77419762  0.11252191  0.80847619  1
  H+  H264  1  0.73344678  0.36876771  0.34313931  1
  H+  H265  1  0.89633875  0.85704014  0.32932891  1
  H+  H266  1  0.00315037  0.42434274  0.00129210  1
  H+  H267  1  0.98750878  0.62125672  0.51301203  1
  H+  H268  1  0.89711940  0.03355461  0.49278382  1
  H+  H269  1  0.13420387  0.61936433  -0.00062807  1
  H+  H270  1  0.37991831  0.26471747  0.83656775  1
  H+  H271  1  0.51704663  0.63282690  0.49318864  1
  H+  H272  1  0.37486649  0.64084755  0.68646638  1
  H+  H273  1  0.15865472  0.59037716  0.90355986  1
  H+  H274  1  0.88055842  0.61274574  0.17546035  1
  H+  H275  1  0.36102325  0.72620461  1.00653128  1
  H+  H276  1  0.27354734  0.39479383  0.49862096  1
  H+  H277  1  0.65100422  0.87697156  0.31901752  1
  H+  H278  1  0.38638953  0.61718493  0.50899139  1
  H+  H279  1  0.86701628  0.97596847  0.15633678  1
  H+  H280  1  0.77911675  0.88807964  0.15187199  1
  H+  H281  1  0.73261497  0.36578407  0.50831044  1
  H+  H282  1  0.18835808  0.81665530  0.68411772  1
  H+  H283  1  0.88887284  0.78584468  0.66082189  1
  H+  H284  1  0.12628114  0.86455939  0.99220972  1
  H+  H285  1  0.21474357  0.86313364  0.98791064  1
  H+  H286  1  0.61192062  0.13893936  0.15981235  1
  H+  H287  1  0.37996840  0.10554337  0.83255462  1
  H+  H288  1  0.82333668  0.41937881  0.10538672  1
  H+  H289  1  0.66291000  0.84489153  0.94439561  1
  H+  H290  1  0.92203000  0.85223838  0.91108756  1
  H+  H291  1  0.35568018  0.20613093  0.41460460  1
  H+  H292  1  0.60578557  0.68132889  0.79048943  1
  H+  H293  1  0.66602099  0.56081900  0.89522407  1
  H+  H294  1  0.09457089  0.17840530  0.42776257  1
  H+  H295  1  0.91760953  0.09453117  0.22851914  1
  H+  H296  1  0.35677775  0.01511235  0.22607521  1
  H+  H297  1  0.04640656  0.42479790  0.45759193  1
  H+  H298  1  0.35256927  0.88475137  0.14935610  1
  H+  H299  1  0.77594493  0.82066698  0.80006595  1
  H+  H300  1  0.31037531  0.89419607  0.76063822  1
  H+  H301  1  0.42410468  0.59286797  0.61300465  1
  H+  H302  1  0.96615673  0.36939380  0.79246015  1
  H+  H303  1  0.91920870  0.82858606  0.23588029  1
  H+  H304  1  0.67803188  0.84681231  0.22761909  1
  H+  H305  1  0.33375441  0.41559038  0.72562962  1
  H+  H306  1  0.82379112  0.67676226  0.06926856  1
  H+  H307  1  0.33805445  0.42253942  0.44167697  1
  H+  H308  1  0.40869808  0.33003096  0.93137068  1
  H+  H309  1  0.64918012  0.56862586  0.56285782  1
  H+  H310  1  0.05088159  0.65498497  0.77149413  1
  H+  H311  1  0.39963065  0.57090509  0.23392266  1
  H+  H312  1  0.58785199  0.40774873  0.41141254  1
  H+  H313  1  0.53990887  0.66149187  0.07730112  1
  H+  H314  1  0.38618326  0.56646879  0.92506197  1
  H+  H315  1  0.83006357  0.44910092  0.72927533  1
  H+  H316  1  0.42685155  0.34298121  0.27073619  1
  H+  H317  1  0.11083181  0.62804982  0.33878111  1
  H+  H318  1  0.93754614  0.60151111  0.57617268  1
  H+  H319  1  0.67318800  0.07859508  0.56156484  1
  H+  H320  1  0.32840160  0.41445146  0.09778831  1
  H+  H321  1  0.32348938  0.66692019  0.39306513  1
  H+  H322  1  0.90914110  0.83488320  0.56330132  1
  H+  H323  1  0.26129724  0.13547960  0.15716647  1
  H+  H324  1  0.94112056  0.26607366  0.89359234  1
  H+  H325  1  0.91266243  0.57818634  0.27144756  1
  H+  H326  1  0.41764303  0.87058370  0.24536647  1
  H+  H327  1  0.10932600  0.41186177  0.38619958  1
  H+  H328  1  0.12361299  0.10189010  0.31662302  1
  H+  H329  1  0.72153365  0.80332595  0.54298216  1
  H+  H330  1  0.10704457  0.13337223  0.15396203  1
  H+  H331  1  0.33742932  0.15794270  0.76009695  1
  H+  H332  1  0.67066633  0.33725719  0.59847663  1
  H+  H333  1  0.83127915  0.14163148  0.71939105  1
  H+  H334  1  0.35006550  0.95429594  0.40496049  1
  H+  H335  1  0.07917459  0.16398320  0.06139697  1
  H+  H336  1  0.72037087  0.10946132  0.65452053  1
  H+  H337  1  0.84953732  0.69484492  0.78077117  1
  H+  H338  1  0.38648777  0.52974121  0.51340957  1
  H+  H339  1  0.32952344  0.16518789  0.06239741  1
  H+  H340  1  0.16285895  0.31293535  0.89161160  1
  H+  H341  1  0.68417433  0.57617880  0.27185227  1
  H+  H342  1  0.53394995  0.37857840  0.70950184  1
  H+  H343  1  0.84831200  0.41150635  0.00889836  1
  H+  H344  1  0.85496530  0.93371308  0.38693593  1
  H+  H345  1  0.66493917  0.09196934  0.22732457  1
  H+  H346  1  0.57663883  0.17197661  0.06587883  1
  H+  H347  1  0.14943616  0.02034656  0.66450824  1
  H+  H348  1  0.69334083  0.11377282  0.88307344  1
  H+  H349  1  0.41899054  0.82949767  0.90746246  1
  H+  H350  1  0.15438089  0.50175994  0.02697295  1
  H+  H351  1  0.47019794  0.86804394  0.33445010  1
  H+  H352  1  0.83521414  0.65592663  0.40749980  1
  H+  H353  1  0.71209477  0.68423525  0.62191449  1
  H+  H354  1  0.08244520  0.15813578  0.72774777  1
  H+  H355  1  0.84262021  0.42210353  0.41035738  1
  H+  H356  1  0.85541051  0.88711635  0.48710997  1
  H+  H357  1  0.58239722  0.66328320  0.08036924  1
  H+  H358  1  0.90571215  0.32592462  0.23390404  1
  H+  H359  1  0.88974704  0.36256409  0.33711500  1
  H+  H360  1  0.07814148  0.91139368  0.73291329  1
  H+  H361  1  0.89883231  0.55232295  0.67115345  1
  H+  H362  1  0.60985704  0.04806864  0.94626030  1
  H+  H363  1  0.43685998  0.11410584  0.28304737  1
  H+  H364  1  0.91604883  0.34921849  0.62811200  1
  H+  H365  1  0.59133742  0.16949169  0.41154471  1
  H+  H366  1  0.58695013  0.92735468  0.74409218  1
  H+  H367  1  0.82838226  0.15884279  0.09550211  1
  H+  H368  1  0.91514826  0.06161571  0.93169145  1
  H+  H369  1  0.10445928  0.42734515  0.11384579  1
  H+  H370  1  0.83642410  0.91821264  0.72551714  1
  H+  H371  1  0.56625827  0.90866094  0.07760502  1
  H+  H372  1  0.18211020  0.32820741  0.26158150  1
  H+  H373  1  0.33216620  0.65765111  0.10090029  1
  H+  H374  1  0.17109904  0.08379395  0.89216417  1
  H+  H375  1  0.09246827  0.43247319  0.76553579  1
  H+  H376  1  0.92597602  0.08916662  0.55372180  1
  H+  H377  1  0.96540808  0.61386957  0.84894428  1
  H+  H378  1  0.60635477  0.92269566  0.39135328  1
  H+  H379  1  0.70785383  0.29201349  0.87579636  1
  H+  H380  1  0.07453606  0.66673833  0.07092339  1
  H+  H381  1  0.07710774  0.93849719  0.42245962  1
  H+  H382  1  0.86250534  0.89507277  0.06064103  1
  H+  H383  1  0.57322038  0.41395838  0.09947972  1
  O2-  O384  1  0.07610176  0.16367920  0.13961222  1
  O2-  O385  1  0.09673765  0.17928160  0.47389965  1
  O2-  O386  1  0.07171955  0.14575433  0.80624721  1
  O2-  O387  1  0.08685375  0.41582939  0.15835255  1
  O2-  O388  1  0.07207638  0.42289095  0.49612532  1
  O2-  O389  1  0.06937361  0.42293024  0.80759250  1
  O2-  O390  1  0.07659326  0.66025072  0.14712028  1
  O2-  O391  1  0.08846830  0.66500059  0.47747463  1
  O2-  O392  1  0.06347996  0.66038840  0.81553667  1
  O2-  O393  1  0.08157543  0.92054060  0.14316600  1
  O2-  O394  1  0.06544216  0.95719150  0.46389491  1
  O2-  O395  1  0.08576329  0.91605171  0.81234522  1
  O2-  O396  1  0.32432895  0.16827349  0.14298319  1
  O2-  O397  1  0.34300885  0.19206387  0.50170215  1
  O2-  O398  1  0.33445753  0.15999726  0.80512379  1
  O2-  O399  1  0.33041400  0.41222182  0.14296956  1
  O2-  O400  1  0.33546546  0.42713313  0.48680147  1
  O2-  O401  1  0.32630642  0.40240230  0.80417229  1
  O2-  O402  1  0.33491287  0.65528257  0.14591796  1
  O2-  O403  1  0.32148351  0.65647396  0.47053526  1
  O2-  O404  1  0.32337703  0.66733972  0.82198784  1
  O2-  O405  1  0.31756953  0.90331096  0.12527591  1
  O2-  O406  1  0.34318412  0.95809114  0.47335386  1
  O2-  O407  1  0.32713344  0.90713608  0.83169288  1
  O2-  O408  1  0.57863652  0.16845768  0.14674447  1
  O2-  O409  1  0.58595262  0.16679227  0.48871078  1
  O2-  O410  1  0.57290752  0.16507711  0.80104244  1
  O2-  O411  1  0.57814541  0.40830962  0.14504698  1
  O2-  O412  1  0.58652506  0.40637146  0.46777567  1
  O2-  O413  1  0.56308525  0.40238194  0.79949620  1
  O2-  O414  1  0.58118827  0.65975585  0.20801620  1
  O2-  O415  1  0.57688742  0.66056143  0.47603523  1
  O2-  O416  1  0.63941556  0.70436214  0.82854654  1
  O2-  O417  1  0.57450294  0.91725857  0.15275061  1
  O2-  O418  1  0.66846155  0.93614963  0.45858456  1
  O2-  O419  1  0.58397149  0.93064474  0.82340302  1
  O2-  O420  1  0.82703002  0.16357179  0.14068046  1
  O2-  O421  1  0.84971212  0.18147636  0.46925802  1
  O2-  O422  1  0.82554915  0.12028424  0.78711586  1
  O2-  O423  1  0.81753076  0.41027208  0.15042274  1
  O2-  O424  1  0.84089462  0.42214351  0.49192483  1
  O2-  O425  1  0.82395280  0.43443649  0.80456141  1
  O2-  O426  1  0.83139210  0.66754398  0.14565142  1
  O2-  O427  1  0.82505984  0.65366581  0.48929603  1
  O2-  O428  1  0.84970108  0.69628110  0.82580717  1
  O2-  O429  1  0.84116920  0.91570571  0.14156211  1
  O2-  O430  1  0.83879886  0.92705772  0.46749596  1
  O2-  O431  1  0.82376993  0.87976260  0.80357056  1
  O2-  O432  1  0.16437054  0.08643631  0.17763343  1
  O2-  O433  1  0.18750104  0.11132950  0.51032854  1
  O2-  O434  1  0.17217202  0.08144159  0.84685516  1
  O2-  O435  1  0.16709339  0.32546195  0.18612104  1
  O2-  O436  1  0.16729980  0.34028000  0.52091394  1
  O2-  O437  1  0.16659332  0.29822725  0.84906486  1
  O2-  O438  1  0.16484311  0.58395681  0.19179381  1
  O2-  O439  1  0.17006192  0.58377064  0.52154598  1
  O2-  O440  1  0.16062372  0.59090659  0.85798543  1
  O2-  O441  1  0.15440364  0.82334540  0.17832384  1
  O2-  O442  1  0.18777607  0.84242638  0.48035839  1
  O2-  O443  1  0.15631063  0.82417248  0.85575626  1
  O2-  O444  1  0.41394516  0.03997282  0.20788710  1
  O2-  O445  1  0.41493065  0.10205791  0.52668801  1
  O2-  O446  1  0.41184298  0.07759786  0.85012650  1
  O2-  O447  1  0.41715011  0.33601474  0.18712179  1
  O2-  O448  1  0.45101738  0.40518541  0.55183956  1
  O2-  O449  1  0.40847682  0.32404018  0.85365963  1
  O2-  O450  1  0.40948711  0.57222542  0.18911389  1
  O2-  O451  1  0.41878269  0.59131819  0.52690025  1
  O2-  O452  1  0.38491570  0.56720935  0.84702898  1
  O2-  O453  1  0.42906437  0.89903202  0.20440987  1
  O2-  O454  1  0.35380924  0.79032576  0.55759682  1
  O2-  O455  1  0.42100517  0.83317974  0.86159634  1
  O2-  O456  1  0.66311368  0.08953825  0.18193728  1
  O2-  O457  1  0.67528626  0.08078241  0.51598572  1
  O2-  O458  1  0.67132710  0.09685808  0.84183546  1
  O2-  O459  1  0.65654685  0.33247175  0.17656676  1
  O2-  O460  1  0.67051840  0.33628704  0.52017447  1
  O2-  O461  1  0.66780014  0.30991532  0.86146723  1
  O2-  O462  1  0.67115171  0.57793136  0.19212723  1
  O2-  O463  1  0.65224677  0.56657536  0.51816672  1
  O2-  O464  1  0.66252339  0.55254052  0.85045830  1
  O2-  O465  1  0.66751053  0.83901799  0.18264546  1
  O2-  O466  1  0.66865030  0.80424801  0.53534890  1
  O2-  O467  1  0.67832977  0.86389645  0.86365042  1
  O2-  O468  1  0.91337177  0.08606067  0.18390817  1
  O2-  O469  1  0.92818483  0.09382417  0.50789943  1
  O2-  O470  1  0.91693545  0.06406950  0.85306359  1
  O2-  O471  1  0.90517165  0.33049627  0.18893525  1
  O2-  O472  1  0.91094194  0.33071960  0.54437958  1
  O2-  O473  1  0.90547270  0.33648859  0.77590723  1
  O2-  O474  1  0.90964455  0.58196807  0.19220391  1
  O2-  O475  1  0.92890468  0.59158107  0.53169741  1
  O2-  O476  1  0.90431519  0.58530593  0.86333151  1
  O2-  O477  1  0.91783585  0.83042316  0.19056219  1
  O2-  O478  1  0.90354141  0.83063082  0.51749303  1
  O2-  O479  1  0.92917082  0.84985669  0.86670804  1
  O2-  O480  1  0.14698162  0.07025382  0.29448363  1
  O2-  O481  1  0.18742854  0.08095997  0.65207242  1
  O2-  O482  1  0.16607695  0.08533992  0.97214925  1
  O2-  O483  1  0.18405071  0.33115236  0.30736081  1
  O2-  O484  1  0.16398348  0.33357795  0.64645635  1
  O2-  O485  1  0.12840352  0.32176670  0.97062761  1
  O2-  O486  1  0.15996002  0.57147060  0.31135014  1
  O2-  O487  1  0.19382200  0.59559200  0.63558569  1
  O2-  O488  1  0.16538851  0.59170724  0.98182763  1
  O2-  O489  1  0.17860868  0.83671406  0.35663949  1
  O2-  O490  1  0.13277359  0.79525127  0.66342506  1
  O2-  O491  1  0.15213094  0.82973838  0.97787691  1
  O2-  O492  1  0.43116624  0.11326910  0.32738741  1
  O2-  O493  1  0.38377684  0.09283673  0.65716367  1
  O2-  O494  1  0.41314271  0.08577452  0.97250835  1
  O2-  O495  1  0.43489719  0.34897540  0.31548459  1
  O2-  O496  1  0.40987137  0.32144632  0.58205222  1
  O2-  O497  1  0.40711614  0.33306929  0.97694795  1
  O2-  O498  1  0.40414342  0.58275094  0.31182623  1
  O2-  O499  1  0.42237971  0.58936799  0.65797438  1
  O2-  O500  1  0.39999126  0.57448384  0.96935124  1
  O2-  O501  1  0.40961969  0.84337479  0.32056836  1
  O2-  O502  1  0.41340503  0.83942848  0.67613735  1
  O2-  O503  1  0.40905756  0.82958566  0.98137639  1
  O2-  O504  1  0.66029737  0.09124379  0.30730497  1
  O2-  O505  1  0.65969672  0.07997616  0.63996110  1
  O2-  O506  1  0.64638660  0.07667511  0.98125869  1
  O2-  O507  1  0.67284041  0.33783457  0.32778748  1
  O2-  O508  1  0.66723394  0.33384182  0.64385280  1
  O2-  O509  1  0.65438644  0.34344319  0.98435108  1
  O2-  O510  1  0.68675789  0.57888424  0.31690966  1
  O2-  O511  1  0.68649378  0.62959046  0.64342610  1
  O2-  O512  1  0.66732880  0.58690780  0.97443469  1
  O2-  O513  1  0.68603698  0.85083091  0.30616431  1
  O2-  O514  1  0.65784583  0.83077098  0.65961928  1
  O2-  O515  1  0.64225572  0.81662667  0.98424015  1
  O2-  O516  1  0.92407125  0.10803532  0.31386576  1
  O2-  O517  1  0.92418806  0.08454186  0.62954379  1
  O2-  O518  1  0.91375070  0.05941946  0.97721867  1
  O2-  O519  1  0.91341390  0.32581388  0.32263546  1
  O2-  O520  1  0.93720327  0.38661895  0.66411265  1
  O2-  O521  1  0.96142203  0.25761673  0.93253204  1
  O2-  O522  1  0.91801453  0.57706277  0.31660394  1
  O2-  O523  1  0.93655645  0.61618482  0.65903476  1
  O2-  O524  1  0.90633086  0.59566027  0.98892147  1
  O2-  O525  1  0.92323499  0.82298291  0.31648221  1
  O2-  O526  1  0.91631984  0.84247584  0.63903396  1
  O2-  O527  1  0.90851631  0.85053731  0.99602310  1
  O2-  O528  1  0.08028920  0.16350054  0.01580777  1
  O2-  O529  1  0.09042948  0.17219440  0.35355836  1
  O2-  O530  1  0.09114128  0.16507243  0.68267171  1
  O2-  O531  1  0.15743678  0.45693035  0.05134101  1
  O2-  O532  1  0.09389772  0.41059741  0.34361667  1
  O2-  O533  1  0.10764310  0.43923330  0.68525201  1
  O2-  O534  1  0.07120788  0.66656736  0.02516319  1
  O2-  O535  1  0.08363973  0.66101220  0.35424820  1
  O2-  O536  1  0.01809556  0.63808885  0.68948299  1
  O2-  O537  1  0.08185338  0.92497836  0.01916573  1
  O2-  O538  1  0.08634516  0.91503015  0.35484370  1
  O2-  O539  1  0.08191595  0.91140162  0.68763555  1
  O2-  O540  1  0.33031542  0.16728518  0.01716144  1
  O2-  O541  1  0.35334810  0.20195995  0.36999969  1
  O2-  O542  1  0.35150181  0.14987274  0.67849073  1
  O2-  O543  1  0.31959031  0.41005995  0.01653689  1
  O2-  O544  1  0.34249715  0.42097538  0.36133260  1
  O2-  O545  1  0.33503586  0.42829453  0.68156391  1
  O2-  O546  1  0.32864559  0.66511483  0.02013022  1
  O2-  O547  1  0.32402126  0.66987216  0.34772002  1
  O2-  O548  1  0.34182052  0.66905550  0.70149213  1
  O2-  O549  1  0.32321704  0.91483315  0.00356661  1
  O2-  O550  1  0.35061604  0.94917418  0.35731875  1
  O2-  O551  1  0.30348813  0.88585754  0.71476994  1
  O2-  O552  1  0.58020400  0.17360336  0.02072632  1
  O2-  O553  1  0.59255689  0.17314598  0.36595104  1
  O2-  O554  1  0.57094223  0.16763229  0.67966770  1
  O2-  O555  1  0.56811698  0.42280026  0.02578794  1
  O2-  O556  1  0.59060795  0.40856077  0.35783856  1
  O2-  O557  1  0.53409477  0.36620495  0.66608963  1
  O2-  O558  1  0.57154686  0.65787657  -0.05819863  1
  O2-  O559  1  0.57153641  0.68831461  0.34450247  1
  O2-  O560  1  0.58019640  0.66584229  0.70967275  1
  O2-  O561  1  0.56462196  0.90773397  0.03182649  1
  O2-  O562  1  0.58460768  0.91863279  0.34899967  1
  O2-  O563  1  0.58427597  0.92240296  0.69876419  1
  O2-  O564  1  0.82687385  0.13955842  0.01527336  1
  O2-  O565  1  0.84871639  0.17799544  0.40177450  1
  O2-  O566  1  0.83071307  0.15439181  0.67389392  1
  O2-  O567  1  0.81877107  0.43821243  0.02859686  1
  O2-  O568  1  0.83885098  0.41723402  0.36520769  1
  O2-  O569  1  0.83615441  0.45457670  0.68383845  1
  O2-  O570  1  0.82623384  0.68436089  0.02386004  1
  O2-  O571  1  0.84116764  0.66057528  0.36253110  1
  O2-  O572  1  0.84663841  0.69115249  0.69908323  1
  O2-  O573  1  0.85955594  0.89198126  0.01519641  1
  O2-  O574  1  0.85800645  0.93480423  0.34182217  1
  O2-  O575  1  0.83188319  0.92309764  0.68087741  1
