# generated using pymatgen
data_H2O
_symmetry_space_group_name_H-M   'P 1'
_cell_length_a   17.99277229
_cell_length_b   17.99541306
_cell_length_c   22.01827690
_cell_angle_alpha   90.00170707
_cell_angle_beta   89.98837908
_cell_angle_gamma   119.99700535
_symmetry_Int_Tables_number   1
_chemical_formula_structural   H2O
_chemical_formula_sum   'H384 O192'
_cell_volume   6174.28906676
_cell_formula_units_Z   192
loop_
 _symmetry_equiv_pos_site_id
 _symmetry_equiv_pos_as_xyz
  1  'x, y, z'
loop_
 _atom_type_symbol
 _atom_type_oxidation_number
  H+  1.0
  O2-  -2.0
loop_
 _atom_site_type_symbol
 _atom_site_label
 _atom_site_symmetry_multiplicity
 _atom_site_fract_x
 _atom_site_fract_y
 _atom_site_fract_z
 _atom_site_occupancy
  H+  H0  1  0.11410180  0.39113881  0.16226130  1
  H+  H1  1  0.38319623  0.01737274  0.66411418  1
  H+  H2  1  0.38919235  0.30794639  0.42539945  1
  H+  H3  1  0.52493645  0.65667381  0.34582727  1
  H+  H4  1  0.85613457  0.88108336  0.00793996  1
  H+  H5  1  0.46687303  0.70192638  0.89570497  1
  H+  H6  1  0.47087848  0.61308206  0.66203147  1
  H+  H7  1  0.61373529  0.73822136  0.50456896  1
  H+  H8  1  0.60635537  0.48182242  0.50165505  1
  H+  H9  1  0.64895413  0.36964584  0.65809371  1
  H+  H10  1  0.39596771  0.50732272  0.31782242  1
  H+  H11  1  0.07734042  0.42437919  0.10824696  1
  H+  H12  1  0.32276755  0.15919668  0.72189667  1
  H+  H13  1  0.73310065  0.86959039  0.16345621  1
  H+  H14  1  0.11514403  0.38676816  0.83021666  1
  H+  H15  1  0.84711710  0.48761439  0.48657712  1
  H+  H16  1  0.96461685  0.61080469  0.50496481  1
  H+  H17  1  0.21780718  0.85831614  0.50923585  1
  H+  H18  1  0.48932842  0.34224357  0.83937337  1
  H+  H19  1  0.27190969  0.63723011  0.33007020  1
  H+  H20  1  0.88898160  0.03072244  0.50549921  1
  H+  H21  1  0.36313441  0.38769712  0.15750936  1
  H+  H22  1  0.38127850  0.10669711  0.65946881  1
  H+  H23  1  0.71231958  0.61947994  0.36033403  1
  H+  H24  1  0.35404125  0.64193008  0.50688673  1
  H+  H25  1  0.42138075  0.84609418  0.23757585  1
  H+  H26  1  0.88605675  0.61444926  0.32641303  1
  H+  H27  1  0.38400423  0.52222742  0.66474134  1
  H+  H28  1  0.98380988  0.87983384  0.50127104  1
  H+  H29  1  0.86029210  0.97807783  0.66872553  1
  H+  H30  1  0.51822610  0.65379816  0.82892667  1
  H+  H31  1  0.86384674  0.38487452  0.33903003  1
  H+  H32  1  0.14678534  0.27764287  0.51256399  1
  H+  H33  1  0.92567724  0.33538576  0.27964481  1
  H+  H34  1  0.86639406  0.38950676  0.83716771  1
  H+  H35  1  0.13838011  0.77259748  0.16427463  1
  H+  H36  1  0.73649863  0.37619107  0.84009409  1
  H+  H37  1  0.22665657  0.11614892  0.36915284  1
  H+  H38  1  0.09618038  0.28992720  1.02306953  1
  H+  H39  1  0.63608811  0.76804543  0.16374147  1
  H+  H40  1  0.88472153  0.11633587  0.50341904  1
  H+  H41  1  0.26975630  0.63440334  0.67487842  1
  H+  H42  1  0.22690067  0.36671866  0.16972656  1
  H+  H43  1  0.10763216  0.62825999  0.34670264  1
  H+  H44  1  0.86259439  0.43053460  0.60910984  1
  H+  H45  1  0.38181164  0.76834928  0.31794398  1
  H+  H46  1  0.11052822  0.89143938  0.34581989  1
  H+  H47  1  0.35289625  0.63737056  0.15325801  1
  H+  H48  1  0.12639099  0.53546993  -0.00486011  1
  H+  H49  1  0.60584142  0.13599828  0.50678192  1
  H+  H50  1  0.24000539  0.11426387  0.99425492  1
  H+  H51  1  0.88444580  0.52405523  0.32401912  1
  H+  H52  1  0.37682117  0.23340525  0.00997486  1
  H+  H53  1  0.34875659  0.72345034  0.00491507  1
  H+  H54  1  0.36455396  0.99667164  -0.00828107  1
  H+  H55  1  0.39138177  0.12498968  0.83923450  1
  H+  H56  1  0.35839029  0.97249271  0.50093051  1
  H+  H57  1  0.32815792  0.66946643  0.76833708  1
  H+  H58  1  0.61188000  0.89166299  0.82558722  1
  H+  H59  1  0.88432698  0.25792738  -0.00333298  1
  H+  H60  1  0.48531879  0.54712126  0.28525617  1
  H+  H61  1  0.63233595  0.36104191  -0.01198237  1
  H+  H62  1  0.12974689  0.39099579  0.49953678  1
  H+  H63  1  0.14479374  0.10023462  0.99006893  1
  H+  H64  1  0.13829632  0.27549193  0.32723732  1
  H+  H65  1  0.25441907  0.12190746  0.81557520  1
  H+  H66  1  0.44541548  0.24922128  0.86898603  1
  H+  H67  1  0.23467193  0.37119931  0.50935608  1
  H+  H68  1  0.85068670  0.36925238  -0.00146298  1
  H+  H69  1  0.27749754  0.88366639  0.15902722  1
  H+  H70  1  0.58379926  0.92466948  0.73563788  1
  H+  H71  1  0.22085091  0.62169878  0.99316143  1
  H+  H72  1  0.26807176  0.63873964  0.82869771  1
  H+  H73  1  0.97303171  0.86519615  0.99038616  1
  H+  H74  1  0.61253786  0.64031430  1.00696402  1
  H+  H75  1  0.11907171  0.46983344  0.67479125  1
  H+  H76  1  0.88761123  0.88543377  0.49611299  1
  H+  H77  1  0.11107718  0.97410856  0.49951110  1
  H+  H78  1  0.85903489  0.13077361  0.83337982  1
  H+  H79  1  0.15074949  0.75290842  0.32370246  1
  H+  H80  1  0.09963776  0.96484404  0.82630170  1
  H+  H81  1  0.72441997  0.61683193  0.14561229  1
  H+  H82  1  0.90860380  0.62570341  0.85267280  1
  H+  H83  1  0.42189049  0.84240717  0.57513407  1
  H+  H84  1  0.02976061  0.28156172  0.97398783  1
  H+  H85  1  0.12961186  0.61453438  0.17739715  1
  H+  H86  1  0.27420527  0.88723426  0.67608211  1
  H+  H87  1  0.12928088  0.52495694  0.17941937  1
  H+  H88  1  0.22108133  0.61823003  0.51586928  1
  H+  H89  1  0.66281680  0.07629689  0.95299067  1
  H+  H90  1  0.37090606  0.97574876  0.34626693  1
  H+  H91  1  0.87924435  0.86671488  0.34622428  1
  H+  H92  1  0.61671019  0.14295497  0.66144672  1
  H+  H93  1  0.64298504  0.27701846  0.65212810  1
  H+  H94  1  0.91720502  0.31792527  0.93506416  1
  H+  H95  1  0.56975592  0.93397757  0.24680577  1
  H+  H96  1  1.04206669  0.64799904  0.67396317  1
  H+  H97  1  0.12239965  0.72778907  0.82379283  1
  H+  H98  1  0.64284559  0.17996284  0.33556388  1
  H+  H99  1  0.39114492  0.65218696  0.84946817  1
  H+  H100  1  0.12733239  0.10376585  0.83982074  1
  H+  H101  1  0.86579957  0.73783610  0.15257550  1
  H+  H102  1  0.48105645  0.60333077  0.99769607  1
  H+  H103  1  0.86438089  0.21515404  0.68180068  1
  H+  H104  1  -0.01960557  0.36369321  0.18397374  1
  H+  H105  1  0.70190222  0.60730622  0.84162954  1
  H+  H106  1  0.47796584  0.86904711  0.84075801  1
  H+  H107  1  0.13711642  1.03146085  0.37310967  1
  H+  H108  1  0.35648429  0.36472102  0.50553672  1
  H+  H109  1  0.31644869  0.16758057  0.28800705  1
  H+  H110  1  0.61104693  0.72920144  -0.00089641  1
  H+  H111  1  0.40955369  0.33416080  0.60066062  1
  H+  H112  1  0.36108289  0.22338980  0.66520234  1
  H+  H113  1  0.11064282  0.63899650  0.00637804  1
  H+  H114  1  0.88143037  0.59268242  0.00091469  1
  H+  H115  1  0.91499951  0.35531161  0.52645014  1
  H+  H116  1  0.86795467  0.64918259  0.16351953  1
  H+  H117  1  0.63292317  0.62081683  0.50997739  1
  H+  H118  1  0.60318559  0.47076344  0.82635087  1
  H+  H119  1  0.13547767  0.10785761  0.50596870  1
  H+  H120  1  0.02290892  0.64387112  0.16108893  1
  H+  H121  1  0.71826094  0.85365240  -0.01283096  1
  H+  H122  1  0.59549648  0.16478480  0.23240005  1
  H+  H123  1  0.27751279  0.38683701  0.00356960  1
  H+  H124  1  0.88396104  0.10852332  0.66377355  1
  H+  H125  1  0.77530962  0.89437958  0.49514216  1
  H+  H126  1  0.36479429  0.49458391  0.49334729  1
  H+  H127  1  0.63019488  0.23106892  0.83314186  1
  H+  H128  1  0.12122684  0.96937231  -0.00355540  1
  H+  H129  1  0.13657485  0.52528082  0.51083000  1
  H+  H130  1  0.88997355  0.12754315  0.33463113  1
  H+  H131  1  0.96721659  0.85287787  0.83579758  1
  H+  H132  1  0.63590917  0.11676197  0.00668969  1
  H+  H133  1  0.62163748  0.53407213  0.36610960  1
  H+  H134  1  0.13185571  0.85732239  0.83447282  1
  H+  H135  1  0.62383771  0.51984997  0.99168715  1
  H+  H136  1  0.66760023  0.34057795  0.89486300  1
  H+  H137  1  0.41476737  0.07707530  0.57627381  1
  H+  H138  1  -0.03546199  0.09057082  -0.00892114  1
  H+  H139  1  0.39530883  0.87981703  0.17229768  1
  H+  H140  1  0.37597768  0.13805519  0.16493255  1
  H+  H141  1  0.10973444  0.22009374  0.82844099  1
  H+  H142  1  1.02778607  0.14574560  0.50107643  1
  H+  H143  1  0.83234051  0.91581780  0.76196024  1
  H+  H144  1  0.47484566  0.62351835  0.51226358  1
  H+  H145  1  0.11625597  0.14492928  0.36453111  1
  H+  H146  1  0.38610781  0.78231889  0.84110241  1
  H+  H147  1  0.33209805  0.91361310  0.44163691  1
  H+  H148  1  0.97497680  0.87040319  0.15587113  1
  H+  H149  1  0.22256450  0.85080195  0.98914282  1
  H+  H150  1  0.77184895  0.90123526  0.33645451  1
  H+  H151  1  0.97640034  0.35667709  0.84215266  1
  H+  H152  1  0.63355622  0.86789056  0.66569569  1
  H+  H153  1  0.35938428  0.63668703  0.67583048  1
  H+  H154  1  0.61145345  0.65906105  0.36181939  1
  H+  H155  1  0.60094745  0.22720404  0.50744702  1
  H+  H156  1  0.62220999  0.39125254  0.82359420  1
  H+  H157  1  0.87628459  0.87115886  0.65020639  1
  H+  H158  1  0.39089584  0.36400468  0.66353828  1
  H+  H159  1  0.61189362  0.98034084  0.83338043  1
  H+  H160  1  0.13814216  0.52344064  0.33197743  1
  H+  H161  1  0.14484582  0.36056886  0.66715520  1
  H+  H162  1  0.63882383  0.36311680  0.16734782  1
  H+  H163  1  0.87483956  0.61282694  0.50011515  1
  H+  H164  1  0.72352188  0.86413518  0.83075776  1
  H+  H165  1  0.86314199  0.22000338  0.48878624  1
  H+  H166  1  0.59182942  -0.02013061  1.03871061  1
  H+  H167  1  0.76223560  0.63031606  0.48944814  1
  H+  H168  1  0.24132576  0.11475832  0.15218974  1
  H+  H169  1  0.58696435  0.41806502  0.72910696  1
  H+  H170  1  0.89383849  0.54642314  0.65714632  1
  H+  H171  1  0.26413904  0.63511001  0.16062733  1
  H+  H172  1  0.72230453  0.10633024  0.85429397  1
  H+  H173  1  0.10303096  0.63192041  0.50147392  1
  H+  H174  1  0.67165462  0.83197897  0.22869608  1
  H+  H175  1  0.63777334  0.52747616  0.66341180  1
  H+  H176  1  0.60011980  0.38938568  0.50319973  1
  H+  H177  1  0.85684975  0.88158213  0.82179796  1
  H+  H178  1  0.38528896  0.35833078  0.98806328  1
  H+  H179  1  0.11404375  0.47538043  0.83013074  1
  H+  H180  1  0.13237952  0.11158356  0.66131781  1
  H+  H181  1  0.63342846  0.03018626  0.50631533  1
  H+  H182  1  0.01001288  0.39501802  0.01379838  1
  H+  H183  1  0.80202060  0.65789698  0.29168567  1
  H+  H184  1  0.86288138  0.98935031  0.34211922  1
  H+  H185  1  0.38572061  0.10882908  0.51459659  1
  H+  H186  1  0.52380870  0.64895671  0.15136522  1
  H+  H187  1  0.12827106  0.76903513  0.51015478  1
  H+  H188  1  0.27059480  0.12004848  0.49954459  1
  H+  H189  1  0.35954547  0.63858088  0.31892273  1
  H+  H190  1  0.15839793  0.58158090  0.27160712  1
  H+  H191  1  0.58250614  0.41374932  0.06090180  1
  H+  H192  1  0.87516193  0.78175560  0.64434683  1
  H+  H193  1  0.76844522  0.12950883  0.01830036  1
  H+  H194  1  0.27562627  0.89114701  0.82387085  1
  H+  H195  1  0.10709914  0.72547988  1.00579906  1
  H+  H196  1  0.12863918  0.59218404  0.66765961  1
  H+  H197  1  0.78346056  0.39596218  0.16856149  1
  H+  H198  1  0.13313988  0.15091316  0.13518005  1
  H+  H199  1  0.89158603  0.53333315  0.17829159  1
  H+  H200  1  0.53868005  0.15252892  0.84087446  1
  H+  H201  1  0.59733855  0.39061805  0.35382357  1
  H+  H202  1  0.02150521  0.13537699  0.67333751  1
  H+  H203  1  0.37084410  0.47290265  0.00295955  1
  H+  H204  1  0.63423970  0.61481749  0.14340733  1
  H+  H205  1  0.66574904  0.11117971  0.18202143  1
  H+  H206  1  0.84070490  0.39706265  0.47821614  1
  H+  H207  1  0.38740599  0.86178847  0.32844199  1
  H+  H208  1  0.51967133  0.89061253  0.50330775  1
  H+  H209  1  0.08505319  0.90685166  0.05382245  1
  H+  H210  1  0.52181332  0.38576107  0.00217048  1
  H+  H211  1  0.90100366  0.73356199  0.71783268  1
  H+  H212  1  0.37026719  0.38340443  0.83744844  1
  H+  H213  1  0.76666699  0.54179545  1.05159028  1
  H+  H214  1  0.22182060  0.11118016  0.65617599  1
  H+  H215  1  0.87786992  0.76517184  0.84394713  1
  H+  H216  1  0.87310175  0.65228528  0.67484382  1
  H+  H217  1  0.64168457  0.87361541  0.51318329  1
  H+  H218  1  0.10286275  0.41079844  0.01018645  1
  H+  H219  1  0.85421638  0.12333382  0.00718400  1
  H+  H220  1  0.36007504  0.87347595  0.00376183  1
  H+  H221  1  0.85940474  0.73387415  0.33753850  1
  H+  H222  1  0.22684072  0.35759671  0.85287141  1
  H+  H223  1  0.97253798  0.10647391  0.83945354  1
  H+  H224  1  0.83433169  0.98817891  0.14725246  1
  H+  H225  1  0.76850777  0.88925822  0.67073516  1
  H+  H226  1  0.98851816  0.35223213  0.66943319  1
  H+  H227  1  0.60271776  0.22340236  -0.00050469  1
  H+  H228  1  0.27700200  0.38332644  0.68008060  1
  H+  H229  1  0.12475081  0.23536726  0.14228737  1
  H+  H230  1  0.53085346  0.39073157  0.66845710  1
  H+  H231  1  0.52006867  0.13171788  0.99776149  1
  H+  H232  1  0.60697311  0.64002454  0.67250632  1
  H+  H233  1  0.52671968  0.14125182  0.66054719  1
  H+  H234  1  0.90512115  0.59653457  0.59540758  1
  H+  H235  1  0.89790442  0.27766753  0.33946856  1
  H+  H236  1  0.11518255  0.88344796  0.14944134  1
  H+  H237  1  0.72192695  0.11902697  0.50108489  1
  H+  H238  1  0.35996389  0.22128572  0.34780442  1
  H+  H239  1  0.70591924  0.36135212  0.50128977  1
  H+  H240  1  0.63378644  0.77561626  0.82938580  1
  H+  H241  1  0.78917877  0.56588004  0.81940044  1
  H+  H242  1  0.71845853  0.35429864  -0.01411856  1
  H+  H243  1  0.35619118  0.73085453  0.50936589  1
  H+  H244  1  0.52270935  0.89048892  0.67708264  1
  H+  H245  1  0.01676428  0.89038816  0.66719767  1
  H+  H246  1  0.10633448  0.97672604  0.67261475  1
  H+  H247  1  0.61649102  0.47771296  0.14299995  1
  H+  H248  1  0.38845038  0.52701360  0.15973045  1
  H+  H249  1  0.63784241  0.02480525  0.66107679  1
  H+  H250  1  0.63735470  0.87764619  0.30090950  1
  H+  H251  1  0.02224299  0.63587247  0.34435906  1
  H+  H252  1  0.28562795  0.88223572  0.34175081  1
  H+  H253  1  0.02758708  0.14497566  0.34839482  1
  H+  H254  1  0.59581604  0.63315916  0.82677844  1
  H+  H255  1  0.85015274  -0.03322384  1.00315268  1
  H+  H256  1  0.34499255  0.20918000  0.81476081  1
  H+  H257  1  0.39458495  0.11404871  0.32687989  1
  H+  H258  1  0.87577247  0.48176847  0.84011822  1
  H+  H259  1  0.31420397  0.03714463  0.96355308  1
  H+  H260  1  0.50217888  0.12653983  0.51322242  1
  H+  H261  1  0.48010008  0.10680458  0.18265481  1
  H+  H262  1  0.46913487  0.86539051  1.00658031  1
  H+  H263  1  0.13763724  0.86428995  0.66447743  1
  H+  H264  1  0.38529688  0.77478133  0.66529183  1
  H+  H265  1  0.52910496  0.38814358  0.15462131  1
  H+  H266  1  0.39315271  0.27258416  0.17387634  1
  H+  H267  1  0.78604042  0.38787320  0.65407461  1
  H+  H268  1  0.26807240  0.38540542  0.33594443  1
  H+  H269  1  0.82559384  0.17073469  0.30470713  1
  H+  H270  1  0.63640893  0.11078043  0.85622429  1
  H+  H271  1  0.88325310  0.01738818  0.83700355  1
  H+  H272  1  -0.02135352  0.60870243  0.00100004  1
  H+  H273  1  1.03518419  0.63916301  0.83393262  1
  H+  H274  1  0.63646590  1.03706602  0.32154077  1
  H+  H275  1  0.03771125  0.37985454  0.49928087  1
  H+  H276  1  0.37176113  0.47104456  0.84038185  1
  H+  H277  1  0.38539440  0.86434359  0.66680647  1
  H+  H278  1  0.63525482  0.79011088  0.32244694  1
  H+  H279  1  0.61598250  0.22215977  0.17593334  1
  H+  H280  1  0.38921207  0.86914016  0.51500385  1
  H+  H281  1  0.03086992  0.38987545  0.34688140  1
  H+  H282  1  0.72182091  0.62011997  0.66636763  1
  H+  H283  1  0.11295308  0.22345285  0.67542363  1
  H+  H284  1  0.16288695  0.07867969  0.19719411  1
  H+  H285  1  0.07753266  0.66276749  0.44066176  1
  H+  H286  1  0.33546631  0.91938705  0.73568212  1
  H+  H287  1  0.12088778  -0.02594560  0.13824603  1
  H+  H288  1  0.58435798  0.68147887  0.09145428  1
  H+  H289  1  0.72803012  0.11644337  0.34398591  1
  H+  H290  1  0.29547927  0.27703543  0.53557258  1
  H+  H291  1  0.13969971  0.36489462  0.32527198  1
  H+  H292  1  0.15757336  0.06069609  0.27246360  1
  H+  H293  1  0.92422993  0.59694224  0.23439755  1
  H+  H294  1  0.82872558  0.92509580  0.43143290  1
  H+  H295  1  0.91491917  0.08562402  0.60118181  1
  H+  H296  1  0.09560315  0.41866471  0.40330783  1
  H+  H297  1  0.67194562  0.08475742  0.60163283  1
  H+  H298  1  0.07986172  0.16228056  0.76815581  1
  H+  H299  1  0.13817681  0.61021670  0.83910475  1
  H+  H300  1  0.81526263  0.63954522  0.77099598  1
  H+  H301  1  0.41199390  0.58431315  0.56981875  1
  H+  H302  1  0.83061378  0.16689283  0.42660484  1
  H+  H303  1  0.22742209  0.77151063  0.28130657  1
  H+  H304  1  0.90695474  0.07164992  0.93160962  1
  H+  H305  1  0.33273085  0.41272806  0.09684886  1
  H+  H306  1  0.78453865  0.08925791  0.18303091  1
  H+  H307  1  0.93133089  0.58872826  0.91165393  1
  H+  H308  1  0.07405007  0.63909998  0.73945820  1
  H+  H309  1  0.52579650  0.89602829  0.30850118  1
  H+  H310  1  0.85850426  0.46068966  -0.00273358  1
  H+  H311  1  0.13564041  0.85605993  0.98548295  1
  H+  H312  1  0.57480269  0.41920219  0.41860649  1
  H+  H313  1  0.36617038  0.97484953  0.16017866  1
  H+  H314  1  0.54270121  0.92641389  0.09819339  1
  H+  H315  1  0.81609455  0.65033529  0.42870917  1
  H+  H316  1  0.42397837  0.83918094  0.93866849  1
  H+  H317  1  0.93418985  0.31049594  0.57921287  1
  H+  H318  1  0.17249850  0.83019516  0.22318983  1
  H+  H319  1  0.91313787  0.84951449  0.56016852  1
  H+  H320  1  0.88940100  0.87539845  0.16011103  1
  H+  H321  1  0.71448933  0.60171452  0.99389995  1
  H+  H322  1  0.81806308  0.63671493  0.07383199  1
  H+  H323  1  0.08642446  0.17830689  0.44207594  1
  H+  H324  1  0.90867498  0.83587797  0.93546156  1
  H+  H325  1  0.08193698  0.66810183  0.10083613  1
  H+  H326  1  0.35532543  0.20945866  0.50086149  1
  H+  H327  1  0.82031662  0.92193456  0.09258420  1
  H+  H328  1  0.77218674  0.12949491  0.67763578  1
  H+  H329  1  0.66471595  0.59188211  0.56840071  1
  H+  H330  1  0.86171861  0.16344794  0.10061003  1
  H+  H331  1  0.57695824  0.91488487  0.44318837  1
  H+  H332  1  0.35018812  0.37753920  0.35731073  1
  H+  H333  1  0.15859868  0.07718956  0.56797189  1
  H+  H334  1  0.88598216  0.26748135  0.84236103  1
  H+  H335  1  0.82606620  0.15747564  0.77507758  1
  H+  H336  1  0.69374496  0.10079608  0.24731282  1
  H+  H337  1  0.37559082  0.14305494  0.01367061  1
  H+  H338  1  0.17773267  0.33378701  0.60780157  1
  H+  H339  1  0.16591516  0.83349814  0.60657941  1
  H+  H340  1  0.46226808  0.35312738  0.37547663  1
  H+  H341  1  0.31373556  0.66289316  0.06295876  1
  H+  H342  1  0.16709468  0.07588480  0.89539294  1
  H+  H343  1  0.63203527  0.77742343  0.66314938  1
  H+  H344  1  0.41874873  0.10865432  0.90407137  1
  H+  H345  1  0.33090274  0.90465272  0.06358807  1
  H+  H346  1  0.90007382  0.35328232  0.66023776  1
  H+  H347  1  0.96787998  0.86437974  0.34799859  1
  H+  H348  1  0.66191332  0.33499912  0.56741413  1
  H+  H349  1  0.16316726  0.57472304  0.60496983  1
  H+  H350  1  0.16473629  0.33102442  0.22744009  1
  H+  H351  1  0.35420947  0.17486968  0.10422279  1
  H+  H352  1  0.92475055  0.09395373  0.27760332  1
  H+  H353  1  0.64604629  0.57902517  0.90178060  1
  H+  H354  1  0.57906561  0.68458010  0.44393381  1
  H+  H355  1  0.08077601  0.90867353  0.41014016  1
  H+  H356  1  0.15335954  0.32339129  0.90398925  1
  H+  H357  1  0.41996683  0.58243131  0.21927054  1
  H+  H358  1  0.71836154  0.32718659  0.32593621  1
  H+  H359  1  0.09024360  0.41367212  0.73642004  1
  H+  H360  1  0.33018955  0.43529790  0.43185983  1
  H+  H361  1  0.41500218  0.58391587  0.94325853  1
  H+  H362  1  0.14178178  0.09265240  0.27110016  1
  H+  H363  1  0.33877964  0.41563237  0.73818242  1
  H+  H364  1  0.41413553  0.07371043  0.23607685  1
  H+  H365  1  0.10509896  0.88005854  0.50232927  1
  H+  H366  1  0.08603276  0.15521360  0.05213621  1
  H+  H367  1  0.66294958  0.82633994  0.92606008  1
  H+  H368  1  0.66848290  0.58371971  0.25548486  1
  H+  H369  1  0.48823230  0.12576746  0.32845456  1
  H+  H370  1  0.82059797  0.41760818  0.38844803  1
  H+  H371  1  0.36589720  0.89652223  0.82773009  1
  H+  H372  1  0.57378061  0.66793040  0.73083551  1
  H+  H373  1  0.42551291  0.33995205  0.22848343  1
  H+  H374  1  0.87022726  0.39535206  0.17772651  1
  H+  H375  1  0.66316711  0.32917032  0.22721834  1
  H+  H376  1  0.09507802  0.18624254  -0.01684958  1
  H+  H377  1  0.42091436  0.32279073  0.93265230  1
  H+  H378  1  0.16488378  0.58230955  0.90035844  1
  H+  H379  1  0.67243476  0.84483187  0.57230541  1
  H+  H380  1  0.07054677  0.90910761  0.76547344  1
  H+  H381  1  0.16500753  0.82889382  0.89292107  1
  H+  H382  1  0.67938780  0.62984235  0.25281823  1
  H+  H383  1  0.89973466  0.27118203  0.18352110  1
  O2-  O384  1  0.10415830  0.18121301  0.11893890  1
  O2-  O385  1  0.08888074  0.17459986  0.48754710  1
  O2-  O386  1  0.07887839  0.15984945  0.81380316  1
  O2-  O387  1  0.08118532  0.42118450  0.15320104  1
  O2-  O388  1  0.09618737  0.41713913  0.48284444  1
  O2-  O389  1  0.08362698  0.41464885  0.81426371  1
  O2-  O390  1  0.08408932  0.67157573  0.14650427  1
  O2-  O391  1  0.07272918  0.66238210  0.48586382  1
  O2-  O392  1  0.09240536  0.66503117  0.81343820  1
  O2-  O393  1  0.08552356  0.91150538  0.12978991  1
  O2-  O394  1  0.07629762  0.91204183  0.48570268  1
  O2-  O395  1  0.06891721  0.90450202  0.81089462  1
  O2-  O396  1  0.34887310  0.17194853  0.14989575  1
  O2-  O397  1  0.33264527  0.14963931  0.48826837  1
  O2-  O398  1  0.31312459  0.15126063  0.79675987  1
  O2-  O399  1  0.33274785  0.41718569  0.14212770  1
  O2-  O400  1  0.33252061  0.43367968  0.47709020  1
  O2-  O401  1  0.33859379  0.41212483  0.82537817  1
  O2-  O402  1  0.32036988  0.66512510  0.13975372  1
  O2-  O403  1  0.32015883  0.67010554  0.49728758  1
  O2-  O404  1  0.32896372  0.67384332  0.81385620  1
  O2-  O405  1  0.33934239  0.91387174  0.14586930  1
  O2-  O406  1  0.32735453  0.91178624  0.48684501  1
  O2-  O407  1  0.33578117  0.92445027  0.80924764  1
  O2-  O408  1  0.58737954  0.16027877  0.18839964  1
  O2-  O409  1  0.56938950  0.16318160  0.49661840  1
  O2-  O410  1  0.59727071  0.16791141  0.82842383  1
  O2-  O411  1  0.58760920  0.41305798  0.13749048  1
  O2-  O412  1  0.57333058  0.42154882  0.48634315  1
  O2-  O413  1  0.58305441  0.41325042  0.80799669  1
  O2-  O414  1  0.58530844  0.68197723  0.13802106  1
  O2-  O415  1  0.58041464  0.67817665  0.48882189  1
  O2-  O416  1  0.57296642  0.66825242  0.80769040  1
  O2-  O417  1  0.52308207  0.92120624  0.18150723  1
  O2-  O418  1  0.58152639  0.92134727  0.48720830  1
  O2-  O419  1  0.58132498  0.92259417  0.81262199  1
  O2-  O420  1  0.88938582  0.17427625  0.14204983  1
  O2-  O421  1  0.82564610  0.16186894  0.47174247  1
  O2-  O422  1  0.82887583  0.16196781  0.82033544  1
  O2-  O423  1  0.84645161  0.43148661  0.16422304  1
  O2-  O424  1  0.81073350  0.42777485  0.46800742  1
  O2-  O425  1  0.83937307  0.42318739  0.82394755  1
  O2-  O426  1  0.83573589  0.67431383  0.14345696  1
  O2-  O427  1  0.82157572  0.65427897  0.47284577  1
  O2-  O428  1  0.80675115  0.62661100  0.81543112  1
  O2-  O429  1  0.81899851  0.92813211  0.13874643  1
  O2-  O430  1  0.83476785  0.92441134  0.47727822  1
  O2-  O431  1  0.83004809  0.91530255  0.80731803  1
  O2-  O432  1  0.17667044  0.08388349  0.15370166  1
  O2-  O433  1  0.16145173  0.07436024  0.52247835  1
  O2-  O434  1  0.15750338  0.07146912  0.85061039  1
  O2-  O435  1  0.16527550  0.33461962  0.18211145  1
  O2-  O436  1  0.17755085  0.33742586  0.52983506  1
  O2-  O437  1  0.16403178  0.32692102  0.86002712  1
  O2-  O438  1  0.15873737  0.58490538  0.19569977  1
  O2-  O439  1  0.15795344  0.58352446  0.52806761  1
  O2-  O440  1  0.16694365  0.57825821  0.85475606  1
  O2-  O441  1  0.17160694  0.83475325  0.17848375  1
  O2-  O442  1  0.15712568  0.83038987  0.52369672  1
  O2-  O443  1  0.16603805  0.83047973  0.84745269  1
  O2-  O444  1  0.41630917  0.07663735  0.19079590  1
  O2-  O445  1  0.41928147  0.08011300  0.52942496  1
  O2-  O446  1  0.43935730  0.14768575  0.86852390  1
  O2-  O447  1  0.42036906  0.33563064  0.18440451  1
  O2-  O448  1  0.35532254  0.31182116  0.52290957  1
  O2-  O449  1  0.43489851  0.29790444  0.86021903  1
  O2-  O450  1  0.41855367  0.58758085  0.17462762  1
  O2-  O451  1  0.41310821  0.58867017  0.52447463  1
  O2-  O452  1  0.43686094  0.64719262  0.87409940  1
  O2-  O453  1  0.43133940  0.85426525  0.19037218  1
  O2-  O454  1  0.42440579  0.84375121  0.52937199  1
  O2-  O455  1  0.41906992  0.84068793  0.85908604  1
  O2-  O456  1  0.70190323  0.09332179  0.20368863  1
  O2-  O457  1  0.66350291  0.09122994  0.52014906  1
  O2-  O458  1  0.66273584  0.07531396  0.87042069  1
  O2-  O459  1  0.66814232  0.33184266  0.18257567  1
  O2-  O460  1  0.64961071  0.32753426  0.52195164  1
  O2-  O461  1  0.67292928  0.34634067  0.84942404  1
  O2-  O462  1  0.66178516  0.57943672  0.13869882  1
  O2-  O463  1  0.66226155  0.58892438  0.52334484  1
  O2-  O464  1  0.64178015  0.57738913  0.85595423  1
  O2-  O465  1  0.67158019  0.83037636  0.18211377  1
  O2-  O466  1  0.67463744  0.84560084  0.52664040  1
  O2-  O467  1  0.66297880  0.83534985  0.84561298  1
  O2-  O468  1  0.84077700  0.09102548  0.17311670  1
  O2-  O469  1  0.91719374  0.09033290  0.52184504  1
  O2-  O470  1  0.91234671  0.07643183  0.85502661  1
  O2-  O471  1  0.92118826  0.32897470  0.20117057  1
  O2-  O472  1  0.93401567  0.31403347  0.53301079  1
  O2-  O473  1  0.91741113  0.32702266  0.85968629  1
  O2-  O474  1  0.92172258  0.59673843  0.18923853  1
  O2-  O475  1  0.90288578  0.58052543  0.51814323  1
  O2-  O476  1  0.93655197  0.59350320  0.86540682  1
  O2-  O477  1  0.91527560  0.84044244  0.17130992  1
  O2-  O478  1  0.91979544  0.85527155  0.51384639  1
  O2-  O479  1  0.90617440  0.82692830  0.85087913  1
  O2-  O480  1  0.16771493  0.09284393  0.38452199  1
  O2-  O481  1  0.15951592  0.07908027  0.64435715  1
  O2-  O482  1  0.18296974  0.07837861  0.97488603  1
  O2-  O483  1  0.16877462  0.33423121  0.30823391  1
  O2-  O484  1  0.17580189  0.32994436  0.65324731  1
  O2-  O485  1  0.09039408  0.29793963  0.97962308  1
  O2-  O486  1  0.16334143  0.58413339  0.31728516  1
  O2-  O487  1  0.16679918  0.57082390  0.65027893  1
  O2-  O488  1  0.15877331  0.59259114  0.97554724  1
  O2-  O489  1  0.19878058  0.80035518  0.29911460  1
  O2-  O490  1  0.17076300  0.83691206  0.65141385  1
  O2-  O491  1  0.16368393  0.82279107  0.97116869  1
  O2-  O492  1  0.42794776  0.08468117  0.31750233  1
  O2-  O493  1  0.41300776  0.07721869  0.64596112  1
  O2-  O494  1  0.37311008  0.05302160  0.97364668  1
  O2-  O495  1  0.39786170  0.31598030  0.38133589  1
  O2-  O496  1  0.41985158  0.33440721  0.64480922  1
  O2-  O497  1  0.41829144  0.32876381  0.97769708  1
  O2-  O498  1  0.44154698  0.56123166  0.29706025  1
  O2-  O499  1  0.40963359  0.58149193  0.64814865  1
  O2-  O500  1  0.42219185  0.56140350  0.98225658  1
  O2-  O501  1  0.41132094  0.83119648  0.30454002  1
  O2-  O502  1  0.41776716  0.83578967  0.65129185  1
  O2-  O503  1  0.41356423  0.83185679  0.98331915  1
  O2-  O504  1  0.67100008  0.10092865  0.32621262  1
  O2-  O505  1  0.67270937  0.08565458  0.64672675  1
  O2-  O506  1  0.66572766  0.08332809  0.99801333  1
  O2-  O507  1  0.65908245  0.29401482  0.30767704  1
  O2-  O508  1  0.67835585  0.34050005  0.64004593  1
  O2-  O509  1  0.65712337  0.32688668  0.97099300  1
  O2-  O510  1  0.65190512  0.59704323  0.37187352  1
  O2-  O511  1  0.66374008  0.58906513  0.64963870  1
  O2-  O512  1  0.65607189  0.58110777  0.97700997  1
  O2-  O513  1  0.66943037  0.84499418  0.29938909  1
  O2-  O514  1  0.66482471  0.83866982  0.64944663  1
  O2-  O515  1  0.65891534  0.82041095  0.97090395  1
  O2-  O516  1  0.92296366  0.09272922  0.32197078  1
  O2-  O517  1  0.91618702  0.08094053  0.64639997  1
  O2-  O518  1  0.90482022  0.07052774  0.97725838  1
  O2-  O519  1  0.92628243  0.33985496  0.32511119  1
  O2-  O520  1  0.92807083  0.31840523  0.65276037  1
  O2-  O521  1  0.92246381  0.31756185  0.98066392  1
  O2-  O522  1  0.91990734  0.58647010  0.31480035  1
  O2-  O523  1  0.90898441  0.60327691  0.64071707  1
  O2-  O524  1  0.91997295  0.57414860  0.98201272  1
  O2-  O525  1  0.90463783  0.82881873  0.34703548  1
  O2-  O526  1  0.90700605  0.84206891  0.63086021  1
  O2-  O527  1  0.91128257  0.83877820  0.98018963  1
  O2-  O528  1  0.07557086  0.13445159  0.00772206  1
  O2-  O529  1  0.08728202  0.18049686  0.36467226  1
  O2-  O530  1  0.08099558  0.16281844  0.69046458  1
  O2-  O531  1  0.06991217  0.43418616  0.02951117  1
  O2-  O532  1  0.09351707  0.41967513  0.35796117  1
  O2-  O533  1  0.09028067  0.40899042  0.69102684  1
  O2-  O534  1  0.07866826  0.66681512  0.02458744  1
  O2-  O535  1  0.08222262  0.66413460  0.36070154  1
  O2-  O536  1  0.06062593  0.61438821  0.69755744  1
  O2-  O537  1  0.08545958  0.90798390  0.00815601  1
  O2-  O538  1  0.07986866  0.91709963  0.36496229  1
  O2-  O539  1  0.07319541  0.91592440  0.68752177  1
  O2-  O540  1  0.34748652  0.17458334  0.02923442  1
  O2-  O541  1  0.33262363  0.16213215  0.32931024  1
  O2-  O542  1  0.32700781  0.16144046  0.67630548  1
  O2-  O543  1  0.33579530  0.40918485  0.01841562  1
  O2-  O544  1  0.32805560  0.41815165  0.35363250  1
  O2-  O545  1  0.33893415  0.41569715  0.69342612  1
  O2-  O546  1  0.31109302  0.66284075  0.01743252  1
  O2-  O547  1  0.33544805  0.67112795  0.33702931  1
  O2-  O548  1  0.33009241  0.66782252  0.69093217  1
  O2-  O549  1  0.32674624  0.90273633  0.01860117  1
  O2-  O550  1  0.34225686  0.91598246  0.36227665  1
  O2-  O551  1  0.33601792  0.91796975  0.68942207  1
  O2-  O552  1  0.57510108  0.16481529  0.01798923  1
  O2-  O553  1  0.61118928  0.21228017  0.34208082  1
  O2-  O554  1  0.58952757  0.17900596  0.66459101  1
  O2-  O555  1  0.58313557  0.41827008  0.01537668  1
  O2-  O556  1  0.56642480  0.41717035  0.37144018  1
  O2-  O557  1  0.59105588  0.42285996  0.68372965  1
  O2-  O558  1  0.58156362  0.67048829  0.02047219  1
  O2-  O559  1  0.58203109  0.69454520  0.36355663  1
  O2-  O560  1  0.57584590  0.67030457  0.68531055  1
  O2-  O561  1  0.54959484  0.92217855  0.05384080  1
  O2-  O562  1  0.58456791  0.93256155  0.29209072  1
  O2-  O563  1  0.58439673  0.92197877  0.68995465  1
  O2-  O564  1  0.83219963  0.15827478  0.02735439  1
  O2-  O565  1  0.84387716  0.17125568  0.34654828  1
  O2-  O566  1  0.83130040  0.15429587  0.69561793  1
  O2-  O567  1  0.81919692  0.39958270  0.00730473  1
  O2-  O568  1  0.82448563  0.40926014  0.34427743  1
  O2-  O569  1  0.85069987  0.41984509  0.65238205  1
  O2-  O570  1  0.79977373  0.60016326  0.03567874  1
  O2-  O571  1  0.82637021  0.66738182  0.33247088  1
  O2-  O572  1  0.85023822  0.68625837  0.69892710  1
  O2-  O573  1  0.82119218  0.90817549  0.02157923  1
  O2-  O574  1  0.82860931  0.92827817  0.35711406  1
  O2-  O575  1  0.83072128  0.91654490  0.68284333  1
