# generated using pymatgen
data_H2O
_symmetry_space_group_name_H-M   'P 1'
_cell_length_a   17.98761395
_cell_length_b   17.99277252
_cell_length_c   22.00932223
_cell_angle_alpha   90.00599055
_cell_angle_beta   89.99971698
_cell_angle_gamma   119.99465026
_symmetry_Int_Tables_number   1
_chemical_formula_structural   H2O
_chemical_formula_sum   'H384 O192'
_cell_volume   6169.24977819
_cell_formula_units_Z   192
loop_
 _symmetry_equiv_pos_site_id
 _symmetry_equiv_pos_as_xyz
  1  'x, y, z'
loop_
 _atom_type_symbol
 _atom_type_oxidation_number
  H+  1.0
  O2-  -2.0
loop_
 _atom_site_type_symbol
 _atom_site_label
 _atom_site_symmetry_multiplicity
 _atom_site_fract_x
 _atom_site_fract_y
 _atom_site_fract_z
 _atom_site_occupancy
  H+  H0  1  0.36673718  0.13884140  0.15544400  1
  H+  H1  1  0.63727319  1.03475433  0.83689379  1
  H+  H2  1  0.13326332  0.77493039  0.32011609  1
  H+  H3  1  0.76325817  0.12409766  0.66907370  1
  H+  H4  1  1.02806875  0.38725082  0.50271664  1
  H+  H5  1  0.11362406  0.38236432  0.83759591  1
  H+  H6  1  0.34727125  0.87136952  0.97443375  1
  H+  H7  1  0.66058807  0.91882454  0.26355336  1
  H+  H8  1  0.52063862  0.38880949  0.16003808  1
  H+  H9  1  0.33346140  0.92228580  0.73590344  1
  H+  H10  1  0.12110099  0.14347683  0.33100996  1
  H+  H11  1  0.60899897  0.97689317  0.50482325  1
  H+  H12  1  0.89150888  0.87335137  0.32105943  1
  H+  H13  1  0.66085404  1.02031129  0.19178344  1
  H+  H14  1  0.77150051  0.13875030  0.82348833  1
  H+  H15  1  0.62032780  0.13919088  0.49063759  1
  H+  H16  1  0.60620336  0.21865229  0.14726158  1
  H+  H17  1  0.43473940  0.14641448  0.00177223  1
  H+  H18  1  0.60961570  0.46659035  0.49499873  1
  H+  H19  1  0.27845090  0.14599337  0.83138189  1
  H+  H20  1  0.68049377  0.58314845  0.60895879  1
  H+  H21  1  0.11873053  0.97667854  0.15208312  1
  H+  H22  1  0.59765085  0.62689479  0.29333724  1
  H+  H23  1  0.37570844  0.99808788  0.16380282  1
  H+  H24  1  0.60646679  0.88644460  0.50375010  1
  H+  H25  1  0.60198205  0.98889931  0.35650150  1
  H+  H26  1  0.59075019  0.68248638  0.24050898  1
  H+  H27  1  0.58360873  0.22605294  0.99505718  1
  H+  H28  1  0.82764824  0.15861528  0.72829605  1
  H+  H29  1  0.49222475  0.62467222  0.85049144  1
  H+  H30  1  0.24200601  0.37143320  0.65412605  1
  H+  H31  1  0.65028513  0.62462491  0.66503949  1
  H+  H32  1  0.14823761  0.78789925  0.84671189  1
  H+  H33  1  0.22997843  0.11170736  0.16525459  1
  H+  H34  1  0.85275761  0.37999032  0.66110452  1
  H+  H35  1  -0.05113614  0.33577109  0.66231403  1
  H+  H36  1  0.35476166  0.64478896  0.35223807  1
  H+  H37  1  0.74033699  0.85212510  0.15560195  1
  H+  H38  1  0.89134807  0.00677930  1.00800027  1
  H+  H39  1  0.63023466  0.11854872  0.32808047  1
  H+  H40  1  0.37948190  0.09934052  0.32166474  1
  H+  H41  1  0.94823599  0.46803641  0.10492601  1
  H+  H42  1  0.12102781  0.23299221  0.66502792  1
  H+  H43  1  0.86130957  0.61798164  0.49404378  1
  H+  H44  1  0.70509895  0.11288100  0.99668660  1
  H+  H45  1  0.89714589  0.62079220  0.85228626  1
  H+  H46  1  0.70621571  0.32824617  0.30899678  1
  H+  H47  1  0.38111917  1.01103281  0.32168012  1
  H+  H48  1  -0.02631263  0.35189852  0.85521121  1
  H+  H49  1  0.37191873  0.64584132  0.83411028  1
  H+  H50  1  0.72847034  0.11030672  0.50880345  1
  H+  H51  1  0.11112028  0.36828638  0.35061306  1
  H+  H52  1  0.37054792  0.44243758  0.31757268  1
  H+  H53  1  0.88713825  0.36015493  0.51149871  1
  H+  H54  1  0.86362925  0.96982932  0.15750000  1
  H+  H55  1  0.64509502  0.52053463  0.31849824  1
  H+  H56  1  0.17523603  0.09136708  0.92989228  1
  H+  H57  1  0.29829337  0.55529207  0.20479318  1
  H+  H58  1  0.60723922  0.69013058  1.03669647  1
  H+  H59  1  0.36441842  0.38615220  0.65772630  1
  H+  H60  1  0.38125726  0.27605745  0.64718699  1
  H+  H61  1  0.10984290  0.89103388  0.83275202  1
  H+  H62  1  0.16991633  0.52359107  0.17753025  1
  H+  H63  1  0.38480295  0.36858211  -0.00355226  1
  H+  H64  1  0.78516525  0.56732109  0.44925890  1
  H+  H65  1  0.84979920  0.70919355  0.83060260  1
  H+  H66  1  0.47167514  0.86803943  0.50978960  1
  H+  H67  1  0.89505035  0.04329092  0.63497011  1
  H+  H68  1  0.02939965  0.14923169  0.66217661  1
  H+  H69  1  0.10360611  0.87873417  0.33251239  1
  H+  H70  1  0.13471161  1.02573008  0.83980767  1
  H+  H71  1  0.86471667  0.98325727  0.48422756  1
  H+  H72  1  0.63925270  0.60567311  0.52833956  1
  H+  H73  1  0.03721062  0.65227917  0.84191521  1
  H+  H74  1  0.03712263  0.38987339  0.16207699  1
  H+  H75  1  0.74841306  0.62592191  0.67166979  1
  H+  H76  1  0.81079940  0.91896299  -0.00547444  1
  H+  H77  1  0.12472278  0.23399902  0.33686242  1
  H+  H78  1  0.35675185  0.46957837  0.80706384  1
  H+  H79  1  0.52378618  0.89037964  0.67791643  1
  H+  H80  1  0.13395900  1.02470302  0.31751300  1
  H+  H81  1  0.38502966  0.77620142  0.51106107  1
  H+  H82  1  0.06957099  0.52050705  0.03149834  1
  H+  H83  1  0.89554079  0.52758261  0.52327650  1
  H+  H84  1  0.49272983  0.40556378  0.84989692  1
  H+  H85  1  0.26433745  0.62632339  0.50484600  1
  H+  H86  1  0.87738285  0.83444285  0.99850027  1
  H+  H87  1  0.86059739  0.22787997  0.16116872  1
  H+  H88  1  0.27565337  0.36630169  0.33035038  1
  H+  H89  1  0.86567349  0.14666063  0.00797156  1
  H+  H90  1  0.13462806  0.11435208  0.83676739  1
  H+  H91  1  0.85531390  0.25004670  0.00387467  1
  H+  H92  1  0.08545829  0.41407486  0.44325127  1
  H+  H93  1  0.59725085  0.60398196  0.82086630  1
  H+  H94  1  0.60843751  0.88883905  0.83212025  1
  H+  H95  1  0.61897915  0.38250705  0.33396404  1
  H+  H96  1  0.14958288  0.87099454  0.16526922  1
  H+  H97  1  0.99472545  0.87343500  0.32936470  1
  H+  H98  1  0.55008073  0.90824255  0.05462843  1
  H+  H99  1  0.38847038  0.52459966  0.65813890  1
  H+  H100  1  0.17089200  0.79245837  0.16541039  1
  H+  H101  1  0.10777883  0.21323778  0.16262936  1
  H+  H102  1  0.61728938  0.11363731  0.98775541  1
  H+  H103  1  0.75497607  0.11059844  0.34509336  1
  H+  H104  1  0.71507041  0.36279503  0.64814376  1
  H+  H105  1  0.10835054  0.59212482  0.32008549  1
  H+  H106  1  0.85352441  0.35011838  0.99577989  1
  H+  H107  1  0.14110173  0.11827346  0.65677671  1
  H+  H108  1  0.96266821  0.84753375  0.84836693  1
  H+  H109  1  0.63727777  0.02094962  0.65909384  1
  H+  H110  1  0.72020605  0.59096092  0.96770139  1
  H+  H111  1  0.43763586  0.87326250  -0.01555549  1
  H+  H112  1  0.88169785  0.26585375  0.84402154  1
  H+  H113  1  0.36816819  0.23463918  0.83405183  1
  H+  H114  1  0.63675474  0.50970477  0.16597538  1
  H+  H115  1  0.98700416  0.12112197  0.32042226  1
  H+  H116  1  0.98458309  0.62235657  0.66927937  1
  H+  H117  1  0.39373851  0.03201321  0.50697833  1
  H+  H118  1  0.15776186  0.56045430  0.67227096  1
  H+  H119  1  1.00146243  0.45074475  0.28462194  1
  H+  H120  1  0.83847313  0.67471710  0.39090927  1
  H+  H121  1  0.61216679  0.25265039  0.31886937  1
  H+  H122  1  0.14856727  0.12138887  -0.00956670  1
  H+  H123  1  1.00384243  0.64680161  0.15192524  1
  H+  H124  1  0.31918008  0.71024399  0.35935062  1
  H+  H125  1  0.10762338  0.22365346  0.82474554  1
  H+  H126  1  0.15327091  0.90012795  -0.00680589  1
  H+  H127  1  0.31913390  0.89895500  0.42717507  1
  H+  H128  1  0.72740186  0.89327299  0.29573547  1
  H+  H129  1  0.40054792  0.11809806  0.66442301  1
  H+  H130  1  0.13572325  0.77241828  0.50287449  1
  H+  H131  1  0.88014137  0.77767752  0.50454917  1
  H+  H132  1  0.89544375  0.53140231  0.66216867  1
  H+  H133  1  0.61377613  0.73168318  0.66782088  1
  H+  H134  1  0.51056976  0.12481154  0.34032054  1
  H+  H135  1  0.37630767  0.73648113  0.67722793  1
  H+  H136  1  0.86817148  0.63886331  0.67590026  1
  H+  H137  1  0.11697989  0.64004738  0.49300011  1
  H+  H138  1  0.42784764  0.78382416  0.30855269  1
  H+  H139  1  0.57846053  0.33446149  0.68291271  1
  H+  H140  1  0.87563754  0.39122255  0.85520663  1
  H+  H141  1  0.98755769  0.13794719  0.99353698  1
  H+  H142  1  0.12602843  0.23414508  1.00312996  1
  H+  H143  1  0.36920026  0.21307015  0.32926996  1
  H+  H144  1  0.64578762  0.05930262  0.27884143  1
  H+  H145  1  0.25731238  0.62545840  0.01277408  1
  H+  H146  1  0.11516732  0.22447274  0.48412146  1
  H+  H147  1  0.02209547  0.12580700  0.15192406  1
  H+  H148  1  0.48842680  0.35299157  0.32192720  1
  H+  H149  1  0.12721945  0.10276128  0.50071126  1
  H+  H150  1  0.48301493  0.87550260  0.33869348  1
  H+  H151  1  0.16648599  0.08205682  0.25738843  1
  H+  H152  1  0.39378715  0.12144936  0.84785465  1
  H+  H153  1  0.88108704  0.10416488  0.16825799  1
  H+  H154  1  0.85056436  0.42381220  0.09032729  1
  H+  H155  1  0.76291121  0.88260973  0.67955701  1
  H+  H156  1  0.14004762  0.63565339  -0.01212201  1
  H+  H157  1  0.53053723  0.13665527  0.49488412  1
  H+  H158  1  0.39022263  0.67489600  0.15751545  1
  H+  H159  1  0.58360286  0.66544786  0.58086094  1
  H+  H160  1  0.20717768  0.40923108  0.30577091  1
  H+  H161  1  0.52113354  0.37947914  0.48500214  1
  H+  H162  1  0.87368819  0.50518377  0.17639944  1
  H+  H163  1  0.88698471  0.14054313  0.49218824  1
  H+  H164  1  0.41314426  0.54765489  0.88295086  1
  H+  H165  1  0.62611262  0.17043696  0.83004659  1
  H+  H166  1  0.36046918  0.62355907  0.50247607  1
  H+  H167  1  0.13890601  0.10855099  0.16441842  1
  H+  H168  1  0.37773837  0.61144688  1.01568868  1
  H+  H169  1  0.11886691  0.50908099  0.32925250  1
  H+  H170  1  0.83280007  0.64576832  0.09251788  1
  H+  H171  1  0.98635320  0.12951038  0.49275423  1
  H+  H172  1  0.13027551  0.75842176  0.00310408  1
  H+  H173  1  0.43533722  0.09559741  0.90214213  1
  H+  H174  1  0.51213463  0.63548819  1.05709100  1
  H+  H175  1  0.84498095  0.92191161  0.09389024  1
  H+  H176  1  0.58538257  0.97183663  -0.00028536  1
  H+  H177  1  0.87238924  0.23595625  0.48874087  1
  H+  H178  1  0.92591391  0.10648207  0.55513494  1
  H+  H179  1  0.51590800  0.39140938  1.00639129  1
  H+  H180  1  0.25420299  0.87176649  0.49219245  1
  H+  H181  1  0.27330397  0.89000105  0.67642807  1
  H+  H182  1  0.76942180  0.38472681  0.50638244  1
  H+  H183  1  0.07410632  0.90904903  0.39494785  1
  H+  H184  1  0.92144611  0.82701365  0.21760143  1
  H+  H185  1  0.88378101  0.12433721  0.65068105  1
  H+  H186  1  0.84380339  0.96687111  0.70640207  1
  H+  H187  1  0.38780101  0.02254144  0.66294335  1
  H+  H188  1  0.67822060  0.82036839  1.00829621  1
  H+  H189  1  0.15285030  0.66065188  0.15080757  1
  H+  H190  1  0.12027645  0.38282318  0.16422349  1
  H+  H191  1  0.26043875  0.36405098  0.16231381  1
  H+  H192  1  0.36521931  0.22677824  0.15567044  1
  H+  H193  1  0.89204060  0.10978757  0.32279774  1
  H+  H194  1  0.88300559  0.86157329  0.66043937  1
  H+  H195  1  0.63219290  0.76005714  0.83886857  1
  H+  H196  1  0.12402235  0.65820032  0.68056166  1
  H+  H197  1  0.90644835  0.38977797  0.31041945  1
  H+  H198  1  0.02694325  0.37705197  0.34470710  1
  H+  H199  1  0.17814625  0.39736735  0.62515222  1
  H+  H200  1  0.89954936  0.54811193  0.33076434  1
  H+  H201  1  0.87403129  0.84755769  0.84567596  1
  H+  H202  1  0.67664559  0.84232505  0.21866869  1
  H+  H203  1  0.90647138  0.54060806  0.87147089  1
  H+  H204  1  0.87387000  0.98181360  0.32813203  1
  H+  H205  1  -0.01213445  0.64083681  0.11978277  1
  H+  H206  1  0.41163560  0.56855455  0.35284460  1
  H+  H207  1  0.87239334  0.65232422  0.33046790  1
  H+  H208  1  0.07862118  0.33352315  0.68889950  1
  H+  H209  1  0.72900747  0.61542772  0.31718593  1
  H+  H210  1  0.63573909  0.35863974  0.49702692  1
  H+  H211  1  0.63897522  0.26976933  0.49865167  1
  H+  H212  1  0.64379498  0.30424246  0.84503479  1
  H+  H213  1  0.91265118  0.83489233  0.56398143  1
  H+  H214  1  0.89065715  0.85599947  0.15970685  1
  H+  H215  1  0.76272910  0.87364834  0.83877816  1
  H+  H216  1  0.14133601  0.36058738  0.50159284  1
  H+  H217  1  0.79700762  0.41246692  0.36632200  1
  H+  H218  1  0.37098746  0.39058719  0.82237018  1
  H+  H219  1  0.88948013  0.77971978  0.32437184  1
  H+  H220  1  0.52189298  0.89318666  0.82933390  1
  H+  H221  1  0.58164814  0.65073530  0.76447351  1
  H+  H222  1  0.36851803  0.48568039  0.01707221  1
  H+  H223  1  0.92423262  0.33976790  0.21992493  1
  H+  H224  1  0.41661216  0.81340130  0.17535109  1
  H+  H225  1  0.77349280  0.60859626  0.82121939  1
  H+  H226  1  0.63376734  0.86775640  0.66656967  1
  H+  H227  1  0.03195600  0.88515932  0.14703735  1
  H+  H228  1  0.30466837  0.67282291  0.16708140  1
  H+  H229  1  0.33506623  0.45989649  0.17127252  1
  H+  H230  1  0.38752854  0.78385695  0.83584073  1
  H+  H231  1  0.71587330  0.35572242  0.16863103  1
  H+  H232  1  0.66620798  0.09305766  0.89551307  1
  H+  H233  1  0.13632463  0.86290695  0.49903954  1
  H+  H234  1  0.72816429  0.87068107  0.50580430  1
  H+  H235  1  0.14351844  0.61649098  0.84120674  1
  H+  H236  1  0.26897974  0.13882891  0.48437080  1
  H+  H237  1  0.92183765  0.10219467  0.93658373  1
  H+  H238  1  0.29403324  0.14442193  -0.00104322  1
  H+  H239  1  0.13797610  0.52418085  0.84222436  1
  H+  H240  1  0.88691242  0.77533561  0.66015389  1
  H+  H241  1  0.14230884  0.70297989  0.09063045  1
  H+  H242  1  0.36444666  0.89597343  0.82515621  1
  H+  H243  1  0.38317293  0.52342362  0.50053976  1
  H+  H244  1  0.23512864  0.87967805  0.83995286  1
  H+  H245  1  0.35386522  0.87429625  0.49255470  1
  H+  H246  1  0.61535977  0.70431842  0.13438950  1
  H+  H247  1  0.36807836  -0.01314541  0.82876520  1
  H+  H248  1  0.52908713  0.12804731  0.66238116  1
  H+  H249  1  0.72517887  0.60016314  0.51609019  1
  H+  H250  1  0.22667570  0.35682690  0.83203843  1
  H+  H251  1  0.26266211  0.87513415  0.33689883  1
  H+  H252  1  0.61941494  0.36195046  -0.00317607  1
  H+  H253  1  0.53734199  0.16692034  0.83294180  1
  H+  H254  1  0.86122514  0.71417823  0.14801253  1
  H+  H255  1  0.88176087  0.01992298  0.84600834  1
  H+  H256  1  0.57467412  0.16233064  0.39917023  1
  H+  H257  1  1.02751603  0.64766080  0.33378453  1
  H+  H258  1  0.39225840  0.36574761  0.49208294  1
  H+  H259  1  0.38605157  0.86759895  0.66678548  1
  H+  H260  1  0.85922356  0.25416675  0.65589579  1
  H+  H261  1  0.77803005  0.04972429  0.37997058  1
  H+  H262  1  0.24199412  0.37346383  0.99354070  1
  H+  H263  1  0.24963481  0.63995779  0.66431587  1
  H+  H264  1  0.90071731  0.36175699  0.15526820  1
  H+  H265  1  0.73682754  0.38448573  0.85841859  1
  H+  H266  1  0.11044298  -0.02139055  0.67525755  1
  H+  H267  1  0.38312492  0.27180518  0.49152247  1
  H+  H268  1  0.37847680  0.90509686  0.16828367  1
  H+  H269  1  0.61586396  0.21829863  0.65924974  1
  H+  H270  1  0.38508294  0.35969757  0.17394595  1
  H+  H271  1  0.86019684  0.69189986  -0.00208591  1
  H+  H272  1  0.22719384  0.11401707  0.65537315  1
  H+  H273  1  0.35038614  0.87016644  0.33962965  1
  H+  H274  1  0.75102528  0.38655131  1.00513842  1
  H+  H275  1  0.62588525  0.53688849  0.89456078  1
  H+  H276  1  0.07769538  0.41808764  0.68288446  1
  H+  H277  1  0.28081895  0.90072655  0.16499216  1
  H+  H278  1  0.27909585  0.63691258  0.82879528  1
  H+  H279  1  0.16024742  0.07506169  0.55923801  1
  H+  H280  1  0.39042879  0.61585213  0.66058197  1
  H+  H281  1  0.66517842  0.45368296  0.83686960  1
  H+  H282  1  0.52809481  0.63679615  0.52158826  1
  H+  H283  1  0.40448954  0.57556027  0.56595276  1
  H+  H284  1  0.60766053  0.38300915  0.15661451  1
  H+  H285  1  0.47980623  0.63493055  0.30644996  1
  H+  H286  1  0.64373652  0.78047501  0.51997273  1
  H+  H287  1  0.85086365  0.58010481  0.17773100  1
  H+  H288  1  0.83153606  0.91803433  0.38455903  1
  H+  H289  1  0.67644423  0.57537383  0.22787417  1
  H+  H290  1  0.32708888  0.16453270  0.42487661  1
  H+  H291  1  0.63795150  0.11227918  0.65432799  1
  H+  H292  1  0.27906192  0.39033788  0.47869430  1
  H+  H293  1  0.56425249  0.94685715  0.20571281  1
  H+  H294  1  0.07849052  0.16646288  0.76467163  1
  H+  H295  1  0.71234646  0.15494662  0.14085709  1
  H+  H296  1  0.40780780  0.32988919  0.58406702  1
  H+  H297  1  0.57702202  0.42121055  0.06581826  1
  H+  H298  1  0.90073105  0.57683293  0.26235785  1
  H+  H299  1  0.42208476  0.32788772  0.22890098  1
  H+  H300  1  0.34220351  0.41993569  0.42148693  1
  H+  H301  1  0.51073331  0.36460712  0.68069112  1
  H+  H302  1  0.08510302  0.67001969  0.39413237  1
  H+  H303  1  0.35750866  0.18061577  0.73906729  1
  H+  H304  1  0.17249700  0.59068138  0.57098742  1
  H+  H305  1  0.02829892  0.63959452  0.49535826  1
  H+  H306  1  0.15925084  0.58508641  0.93644884  1
  H+  H307  1  0.85858787  0.13448522  0.82424604  1
  H+  H308  1  0.06762598  0.39761110  0.78239503  1
  H+  H309  1  0.37811578  0.56866414  0.24314107  1
  H+  H310  1  0.34524587  0.17423529  0.06109663  1
  H+  H311  1  0.33646663  0.40992501  0.72202365  1
  H+  H312  1  0.56439265  0.15778544  0.09023667  1
  H+  H313  1  0.08889567  0.67896953  0.77873493  1
  H+  H314  1  1.02147422  0.89016202  0.67331488  1
  H+  H315  1  0.55304663  0.69052412  0.41547937  1
  H+  H316  1  0.48249187  0.11488603  0.16754535  1
  H+  H317  1  0.91743398  0.07958625  0.22593924  1
  H+  H318  1  0.58413877  0.92035265  0.73727694  1
  H+  H319  1  0.90776166  0.61032382  0.95239321  1
  H+  H320  1  0.40470397  0.84542442  0.89363191  1
  H+  H321  1  0.10463760  0.92875831  0.05788454  1
  H+  H322  1  0.59339707  0.41715713  0.39389018  1
  H+  H323  1  0.13521226  0.87121296  0.66183449  1
  H+  H324  1  1.02044831  0.88175126  0.48753916  1
  H+  H325  1  0.57668554  0.66621652  0.41174051  1
  H+  H326  1  0.42253781  0.08493860  0.22945753  1
  H+  H327  1  0.90996889  0.31942962  0.56666752  1
  H+  H328  1  0.18866949  0.86187009  0.92800237  1
  H+  H329  1  0.86397289  0.89467229  0.48723098  1
  H+  H330  1  0.66932529  0.08261606  0.56842314  1
  H+  H331  1  0.52471410  0.63803351  0.66577298  1
  H+  H332  1  0.42438527  0.35424572  0.90129638  1
  H+  H333  1  0.86553026  0.44652847  0.80450807  1
  H+  H334  1  0.16531651  0.84040366  0.60286926  1
  H+  H335  1  0.39501959  0.34285257  0.32357693  1
  H+  H336  1  0.06325531  0.27431994  0.21584217  1
  H+  H337  1  0.17713132  0.33171322  0.89563742  1
  H+  H338  1  0.03759895  0.67715021  0.01559682  1
  H+  H339  1  0.11398980  0.74038418  0.67982773  1
  H+  H340  1  0.38968452  0.28093516  0.99167863  1
  H+  H341  1  0.83777062  0.66552226  0.73725689  1
  H+  H342  1  0.34490170  0.67265579  0.73554898  1
  H+  H343  1  0.32360931  0.65742988  0.43974967  1
  H+  H344  1  0.78974822  0.32395815  0.38278679  1
  H+  H345  1  0.27423092  0.13020700  0.32793597  1
  H+  H346  1  0.44201509  0.24207023  0.70377474  1
  H+  H347  1  0.65744262  0.80686267  0.90200807  1
  H+  H348  1  0.84027173  0.47715887  0.00545119  1
  H+  H349  1  0.89211124  0.31647203  0.93896819  1
  H+  H350  1  0.41578575  0.84080436  0.60628083  1
  H+  H351  1  0.73269979  0.77882844  0.98214135  1
  H+  H352  1  0.18323613  0.57442454  0.23814948  1
  H+  H353  1  0.42853709  0.08272954  0.56919978  1
  H+  H354  1  0.67027786  0.84613827  0.60577016  1
  H+  H355  1  0.73416564  0.60533535  0.16163047  1
  H+  H356  1  0.07460937  0.91494046  0.77411207  1
  H+  H357  1  0.80956000  0.40338375  0.71414289  1
  H+  H358  1  0.62884862  0.51655201  0.98637833  1
  H+  H359  1  0.08274482  0.16408533  0.42512891  1
  H+  H360  1  0.33019851  0.41615345  0.07087416  1
  H+  H361  1  0.83246465  0.16100956  0.43107804  1
  H+  H362  1  0.65051218  0.31731118  0.22374689  1
  H+  H363  1  0.15379094  0.31916980  0.25129586  1
  H+  H364  1  0.10878870  0.97083723  0.48601796  1
  H+  H365  1  0.82208562  0.89781294  0.78062468  1
  H+  H366  1  0.65265216  0.32700320  0.59191030  1
  H+  H367  1  0.43000035  0.86206918  0.23804976  1
  H+  H368  1  0.65453771  0.34066016  0.93620140  1
  H+  H369  1  0.13739505  -0.00455213  0.99977687  1
  H+  H370  1  0.92972671  0.59848399  0.57499401  1
  H+  H371  1  0.06978819  0.46702179  0.08784035  1
  H+  H372  1  0.32528825  0.67495300  0.06663269  1
  H+  H373  1  0.16677108  0.83926107  0.26198290  1
  H+  H374  1  0.15264563  0.37043583  0.98628225  1
  H+  H375  1  0.82791301  0.16680062  0.06946377  1
  H+  H376  1  0.17980505  0.32640037  0.55232627  1
  H+  H377  1  0.09114590  0.17179989  0.06135567  1
  H+  H378  1  0.44108601  0.60980429  0.96615733  1
  H+  H379  1  0.13890151  0.52300749  0.51402713  1
  H+  H380  1  0.86768033  0.79458834  0.93336804  1
  H+  H381  1  0.57177766  0.92405672  0.41378681  1
  H+  H382  1  -0.03015854  0.10891844  0.83841744  1
  H+  H383  1  0.84459601  0.43089178  0.45783941  1
  O2-  O384  1  0.08361226  0.15801175  0.13949763  1
  O2-  O385  1  0.07814258  0.16318003  0.47084281  1
  O2-  O386  1  0.07518411  0.16318559  0.80960553  1
  O2-  O387  1  0.09903842  0.42190031  0.15150234  1
  O2-  O388  1  0.08906200  0.41892601  0.48888579  1
  O2-  O389  1  0.07743981  0.40851939  0.82637981  1
  O2-  O390  1  0.17284999  0.71543958  0.13037817  1
  O2-  O391  1  0.08738803  0.67033732  0.47747049  1
  O2-  O392  1  0.09570924  0.67955145  0.82364733  1
  O2-  O393  1  0.09329101  0.91736786  0.13453465  1
  O2-  O394  1  0.07938042  0.90990139  0.46978560  1
  O2-  O395  1  0.07381424  0.91590499  0.81926029  1
  O2-  O396  1  0.33467560  0.16669582  0.13968974  1
  O2-  O397  1  0.32769271  0.17571511  0.46900666  1
  O2-  O398  1  0.34010568  0.17505970  0.81905421  1
  O2-  O399  1  0.32032958  0.40344204  0.15163222  1
  O2-  O400  1  0.34035675  0.42662752  0.46644924  1
  O2-  O401  1  0.33163617  0.40798547  0.80054517  1
  O2-  O402  1  0.36263457  0.70918789  0.14941838  1
  O2-  O403  1  0.32718812  0.65658278  0.48822711  1
  O2-  O404  1  0.33913443  0.66866744  0.81264846  1
  O2-  O405  1  0.34431185  0.93251803  0.15159528  1
  O2-  O406  1  0.31842088  0.89975802  0.47424830  1
  O2-  O407  1  0.33380269  0.92735192  0.81188310  1
  O2-  O408  1  0.57596542  0.15765243  0.13445428  1
  O2-  O409  1  0.58986048  0.16880351  0.47514301  1
  O2-  O410  1  0.59876980  0.20551878  0.82354164  1
  O2-  O411  1  0.58210223  0.41937504  0.14503778  1
  O2-  O412  1  0.58404225  0.41135076  0.47294706  1
  O2-  O413  1  0.67158086  0.50924923  0.82136878  1
  O2-  O414  1  0.65164124  0.72920827  0.17370073  1
  O2-  O415  1  0.58821234  0.66459669  0.53628399  1
  O2-  O416  1  0.58363461  0.64981092  0.80912219  1
  O2-  O417  1  0.62276608  0.97921548  0.22295143  1
  O2-  O418  1  0.57354371  0.91524331  0.49172644  1
  O2-  O419  1  0.58330501  0.92198080  0.81475127  1
  O2-  O420  1  0.82691183  0.16495277  0.14470624  1
  O2-  O421  1  0.84471079  0.17251720  0.47632976  1
  O2-  O422  1  0.83257389  0.16796905  0.80756624  1
  O2-  O423  1  0.89017362  0.44003188  0.12572641  1
  O2-  O424  1  0.83525539  0.41865149  0.50118489  1
  O2-  O425  1  0.85456261  0.43277541  0.84753840  1
  O2-  O426  1  0.82616138  0.65205683  0.13719296  1
  O2-  O427  1  0.81593055  0.62301096  0.46974425  1
  O2-  O428  1  0.83386300  0.65264450  0.81119420  1
  O2-  O429  1  0.83767373  0.91101313  0.13896219  1
  O2-  O430  1  0.83324961  0.92319270  0.47008998  1
  O2-  O431  1  0.82464883  0.90425129  0.82526385  1
  O2-  O432  1  0.16944071  0.07909910  0.18085369  1
  O2-  O433  1  0.15550454  0.07026067  0.51421923  1
  O2-  O434  1  0.16764772  0.08742835  0.85237547  1
  O2-  O435  1  0.12427624  0.29915615  0.20646437  1
  O2-  O436  1  0.17319983  0.32856766  0.50782108  1
  O2-  O437  1  0.16834950  0.32916582  0.85065322  1
  O2-  O438  1  0.21240236  0.57716622  0.19907959  1
  O2-  O439  1  0.17203499  0.58572475  0.52557788  1
  O2-  O440  1  0.17301065  0.58499185  0.85515493  1
  O2-  O441  1  0.18457142  0.84890529  0.18578596  1
  O2-  O442  1  0.16861953  0.83486596  0.51530145  1
  O2-  O443  1  0.17534536  0.84986681  0.85818660  1
  O2-  O444  1  0.42126442  0.08685935  0.18390521  1
  O2-  O445  1  0.43795277  0.08590929  0.52419477  1
  O2-  O446  1  0.42576090  0.09107146  0.85773659  1
  O2-  O447  1  0.41997158  0.33210021  0.18349510  1
  O2-  O448  1  0.41943049  0.33319022  0.50748359  1
  O2-  O449  1  0.43180087  0.36112023  0.85594823  1
  O2-  O450  1  0.35265653  0.55337877  0.20208819  1
  O2-  O451  1  0.40681248  0.58188341  0.52017521  1
  O2-  O452  1  0.43875626  0.60871481  0.87433494  1
  O2-  O453  1  0.43904850  0.87214767  0.19346662  1
  O2-  O454  1  0.40838295  0.83717236  0.52151906  1
  O2-  O455  1  0.41661775  0.84511432  0.84772842  1
  O2-  O456  1  0.73899921  0.13150371  0.16835573  1
  O2-  O457  1  0.66831212  0.08205868  0.52206047  1
  O2-  O458  1  0.67168125  0.09555296  0.85041702  1
  O2-  O459  1  0.65468029  0.32464685  0.17819674  1
  O2-  O460  1  0.66860738  0.33144306  0.51332718  1
  O2-  O461  1  0.67507805  0.36471056  0.86300349  1
  O2-  O462  1  0.67362708  0.57298603  0.18108372  1
  O2-  O463  1  0.66914878  0.57258527  0.53787873  1
  O2-  O464  1  0.60121615  0.51528175  0.85123703  1
  O2-  O465  1  0.67675473  0.82021667  0.16990585  1
  O2-  O466  1  0.67126504  0.84334467  0.52645602  1
  O2-  O467  1  0.65759304  0.81769882  0.85780204  1
  O2-  O468  1  0.91325644  0.07511464  0.18068198  1
  O2-  O469  1  0.92387074  0.10359410  0.50903376  1
  O2-  O470  1  0.91111580  0.08192531  0.85667660  1
  O2-  O471  1  0.91935041  0.32358635  0.17612756  1
  O2-  O472  1  0.91668186  0.32695539  0.52107801  1
  O2-  O473  1  0.91144943  0.32184995  0.86713171  1
  O2-  O474  1  0.85496373  0.53717958  0.20364644  1
  O2-  O475  1  0.92608054  0.59100721  0.52940513  1
  O2-  O476  1  0.93198568  0.60348406  0.87782318  1
  O2-  O477  1  0.91999137  0.82383182  0.17300272  1
  O2-  O478  1  0.91386693  0.83716369  0.51820060  1
  O2-  O479  1  0.90066356  0.81291918  0.85929688  1
  O2-  O480  1  0.16605875  0.08453107  0.30322456  1
  O2-  O481  1  0.16726948  0.08395667  0.64191707  1
  O2-  O482  1  0.18085376  0.09340527  0.97535619  1
  O2-  O483  1  0.18565616  0.34779965  0.31074314  1
  O2-  O484  1  0.18047549  0.34612528  0.63677237  1
  O2-  O485  1  0.18262155  0.34014360  0.97421093  1
  O2-  O486  1  0.11039368  0.54436479  0.29867058  1
  O2-  O487  1  0.18781842  0.61315221  0.64864318  1
  O2-  O488  1  0.15419591  0.58952679  0.98111937  1
  O2-  O489  1  0.16117091  0.83690952  0.30775254  1
  O2-  O490  1  0.16543877  0.84003935  0.64771505  1
  O2-  O491  1  0.18703972  0.86233427  0.97512573  1
  O2-  O492  1  0.41259881  0.07087129  0.30679327  1
  O2-  O493  1  0.42110786  0.08124481  0.64521010  1
  O2-  O494  1  0.46710145  0.11993045  0.98377206  1
  O2-  O495  1  0.42887056  0.31789928  0.30567348  1
  O2-  O496  1  0.40270748  0.33380030  0.62924095  1
  O2-  O497  1  0.41660795  0.34216420  0.97751281  1
  O2-  O498  1  0.41695943  0.60957069  0.32174523  1
  O2-  O499  1  0.41849119  0.58502146  0.64195101  1
  O2-  O500  1  0.42076988  0.59063778  1.00776334  1
  O2-  O501  1  0.42469550  0.83548430  0.31670990  1
  O2-  O502  1  0.41793770  0.83848484  0.65109353  1
  O2-  O503  1  0.38316759  0.84623665  0.96137245  1
  O2-  O504  1  0.66322902  0.08837902  0.31893665  1
  O2-  O505  1  0.67057581  0.07992871  0.64156334  1
  O2-  O506  1  0.64953427  0.08452671  0.97545245  1
  O2-  O507  1  0.64643630  0.31157836  0.29930024  1
  O2-  O508  1  0.65424040  0.32592265  0.63710731  1
  O2-  O509  1  0.64804443  0.32957396  0.98147640  1
  O2-  O510  1  0.67231151  0.57820950  0.29809073  1
  O2-  O511  1  0.68344268  0.59406020  0.65513762  1
  O2-  O512  1  0.65907909  0.56869307  0.95991149  1
  O2-  O513  1  0.67404878  0.87214096  0.27181044  1
  O2-  O514  1  0.66565628  0.83819437  0.65091643  1
  O2-  O515  1  0.67838477  0.78020915  0.97849349  1
  O2-  O516  1  0.92657099  0.08623598  0.30495201  1
  O2-  O517  1  0.92263953  0.10531398  0.62916717  1
  O2-  O518  1  0.92500556  0.10778507  0.98188186  1
  O2-  O519  1  0.95496823  0.39002887  0.28940705  1
  O2-  O520  1  0.89341728  0.31569423  0.64115475  1
  O2-  O521  1  0.88177399  0.31536025  0.98464802  1
  O2-  O522  1  0.92230311  0.60011121  0.30629441  1
  O2-  O523  1  0.92506057  0.59349944  0.65125683  1
  O2-  O524  1  0.90131588  0.60511537  0.99822221  1
  O2-  O525  1  0.92400714  0.84181366  0.30931239  1
  O2-  O526  1  0.91383247  0.83403335  0.64233452  1
  O2-  O527  1  0.84414138  0.78075726  0.97589691  1
  O2-  O528  1  0.09064534  0.17310933  0.01588462  1
  O2-  O529  1  0.09087280  0.17281670  0.34854871  1
  O2-  O530  1  0.08762772  0.17364167  0.68018507  1
  O2-  O531  1  0.03511622  0.48750457  0.06708176  1
  O2-  O532  1  0.08091737  0.39755460  0.36796894  1
  O2-  O533  1  0.04579071  0.36134589  0.70140740  1
  O2-  O534  1  0.09944791  0.69854375  0.01880692  1
  O2-  O535  1  0.08760394  0.67220848  0.34893516  1
  O2-  O536  1  0.08707938  0.68026147  0.69619713  1
  O2-  O537  1  0.11044204  0.93286453  0.01239639  1
  O2-  O538  1  0.07033548  0.90701815  0.34858717  1
  O2-  O539  1  0.08052073  0.91849681  0.69055111  1
  O2-  O540  1  0.35302081  0.17832343  0.01596770  1
  O2-  O541  1  0.33325538  0.15288236  0.34448980  1
  O2-  O542  1  0.38066108  0.19369924  0.69685390  1
  O2-  O543  1  0.33519627  0.42176528  0.02582132  1
  O2-  O544  1  0.33953564  0.39297726  0.34430391  1
  O2-  O545  1  0.33617399  0.41790063  0.67709199  1
  O2-  O546  1  0.31700249  0.64660622  0.02708843  1
  O2-  O547  1  0.31338260  0.65682176  0.37516870  1
  O2-  O548  1  0.34513433  0.67424578  0.68967985  1
  O2-  O549  1  0.27615716  0.90916744  -0.00359705  1
  O2-  O550  1  0.32118006  0.90025623  0.35617622  1
  O2-  O551  1  0.33400603  0.91763351  0.69021909  1
  O2-  O552  1  0.55359084  0.16441126  0.01090579  1
  O2-  O553  1  0.57201443  0.16114838  0.35335847  1
  O2-  O554  1  0.59169612  0.15753031  0.67157225  1
  O2-  O555  1  0.57728706  0.42018446  0.02063737  1
  O2-  O556  1  0.59496004  0.41880772  0.34839393  1
  O2-  O557  1  0.53240967  0.33564023  0.70700878  1
  O2-  O558  1  0.57191993  0.66062515  0.07233986  1
  O2-  O559  1  0.56635425  0.65600956  0.28049853  1
  O2-  O560  1  0.58854733  0.66766357  0.67228400  1
  O2-  O561  1  0.54808329  0.91057392  0.01055064  1
  O2-  O562  1  0.56940110  0.92758849  0.36871832  1
  O2-  O563  1  0.58493561  0.91844077  0.69150154  1
  O2-  O564  1  0.82746425  0.16921116  0.02355331  1
  O2-  O565  1  0.80468554  0.10962740  0.36683658  1
  O2-  O566  1  0.82648051  0.15699202  0.68263683  1
  O2-  O567  1  0.81421572  0.41530894  0.01514890  1
  O2-  O568  1  0.80883684  0.36827577  0.35143472  1
  O2-  O569  1  0.82899614  0.41837575  0.67226037  1
  O2-  O570  1  0.83735165  0.63209135  0.01400459  1
  O2-  O571  1  0.84101818  0.68196518  0.34625645  1
  O2-  O572  1  0.83603311  0.66790326  0.69107480  1
  O2-  O573  1  0.86271507  0.94421972  0.01923762  1
  O2-  O574  1  0.83761396  0.91952553  0.33953695  1
  O2-  O575  1  0.82362687  0.90714112  0.69589275  1
