# generated using pymatgen
data_H2O
_symmetry_space_group_name_H-M   'P 1'
_cell_length_a   17.98927868
_cell_length_b   17.98695263
_cell_length_c   22.00817545
_cell_angle_alpha   89.98627264
_cell_angle_beta   89.99766145
_cell_angle_gamma   119.97304436
_symmetry_Int_Tables_number   1
_chemical_formula_structural   H2O
_chemical_formula_sum   'H384 O192'
_cell_volume   6168.84548439
_cell_formula_units_Z   192
loop_
 _symmetry_equiv_pos_site_id
 _symmetry_equiv_pos_as_xyz
  1  'x, y, z'
loop_
 _atom_type_symbol
 _atom_type_oxidation_number
  H+  1.0
  O2-  -2.0
loop_
 _atom_site_type_symbol
 _atom_site_label
 _atom_site_symmetry_multiplicity
 _atom_site_fract_x
 _atom_site_fract_y
 _atom_site_fract_z
 _atom_site_occupancy
  H+  H0  1  0.65658317  0.13791863  0.66117972  1
  H+  H1  1  0.62684818  0.13713022  0.82976999  1
  H+  H2  1  1.07711753  0.66328128  1.06108429  1
  H+  H3  1  0.52706981  0.64010463  0.67370045  1
  H+  H4  1  0.02465783  0.88589972  0.64145748  1
  H+  H5  1  0.52657809  0.88755878  0.48882641  1
  H+  H6  1  0.39320147  0.37056158  -0.01066206  1
  H+  H7  1  0.52642487  0.39097292  0.82642656  1
  H+  H8  1  0.84098467  0.92643012  0.43551876  1
  H+  H9  1  0.26688679  0.87889973  0.49134089  1
  H+  H10  1  0.76559502  0.89275770  -0.00014126  1
  H+  H11  1  0.13339832  0.76652721  0.16627232  1
  H+  H12  1  0.36552708  0.22709903  -0.02756100  1
  H+  H13  1  0.94195035  0.09357725  0.17022458  1
  H+  H14  1  0.13444847  0.61331277  0.34011920  1
  H+  H15  1  0.73650665  0.86673134  0.16912179  1
  H+  H16  1  0.10539309  0.97592266  0.85578854  1
  H+  H17  1  0.83573205  0.93347211  0.77007406  1
  H+  H18  1  0.48979605  0.11740305  0.33215499  1
  H+  H19  1  1.02391210  0.37535603  0.49969040  1
  H+  H20  1  0.89097334  0.59472775  0.17449375  1
  H+  H21  1  0.64042765  0.78424969  0.50820918  1
  H+  H22  1  0.88054495  0.03940771  0.51547686  1
  H+  H23  1  0.35201091  0.70871989  0.33121649  1
  H+  H24  1  -0.01571851  0.12101140  0.32718872  1
  H+  H25  1  0.73038669  0.37073907  0.34879359  1
  H+  H26  1  0.24589734  0.13747457  0.18440996  1
  H+  H27  1  0.38237703  0.36149588  0.32848578  1
  H+  H28  1  0.61232805  0.47807783  0.16674646  1
  H+  H29  1  0.62327550  0.98006322  0.33480461  1
  H+  H30  1  0.33374412  0.66199024  0.76585877  1
  H+  H31  1  0.10800108  0.38846312  1.01491212  1
  H+  H32  1  0.48250011  0.62258892  0.51135005  1
  H+  H33  1  0.48844919  0.10922999  0.66763472  1
  H+  H34  1  0.87664848  0.18097108  0.16295622  1
  H+  H35  1  0.83398949  0.67300887  0.76863362  1
  H+  H36  1  0.61714849  0.38362007  0.47771801  1
  H+  H37  1  1.01443605  0.39082232  0.33894966  1
  H+  H38  1  0.13064311  0.23685065  0.48525860  1
  H+  H39  1  0.22537699  0.60163783  0.33778079  1
  H+  H40  1  0.75291402  0.09924431  0.84420078  1
  H+  H41  1  0.12026202  0.64409485  0.15120088  1
  H+  H42  1  0.42587886  0.33911783  0.55488377  1
  H+  H43  1  0.65660112  0.23895142  0.14205707  1
  H+  H44  1  0.77193046  0.30958641  0.06342554  1
  H+  H45  1  0.86134563  0.73737610  0.67447940  1
  H+  H46  1  0.37795845  0.85171926  0.65804154  1
  H+  H47  1  0.01946465  0.39259626  0.67329615  1
  H+  H48  1  0.23009743  0.62550375  0.16260722  1
  H+  H49  1  0.85916889  0.99475428  0.82771843  1
  H+  H50  1  0.46118453  0.84822534  -0.00794131  1
  H+  H51  1  0.62235425  0.89057360  0.15887525  1
  H+  H52  1  0.38575459  0.77175665  0.50197504  1
  H+  H53  1  0.43275054  0.86645979  0.82922276  1
  H+  H54  1  0.61946959  0.22921143  0.35057555  1
  H+  H55  1  0.77101181  0.39550012  0.19609070  1
  H+  H56  1  0.13082772  0.37112188  0.64721928  1
  H+  H57  1  0.10953473  -0.00342838  0.18201263  1
  H+  H58  1  0.61017119  0.92897465  0.67695310  1
  H+  H59  1  0.10347854  0.25874516  0.19025806  1
  H+  H60  1  0.38519706  0.86022655  0.50324531  1
  H+  H61  1  0.38989666  0.61269006  0.66371722  1
  H+  H62  1  0.23490099  0.12271487  0.66446193  1
  H+  H63  1  0.36774470  0.13704275  0.66781146  1
  H+  H64  1  0.67609019  0.15966295  0.14423346  1
  H+  H65  1  0.28427640  0.39670265  0.00534219  1
  H+  H66  1  0.62692398  0.39991334  0.38187706  1
  H+  H67  1  0.60758269  0.22731245  0.67627956  1
  H+  H68  1  0.89587925  0.24652092  0.84891186  1
  H+  H69  1  0.14544206  0.06625164  0.69483613  1
  H+  H70  1  0.36767005  0.39307364  0.15426745  1
  H+  H71  1  0.53444955  0.68171933  0.36092446  1
  H+  H72  1  0.62243648  0.72331937  0.67007128  1
  H+  H73  1  0.63622668  0.60991124  0.66269738  1
  H+  H74  1  0.36820498  0.40008024  0.48910967  1
  H+  H75  1  0.39015195  0.27574566  0.83862571  1
  H+  H76  1  0.62077780  0.22357246  0.83238745  1
  H+  H77  1  0.87027236  0.14433321  0.33851889  1
  H+  H78  1  0.47823753  0.61291293  0.83448338  1
  H+  H79  1  0.61682280  0.47700781  0.67253448  1
  H+  H80  1  0.88632206  0.86891821  0.50447110  1
  H+  H81  1  0.83583696  0.28427346  0.84691046  1
  H+  H82  1  0.37684811  0.48632481  0.99852836  1
  H+  H83  1  0.37404366  0.14607473  0.33761891  1
  H+  H84  1  0.01855716  0.63860007  0.65881795  1
  H+  H85  1  0.22176543  0.85587814  0.16434050  1
  H+  H86  1  0.62611372  0.61512234  0.18490896  1
  H+  H87  1  0.36038262  0.72023792  0.67117397  1
  H+  H88  1  0.23232461  0.12010553  0.32315994  1
  H+  H89  1  0.48105226  0.36759361  0.99243828  1
  H+  H90  1  0.36824465  0.38613312  0.83023796  1
  H+  H91  1  0.13834276  0.61550889  0.83601355  1
  H+  H92  1  0.83233822  0.21118338  0.48716727  1
  H+  H93  1  1.01857514  0.38639370  1.00334276  1
  H+  H94  1  0.36603353  0.84673050  0.32163100  1
  H+  H95  1  0.13176841  0.36778026  0.32873031  1
  H+  H96  1  0.33684673  0.66166184  0.43133534  1
  H+  H97  1  0.66814122  0.58212143  0.60300234  1
  H+  H98  1  0.01003017  0.13468744  0.00023591  1
  H+  H99  1  0.59350566  0.64148649  0.35089592  1
  H+  H100  1  0.41652401  0.77262348  0.83201557  1
  H+  H101  1  0.14029945  0.61583632  0.64374861  1
  H+  H102  1  0.86818192  0.83777915  0.15552900  1
  H+  H103  1  0.13207945  0.12482257  0.83245460  1
  H+  H104  1  0.73061961  0.61673190  0.50740604  1
  H+  H105  1  0.73391806  0.11907613  0.31984221  1
  H+  H106  1  0.01476044  0.64278963  0.83339468  1
  H+  H107  1  1.00267908  0.85864948  0.15507889  1
  H+  H108  1  0.65804095  0.84048999  0.93670808  1
  H+  H109  1  0.85939177  0.72903490  0.49348574  1
  H+  H110  1  0.04417981  0.39347056  0.82511017  1
  H+  H111  1  0.79468018  0.90655584  0.67582714  1
  H+  H112  1  0.12719385  0.48723135  0.82599932  1
  H+  H113  1  0.17415134  0.33988221  0.06876508  1
  H+  H114  1  0.34885517  0.96405245  0.16346506  1
  H+  H115  1  0.74073666  0.79235583  0.62045494  1
  H+  H116  1  0.86818523  0.40982825  0.81300248  1
  H+  H117  1  0.91153221  0.09559589  0.61573549  1
  H+  H118  1  0.64659037  0.14222198  -0.00750663  1
  H+  H119  1  0.72396679  0.88370503  0.83689652  1
  H+  H120  1  0.96741432  0.86500509  0.85499827  1
  H+  H121  1  0.66885238  0.09265402  0.22816719  1
  H+  H122  1  0.62383873  0.64271003  0.00860415  1
  H+  H123  1  0.86128218  0.64055743  0.49317907  1
  H+  H124  1  0.02050910  0.15825288  0.82280433  1
  H+  H125  1  0.22011626  0.12152040  0.83481739  1
  H+  H126  1  0.13224174  0.76797342  0.99498461  1
  H+  H127  1  0.86394801  0.38873481  0.34448559  1
  H+  H128  1  0.39284550  0.53357542  0.50709829  1
  H+  H129  1  0.87765383  0.35006606  0.66393712  1
  H+  H130  1  0.11042653  0.89021491  0.85817432  1
  H+  H131  1  0.10625612  0.47191708  0.49169587  1
  H+  H132  1  0.50951203  0.15157394  0.16274021  1
  H+  H133  1  0.13190928  0.85478915  0.50629792  1
  H+  H134  1  0.88291809  0.52448270  0.50451960  1
  H+  H135  1  0.76052725  0.37065016  0.66195063  1
  H+  H136  1  0.10385678  0.15416975  0.66995579  1
  H+  H137  1  0.37122739  0.23521421  0.33396225  1
  H+  H138  1  0.58853689  0.16979347  0.73803990  1
  H+  H139  1  0.97365655  0.61136489  0.49949147  1
  H+  H140  1  0.77593366  0.64423216  0.67423211  1
  H+  H141  1  0.05283591  0.06933077  0.15642625  1
  H+  H142  1  0.84364982  0.04016085  0.18304906  1
  H+  H143  1  0.13630646  0.06140537  0.23938421  1
  H+  H144  1  0.52057074  0.12981365  0.49134936  1
  H+  H145  1  0.88672921  0.51900569  0.99740337  1
  H+  H146  1  0.39117659  1.01371932  0.82955252  1
  H+  H147  1  0.13854764  0.54080853  0.16526848  1
  H+  H148  1  0.37580732  0.50663540  0.32225556  1
  H+  H149  1  0.63507826  0.23268761  -0.00613138  1
  H+  H150  1  0.89510946  0.88089693  0.66199271  1
  H+  H151  1  0.11160610  0.72187722  0.49154564  1
  H+  H152  1  0.85897923  0.73176329  0.82848167  1
  H+  H153  1  0.47757765  0.36826090  0.49193138  1
  H+  H154  1  0.49900822  0.11622975  0.14016631  1
  H+  H155  1  0.24602041  0.41185472  0.17544372  1
  H+  H156  1  0.59246348  0.67067890  0.06778430  1
  H+  H157  1  0.63395031  0.40372404  0.16741615  1
  H+  H158  1  0.38479511  0.05866802  0.25213509  1
  H+  H159  1  0.87443185  0.77313117  -0.00241534  1
  H+  H160  1  0.14504716  0.36792283  0.49839564  1
  H+  H161  1  0.65062636  0.87847451  0.32315172  1
  H+  H162  1  0.61186687  0.98112688  0.48836248  1
  H+  H163  1  0.86690880  0.14923588  0.78239042  1
  H+  H164  1  0.63849256  0.02891942  0.17069131  1
  H+  H165  1  0.78524046  0.89766098  0.33916510  1
  H+  H166  1  0.61989635  0.64314256  0.50357444  1
  H+  H167  1  0.88502228  0.27632954  0.32234967  1
  H+  H168  1  0.87585374  0.98249223  0.34159772  1
  H+  H169  1  0.85467785  0.38327277  0.49821718  1
  H+  H170  1  0.37802456  0.85488597  -0.00872872  1
  H+  H171  1  0.12432388  0.50973319  0.34124202  1
  H+  H172  1  0.72617869  0.36912909  0.83426670  1
  H+  H173  1  0.58120308  0.50942656  0.34887620  1
  H+  H174  1  0.86874813  0.22629259  0.00209653  1
  H+  H175  1  0.03030574  0.63320096  0.33971599  1
  H+  H176  1  0.66823135  0.58514638  0.93331104  1
  H+  H177  1  0.48445650  0.35717259  0.65113574  1
  H+  H178  1  0.94159296  0.24561285  0.54161793  1
  H+  H179  1  0.13936431  0.89645792  0.34402395  1
  H+  H180  1  0.88207484  0.31428311  0.16549175  1
  H+  H181  1  0.59415982  0.67966284  0.44578474  1
  H+  H182  1  0.85372614  0.88882914  -0.00085675  1
  H+  H183  1  0.89694575  0.63625941  0.65492260  1
  H+  H184  1  0.13709553  0.52615902  0.65004220  1
  H+  H185  1  0.32749219  0.12889449  0.19606511  1
  H+  H186  1  0.25061498  0.37202587  0.82787619  1
  H+  H187  1  0.36387794  0.23130686  0.48351467  1
  H+  H188  1  0.27964818  0.40066079  0.49303040  1
  H+  H189  1  0.62579415  0.26191719  0.49984259  1
  H+  H190  1  0.52710025  0.97393884  0.04272338  1
  H+  H191  1  0.37730423  0.11502756  0.49169582  1
  H+  H192  1  0.17464109  0.82721165  0.26173171  1
  H+  H193  1  0.08228102  0.21159449  0.18297862  1
  H+  H194  1  0.89672845  0.61339629  0.33185915  1
  H+  H195  1  0.09601827  0.86559708  0.16071891  1
  H+  H196  1  0.48170669  0.10468434  0.83420224  1
  H+  H197  1  0.66366622  0.01402837  0.84473646  1
  H+  H198  1  0.47210979  0.56729891  0.30848097  1
  H+  H199  1  0.13847323  0.85806271  0.64438344  1
  H+  H200  1  0.15554200  0.37636109  0.82792426  1
  H+  H201  1  0.14247594  0.11860535  0.32841377  1
  H+  H202  1  0.61492922  0.48052864  0.82674842  1
  H+  H203  1  0.63944660  0.52402303  0.99249735  1
  H+  H204  1  0.36320269  0.96788392  0.67776728  1
  H+  H205  1  0.11152436  0.96635530  0.49787147  1
  H+  H206  1  0.36082715  0.13521283  0.82310973  1
  H+  H207  1  0.76043555  0.58520895  0.14653779  1
  H+  H208  1  0.65830642  0.07751822  0.55256508  1
  H+  H209  1  0.72591329  0.61879557  0.83897233  1
  H+  H210  1  0.86239848  0.74522774  0.16182575  1
  H+  H211  1  0.11219539  0.63235817  0.48980608  1
  H+  H212  1  0.28677781  0.88720812  0.83120948  1
  H+  H213  1  0.13528829  0.98324883  0.34711294  1
  H+  H214  1  0.22547026  0.60792571  0.49671828  1
  H+  H215  1  0.36642275  0.88591256  0.15178209  1
  H+  H216  1  -0.02796815  0.86149002  0.50657255  1
  H+  H217  1  0.61860794  0.72982221  0.16383298  1
  H+  H218  1  0.72751767  0.36150814  0.99115869  1
  H+  H219  1  0.14749406  0.78093323  0.84685560  1
  H+  H220  1  0.77231264  0.63095502  0.00571448  1
  H+  H221  1  0.27298893  0.63131273  0.66917814  1
  H+  H222  1  0.23068463  0.11292086  0.50170400  1
  H+  H223  1  0.86211016  0.63214271  1.00564690  1
  H+  H224  1  0.48790364  0.61336070  0.99129966  1
  H+  H225  1  0.90964399  0.09066975  0.92208304  1
  H+  H226  1  0.85142815  0.10783303  0.51046453  1
  H+  H227  1  0.87874019  0.85032148  0.32074089  1
  H+  H228  1  0.09694120  0.92318508  0.07311804  1
  H+  H229  1  0.37282243  0.01611629  0.97925400  1
  H+  H230  1  0.01719363  0.41268104  0.15800951  1
  H+  H231  1  0.12598042  0.26671111  1.02145127  1
  H+  H232  1  0.86031798  0.49230900  0.82230605  1
  H+  H233  1  0.88274206  0.62181462  0.84268283  1
  H+  H234  1  0.14935629  0.77092997  0.32287162  1
  H+  H235  1  0.59432403  0.92021728  0.39356813  1
  H+  H236  1  0.63517445  0.36392923  0.83739059  1
  H+  H237  1  0.70733784  0.61905699  0.21755479  1
  H+  H238  1  0.33852152  0.71371261  0.00141173  1
  H+  H239  1  0.13580623  0.03343694  0.98898855  1
  H+  H240  1  0.51051626  0.87485477  0.67936779  1
  H+  H241  1  0.14002859  0.76991145  0.65744490  1
  H+  H242  1  0.56292357  0.86832587  0.83179052  1
  H+  H243  1  0.48452941  0.86599631  0.16848342  1
  H+  H244  1  0.11773121  0.23168070  0.33242091  1
  H+  H245  1  0.79324705  0.14462485  0.69567900  1
  H+  H246  1  0.37051589  0.11116439  -0.03603458  1
  H+  H247  1  0.63789493  0.77892970  0.99371719  1
  H+  H248  1  0.39226847  0.52691721  0.16170173  1
  H+  H249  1  0.61007368  -0.00629630  1.00802251  1
  H+  H250  1  0.30154709  0.77443469  0.27931090  1
  H+  H251  1  0.15779922  0.41519240  0.17797139  1
  H+  H252  1  0.73724146  0.12296948  0.48371763  1
  H+  H253  1  0.87966718  1.00293968  0.67893249  1
  H+  H254  1  0.87941989  0.35138259  0.00026357  1
  H+  H255  1  0.14298629  0.27723458  0.82560111  1
  H+  H256  1  0.26321880  0.38606721  0.34116051  1
  H+  H257  1  0.63927815  0.87359614  0.50609117  1
  H+  H258  1  0.88064032  0.13636274  0.68650130  1
  H+  H259  1  0.37860825  0.27639658  0.18321526  1
  H+  H260  1  0.27984366  0.64015478  0.82741994  1
  H+  H261  1  0.27072275  0.14069128  -0.02793475  1
  H+  H262  1  0.27185283  0.88697968  0.00253004  1
  H+  H263  1  0.87885366  0.02422624  0.98063338  1
  H+  H264  1  0.77863793  0.89661492  0.49325138  1
  H+  H265  1  0.86695478  0.13589819  0.00165132  1
  H+  H266  1  0.61078028  0.12264130  0.49410388  1
  H+  H267  1  0.27152242  0.88092706  0.67365558  1
  H+  H268  1  0.92455845  0.30790834  0.58143912  1
  H+  H269  1  0.86108409  0.71218337  0.33360827  1
  H+  H270  1  0.36278207  0.62477106  0.33343595  1
  H+  H271  1  0.38720201  0.47980690  0.67197824  1
  H+  H272  1  0.28465088  0.89095910  0.33915134  1
  H+  H273  1  0.16223217  0.58488322  0.89767341  1
  H+  H274  1  0.64492952  0.11791041  0.32568031  1
  H+  H275  1  0.90830484  0.51517992  0.18098173  1
  H+  H276  1  0.19012561  0.97980553  0.04942823  1
  H+  H277  1  0.36654054  0.63867726  0.49378106  1
  H+  H278  1  0.36876313  0.47781039  0.82812709  1
  H+  H279  1  0.64218584  0.52812177  0.50432292  1
  H+  H280  1  0.61563982  0.38637404  1.00614402  1
  H+  H281  1  0.65535354  0.79213596  0.32617698  1
  H+  H282  1  0.36430376  0.63667878  0.15268608  1
  H+  H283  1  0.63781920  0.62028129  0.84014429  1
  H+  H284  1  0.11597782  0.97099638  0.63397246  1
  H+  H285  1  0.74433909  0.11910228  -0.00895742  1
  H+  H286  1  0.37419728  0.22930763  0.66453249  1
  H+  H287  1  0.83960217  0.39488678  0.09072487  1
  H+  H288  1  0.12287603  0.14462051  0.48450004  1
  H+  H289  1  0.90169615  0.96685561  0.13586903  1
  H+  H290  1  0.68791046  0.83162187  0.59311444  1
  H+  H291  1  0.90834028  0.84021404  0.59918312  1
  H+  H292  1  0.34504860  0.42496303  0.09182160  1
  H+  H293  1  0.33618806  0.92667886  0.05903804  1
  H+  H294  1  0.42250591  0.33748994  0.89768490  1
  H+  H295  1  0.21219036  0.61329234  0.98933260  1
  H+  H296  1  0.90843607  0.34535019  0.26742651  1
  H+  H297  1  0.73548958  0.18334885  0.61815796  1
  H+  H298  1  0.88107509  0.86928205  0.84156653  1
  H+  H299  1  0.09019890  0.42897988  0.72626825  1
  H+  H300  1  0.33379975  0.17231669  0.42348771  1
  H+  H301  1  0.83272708  0.91619933  0.08594093  1
  H+  H302  1  0.09909178  0.13494817  0.00369572  1
  H+  H303  1  0.82574859  0.64007710  0.09487143  1
  H+  H304  1  0.41832389  0.34097971  0.26925215  1
  H+  H305  1  0.68709511  0.08574424  0.92803757  1
  H+  H306  1  0.07540004  0.63358491  0.71423118  1
  H+  H307  1  0.92886017  0.58172690  0.27337918  1
  H+  H308  1  0.41390814  0.57819365  0.22414112  1
  H+  H309  1  0.35685059  0.41800691  0.72905973  1
  H+  H310  1  0.15135172  0.08774540  0.92725166  1
  H+  H311  1  0.09404468  0.17607697  0.39390481  1
  H+  H312  1  0.89740586  0.82741387  0.93675631  1
  H+  H313  1  0.42245654  0.58937840  0.60310556  1
  H+  H314  1  0.58742067  0.92424986  0.10318682  1
  H+  H315  1  0.17332637  0.08885556  0.56141756  1
  H+  H316  1  0.17034728  0.33999933  0.56059279  1
  H+  H317  1  0.87054748  0.48136195  0.34635790  1
  H+  H318  1  0.07308532  0.42864912  0.09764882  1
  H+  H319  1  0.02990830  0.10188782  0.09409934  1
  H+  H320  1  0.59987834  0.55243162  0.28278602  1
  H+  H321  1  0.18052528  0.83798661  0.90571640  1
  H+  H322  1  0.41343730  0.82929860  0.22192335  1
  H+  H323  1  0.10312098  0.63161950  -0.00072942  1
  H+  H324  1  0.62763502  0.35828756  0.65533981  1
  H+  H325  1  0.07749326  0.18137275  0.76074256  1
  H+  H326  1  0.39526285  0.08639453  0.55467201  1
  H+  H327  1  0.44993184  0.04796752  0.61237410  1
  H+  H328  1  0.97554199  0.60829223  0.99489863  1
  H+  H329  1  0.66776194  0.35004452  0.29441553  1
  H+  H330  1  0.83628907  0.65929095  0.39519279  1
  H+  H331  1  0.33713198  0.90957812  0.76821590  1
  H+  H332  1  0.90639527  0.32780904  0.93467853  1
  H+  H333  1  0.36849729  0.72764282  0.15020747  1
  H+  H334  1  0.42912269  0.58413059  0.93133798  1
  H+  H335  1  0.12325196  0.52272368  0.98552201  1
  H+  H336  1  0.58526027  0.41632636  0.73124818  1
  H+  H337  1  0.64725709  0.32101917  0.59437813  1
  H+  H338  1  0.58771162  0.16161873  0.40461931  1
  H+  H339  1  0.61094692  0.73641243  0.82465337  1
  H+  H340  1  0.33778690  0.17013591  0.76436099  1
  H+  H341  1  0.85411466  0.19958445  0.09744170  1
  H+  H342  1  0.41033871  0.07114041  0.91098692  1
  H+  H343  1  0.40092232  0.02770873  0.33831326  1
  H+  H344  1  0.16827901  0.82459602  0.56230615  1
  H+  H345  1  0.35325782  0.97086027  0.49060147  1
  H+  H346  1  0.06975649  0.69973579  0.77847373  1
  H+  H347  1  0.37856635  0.16502024  0.06706528  1
  H+  H348  1  0.30807470  0.65366213  0.05954805  1
  H+  H349  1  0.32813389  0.42161849  0.39916703  1
  H+  H350  1  0.64130626  0.18808978  0.06033761  1
  H+  H351  1  0.28817683  -0.00038403  0.23485244  1
  H+  H352  1  0.39895559  0.36103367  0.65315424  1
  H+  H353  1  0.02766439  0.63742658  0.15631419  1
  H+  H354  1  0.89311146  0.26949787  0.67862803  1
  H+  H355  1  0.47371374  0.35707457  0.17163247  1
  H+  H356  1  0.14255451  0.86292046  0.99806051  1
  H+  H357  1  0.59147776  0.41846861  0.06697097  1
  H+  H358  1  0.08871669  0.66604980  0.40028728  1
  H+  H359  1  0.11776259  0.97730599  0.75576916  1
  H+  H360  1  0.00583909  0.14226175  0.67417058  1
  H+  H361  1  0.58789452  0.67539153  0.76659445  1
  H+  H362  1  0.11097230  0.93371842  0.74738114  1
  H+  H363  1  0.82647495  0.16894237  0.39299608  1
  H+  H364  1  0.39929445  0.17109872  0.09764290  1
  H+  H365  1  0.16825384  0.58016151  0.55673314  1
  H+  H366  1  0.06932932  0.41308890  0.40244160  1
  H+  H367  1  0.92066872  0.60228976  0.59381796  1
  H+  H368  1  0.17670665  0.36327835  0.26797422  1
  H+  H369  1  0.91659566  0.09164714  0.27173323  1
  H+  H370  1  0.52633927  0.64147021  0.16146397  1
  H+  H371  1  0.68082642  0.84321605  0.23048163  1
  H+  H372  1  0.08969699  0.91139952  0.43760476  1
  H+  H373  1  0.12249851  0.27921335  0.65089534  1
  H+  H374  1  0.38730415  0.60867331  0.83590715  1
  H+  H375  1  0.67312437  0.33781667  0.92778763  1
  H+  H376  1  0.71425957  0.35260436  0.50271599  1
  H+  H377  1  0.83172571  0.41417797  0.43667099  1
  H+  H378  1  0.33741473  0.91279238  0.40144992  1
  H+  H379  1  0.90945894  0.58411553  0.90087990  1
  H+  H380  1  0.40930359  0.82518017  0.59717570  1
  H+  H381  1  0.74775952  0.45539315  0.23285919  1
  H+  H382  1  0.89247140  0.81234233  0.25896931  1
  H+  H383  1  0.82213779  0.41640701  0.71771692  1
  O2-  O384  1  0.00523741  0.06891564  0.13237953  1
  O2-  O385  1  0.09996626  0.17907401  0.46616874  1
  O2-  O386  1  0.08188575  0.18479870  0.80731088  1
  O2-  O387  1  0.07617782  0.43314102  0.14292795  1
  O2-  O388  1  0.07741818  0.41147704  0.47596307  1
  O2-  O389  1  0.10281034  0.42639492  0.80946825  1
  O2-  O390  1  0.08488851  0.67132965  0.13615813  1
  O2-  O391  1  0.08087338  0.66178460  0.47467722  1
  O2-  O392  1  0.07481104  0.67315436  0.81571717  1
  O2-  O393  1  0.06519853  0.89507521  0.14523408  1
  O2-  O394  1  0.08031570  0.90607966  0.48323352  1
  O2-  O395  1  0.07343861  0.91482885  0.86743275  1
  O2-  O396  1  0.30912620  0.17096662  0.18723251  1
  O2-  O397  1  0.33303033  0.17035098  0.46957916  1
  O2-  O398  1  0.33393152  0.16884933  0.80955228  1
  O2-  O399  1  0.34139126  0.42622285  0.13728083  1
  O2-  O400  1  0.34027467  0.43346110  0.47645065  1
  O2-  O401  1  0.33660356  0.41536782  0.81425603  1
  O2-  O402  1  0.33327273  0.66633981  0.13827817  1
  O2-  O403  1  0.33314377  0.66484421  0.47616997  1
  O2-  O404  1  0.33881453  0.66347529  0.81125362  1
  O2-  O405  1  0.33211673  0.91266349  0.13751204  1
  O2-  O406  1  0.32828543  0.91018638  0.47704880  1
  O2-  O407  1  0.34567303  0.91601345  0.81326834  1
  O2-  O408  1  0.68037122  0.21107177  0.11709120  1
  O2-  O409  1  0.58158022  0.16076369  0.47950720  1
  O2-  O410  1  0.59200330  0.16310082  0.81738034  1
  O2-  O411  1  0.59593357  0.42187680  0.14783632  1
  O2-  O412  1  0.59109466  0.42012420  0.46429201  1
  O2-  O413  1  0.58731362  0.41980077  0.81197165  1
  O2-  O414  1  0.58898957  0.66828382  0.15065869  1
  O2-  O415  1  0.58992296  0.67499371  0.49094425  1
  O2-  O416  1  0.58622465  0.67564875  0.81221701  1
  O2-  O417  1  0.58919049  0.91972891  0.14824018  1
  O2-  O418  1  0.58707383  0.91806661  0.47476012  1
  O2-  O419  1  0.62820053  0.90406331  0.82771525  1
  O2-  O420  1  0.86708087  0.22217086  0.13940237  1
  O2-  O421  1  0.80174580  0.15530726  0.46686348  1
  O2-  O422  1  0.86570614  0.14655985  0.82867328  1
  O2-  O423  1  0.85993281  0.41397628  0.16108131  1
  O2-  O424  1  0.82521636  0.41233714  0.48251349  1
  O2-  O425  1  0.82998489  0.43246996  0.80478001  1
  O2-  O426  1  0.82016018  0.62962311  0.14071602  1
  O2-  O427  1  0.82806966  0.66812724  0.47892792  1
  O2-  O428  1  0.83188931  0.67040105  0.81422836  1
  O2-  O429  1  0.84364725  0.91581143  0.13132307  1
  O2-  O430  1  0.84020396  0.92615086  0.48104970  1
  O2-  O431  1  0.82838467  0.93242954  0.81551218  1
  O2-  O432  1  0.12861160  0.05682827  0.19409343  1
  O2-  O433  1  0.17048952  0.08022238  0.51740514  1
  O2-  O434  1  0.16011917  0.09378415  0.84981911  1
  O2-  O435  1  0.20227033  0.41220817  0.20247262  1
  O2-  O436  1  0.17940010  0.34305210  0.51448919  1
  O2-  O437  1  0.18243543  0.34061815  0.83985247  1
  O2-  O438  1  0.17013521  0.60218001  0.17758685  1
  O2-  O439  1  0.16441824  0.57807638  0.51101307  1
  O2-  O440  1  0.16730383  0.58503824  0.85130526  1
  O2-  O441  1  0.16381781  0.82712584  0.18341243  1
  O2-  O442  1  0.16440724  0.82407291  0.51695472  1
  O2-  O443  1  0.18201802  0.84127530  0.86019867  1
  O2-  O444  1  0.34426757  0.03557081  0.21625519  1
  O2-  O445  1  0.40161665  0.08041076  0.51115873  1
  O2-  O446  1  0.41954081  0.07612504  0.84474990  1
  O2-  O447  1  0.41610789  0.34037239  0.18728859  1
  O2-  O448  1  0.41929401  0.33961919  0.50971358  1
  O2-  O449  1  0.42081099  0.33702088  0.85189962  1
  O2-  O450  1  0.42063666  0.58674028  0.17937926  1
  O2-  O451  1  0.42090414  0.59339712  0.52416606  1
  O2-  O452  1  0.41801132  0.57772684  0.84946728  1
  O2-  O453  1  0.42117364  0.83533190  0.17730967  1
  O2-  O454  1  0.41662423  0.83138128  0.51843189  1
  O2-  O455  1  0.45987484  0.83305192  0.84087945  1
  O2-  O456  1  0.66646688  0.09033467  0.18266175  1
  O2-  O457  1  0.65177827  0.07702368  0.50840820  1
  O2-  O458  1  0.69122963  0.07639464  0.85443931  1
  O2-  O459  1  0.72007945  0.39841347  0.21441278  1
  O2-  O460  1  0.65210145  0.32434738  0.51292705  1
  O2-  O461  1  0.66752830  0.33503171  0.85222226  1
  O2-  O462  1  0.64788136  0.57911343  0.20650177  1
  O2-  O463  1  0.66980097  0.58529355  0.52384438  1
  O2-  O464  1  0.66549236  0.58713825  0.85455958  1
  O2-  O465  1  0.67687989  0.83812529  0.18471887  1
  O2-  O466  1  0.67229980  0.84537005  0.52154133  1
  O2-  O467  1  0.66205133  0.85046982  0.85185663  1
  O2-  O468  1  0.89413037  0.09474727  0.19370909  1
  O2-  O469  1  0.88958985  0.09331712  0.53403587  1
  O2-  O470  1  0.91645299  0.10414222  0.84676699  1
  O2-  O471  1  0.90705302  0.37199947  0.18677053  1
  O2-  O472  1  0.93286514  0.29501520  0.53805675  1
  O2-  O473  1  0.89538471  0.30182621  0.85633265  1
  O2-  O474  1  0.93021057  0.57749173  0.19327697  1
  O2-  O475  1  0.91394336  0.58627190  0.51552563  1
  O2-  O476  1  0.91273719  0.58948731  0.85566800  1
  O2-  O477  1  0.89483879  0.80605333  0.17427507  1
  O2-  O478  1  0.91137289  0.83403821  0.52130968  1
  O2-  O479  1  0.90288535  0.83155445  0.85622217  1
  O2-  O480  1  0.16989548  0.08518503  0.31348735  1
  O2-  O481  1  0.17147623  0.09296404  0.65603018  1
  O2-  O482  1  0.15803257  0.09212388  0.97258576  1
  O2-  O483  1  0.16472611  0.34218623  0.31151962  1
  O2-  O484  1  0.15502590  0.33649141  0.63102787  1
  O2-  O485  1  0.16267507  0.33121824  1.02526168  1
  O2-  O486  1  0.16201367  0.57533229  0.32812799  1
  O2-  O487  1  0.17198338  0.58546421  0.63246936  1
  O2-  O488  1  0.15070201  0.58268736  0.96968125  1
  O2-  O489  1  0.18417072  0.83019721  0.30671479  1
  O2-  O490  1  0.17443954  0.82937485  0.64159367  1
  O2-  O491  1  0.16845473  0.82938254  0.98165392  1
  O2-  O492  1  0.42724224  0.08644637  0.32043291  1
  O2-  O493  1  0.43189123  0.07176431  0.64534912  1
  O2-  O494  1  0.40254325  0.07487601  0.95814379  1
  O2-  O495  1  0.41584110  0.33479580  0.31412279  1
  O2-  O496  1  0.42466457  0.32676444  0.63478752  1
  O2-  O497  1  0.42295068  0.33939706  0.97365382  1
  O2-  O498  1  0.41701943  0.56631368  0.30490852  1
  O2-  O499  1  0.42540008  0.58794018  0.64841314  1
  O2-  O500  1  0.42816910  0.57848867  0.97611600  1
  O2-  O501  1  0.35957854  0.79765294  0.29545429  1
  O2-  O502  1  0.40580656  0.81955568  0.64243815  1
  O2-  O503  1  0.40045543  0.81667726  0.98047400  1
  O2-  O504  1  0.67288394  0.08835460  0.30568387  1
  O2-  O505  1  0.70119675  0.12985890  0.64024681  1
  O2-  O506  1  0.68333430  0.09179277  0.97358192  1
  O2-  O507  1  0.66749278  0.34314489  0.33887185  1
  O2-  O508  1  0.65071032  0.32132819  0.63965836  1
  O2-  O509  1  0.66916356  0.33169359  0.97364830  1
  O2-  O510  1  0.57214189  0.54867333  0.32243433  1
  O2-  O511  1  0.66911572  0.58173393  0.64845663  1
  O2-  O512  1  0.67148123  0.58499351  0.97881526  1
  O2-  O513  1  0.68338378  0.84940702  0.30672336  1
  O2-  O514  1  0.70339148  0.81444598  0.63294499  1
  O2-  O515  1  0.66515500  0.84002607  0.98106089  1
  O2-  O516  1  0.92142347  0.08973851  0.31667555  1
  O2-  O517  1  0.91914477  0.09451459  0.66020978  1
  O2-  O518  1  0.91073935  0.08645903  0.96819235  1
  O2-  O519  1  0.91374097  0.33951797  0.31185467  1
  O2-  O520  1  0.91595074  0.32502123  0.65532747  1
  O2-  O521  1  0.91503808  0.33063580  0.97944002  1
  O2-  O522  1  0.92950770  0.58239772  0.31876089  1
  O2-  O523  1  0.93098760  0.61117003  0.63834166  1
  O2-  O524  1  0.91322824  0.57647054  0.97987753  1
  O2-  O525  1  0.89506568  0.80963431  0.30358835  1
  O2-  O526  1  0.91314311  0.84052072  0.64466709  1
  O2-  O527  1  0.89841227  0.83203044  0.98179025  1
  O2-  O528  1  0.06542382  0.15877782  0.02350813  1
  O2-  O529  1  0.08945869  0.17160717  0.34764252  1
  O2-  O530  1  0.07320262  0.18081358  0.68828184  1
  O2-  O531  1  0.07803229  0.42212006  0.01958527  1
  O2-  O532  1  0.07410802  0.42091018  0.35670491  1
  O2-  O533  1  0.08267019  0.42907528  0.68177496  1
  O2-  O534  1  0.07291231  0.66261181  0.01524743  1
  O2-  O535  1  0.09228567  0.66319769  0.35442891  1
  O2-  O536  1  0.08143978  0.65945012  0.67431544  1
  O2-  O537  1  0.13156931  0.94496800  0.03442172  1
  O2-  O538  1  0.11452874  0.92622833  0.36630352  1
  O2-  O539  1  0.08632761  0.90823925  0.63168242  1
  O2-  O540  1  0.33318748  0.16404663  -0.03541702  1
  O2-  O541  1  0.33986637  0.17341739  0.34927971  1
  O2-  O542  1  0.34097257  0.16947223  0.68293982  1
  O2-  O543  1  0.34587188  0.42382394  0.01489936  1
  O2-  O544  1  0.32526194  0.41605820  0.35378081  1
  O2-  O545  1  0.36631778  0.41967461  0.68499003  1
  O2-  O546  1  0.29914860  0.65349145  0.01511857  1
  O2-  O547  1  0.33009756  0.65097437  0.35049045  1
  O2-  O548  1  0.33135321  0.65996636  0.68775424  1
  O2-  O549  1  0.33372533  0.92648294  0.01352519  1
  O2-  O550  1  0.34420720  0.91792945  0.35592352  1
  O2-  O551  1  0.33113831  0.90712781  0.69104325  1
  O2-  O552  1  0.61797743  0.17525384  0.01386538  1
  O2-  O553  1  0.59089345  0.16653715  0.35868026  1
  O2-  O554  1  0.58367060  0.16736881  0.69286334  1
  O2-  O555  1  0.58780148  0.41825534  0.02171843  1
  O2-  O556  1  0.61541794  0.44443187  0.40008907  1
  O2-  O557  1  0.58582781  0.41539940  0.68591511  1
  O2-  O558  1  0.59291456  0.67252121  0.02269932  1
  O2-  O559  1  0.59272844  0.69306475  0.36830383  1
  O2-  O560  1  0.58750407  0.66611274  0.68972670  1
  O2-  O561  1  0.56181035  0.94812099  0.03203315  1
  O2-  O562  1  0.59753727  0.91947212  0.34837978  1
  O2-  O563  1  0.56206644  0.90742930  0.70492307  1
  O2-  O564  1  0.83709618  0.16656744  0.01876403  1
  O2-  O565  1  0.83809275  0.17525671  0.34786343  1
  O2-  O566  1  0.85276650  0.17039982  0.71069426  1
  O2-  O567  1  0.81269088  0.36786267  0.04906803  1
  O2-  O568  1  0.83699794  0.42085827  0.36253959  1
  O2-  O569  1  0.82112383  0.39770579  0.67563264  1
  O2-  O570  1  0.83144365  0.65982036  0.02402242  1
  O2-  O571  1  0.84105300  0.65344259  0.35087734  1
  O2-  O572  1  0.83574908  0.67730352  0.69033790  1
  O2-  O573  1  0.82814682  0.92517279  0.01270731  1
  O2-  O574  1  0.84421012  0.92200833  0.35652450  1
  O2-  O575  1  0.85254217  0.93870150  0.69381943  1
