# generated using pymatgen
data_H2O
_symmetry_space_group_name_H-M   'P 1'
_cell_length_a   18.00053414
_cell_length_b   17.99738895
_cell_length_c   22.01232479
_cell_angle_alpha   89.99280599
_cell_angle_beta   89.98498003
_cell_angle_gamma   119.97689362
_symmetry_Int_Tables_number   1
_chemical_formula_structural   H2O
_chemical_formula_sum   'H384 O192'
_cell_volume   6177.21157784
_cell_formula_units_Z   192
loop_
 _symmetry_equiv_pos_site_id
 _symmetry_equiv_pos_as_xyz
  1  'x, y, z'
loop_
 _atom_type_symbol
 _atom_type_oxidation_number
  H+  1.0
  O2-  -2.0
loop_
 _atom_site_type_symbol
 _atom_site_label
 _atom_site_symmetry_multiplicity
 _atom_site_fract_x
 _atom_site_fract_y
 _atom_site_fract_z
 _atom_site_occupancy
  H+  H0  1  0.35066464  0.12741114  0.48178079  1
  H+  H1  1  0.63810668  1.02091666  0.65230632  1
  H+  H2  1  0.40184894  0.53691160  0.50226958  1
  H+  H3  1  0.07639242  0.62788799  0.03430873  1
  H+  H4  1  0.37931963  0.10930026  0.30827669  1
  H+  H5  1  0.64519866  0.98753120  0.82278611  1
  H+  H6  1  0.39468201  0.82798959  0.67260384  1
  H+  H7  1  0.38018063  0.47851774  0.82923299  1
  H+  H8  1  0.64380717  0.77718849  0.32318260  1
  H+  H9  1  0.68214062  0.12093533  0.50738761  1
  H+  H10  1  0.87547241  0.59441800  0.97269174  1
  H+  H11  1  0.36968305  0.98516280  0.30056169  1
  H+  H12  1  -0.01651826  0.09913552  0.64366790  1
  H+  H13  1  0.62521169  0.26588519  0.32821096  1
  H+  H14  1  0.70588431  0.33997349  0.66189925  1
  H+  H15  1  0.33295920  0.17645422  0.09679831  1
  H+  H16  1  1.00020238  0.64848564  0.65744032  1
  H+  H17  1  0.87214970  0.23607724  0.15606720  1
  H+  H18  1  0.22549065  0.43658000  0.53844878  1
  H+  H19  1  0.64724006  0.77622646  0.49535540  1
  H+  H20  1  0.10843697  0.87276605  0.51522516  1
  H+  H21  1  0.18443111  0.34291414  0.31395257  1
  H+  H22  1  0.61508404  0.09470985  0.84297377  1
  H+  H23  1  0.26281265  0.61575810  0.16594710  1
  H+  H24  1  0.37357055  0.91320559  0.59943205  1
  H+  H25  1  0.61844362  0.51062386  0.83661666  1
  H+  H26  1  0.23126099  0.11196368  0.16888687  1
  H+  H27  1  0.63121621  0.75726517  0.99286588  1
  H+  H28  1  0.76466830  0.88656278  0.67257529  1
  H+  H29  1  0.34644910  0.69224363  0.76573233  1
  H+  H30  1  0.73295437  0.61340731  -0.01842516  1
  H+  H31  1  0.08606020  0.16664510  0.38957724  1
  H+  H32  1  0.48537844  0.34557851  0.65391627  1
  H+  H33  1  0.87825410  0.84947584  0.83345623  1
  H+  H34  1  0.83926833  0.36724931  1.01456467  1
  H+  H35  1  0.07982344  0.67797545  0.39196247  1
  H+  H36  1  0.36084777  0.99112364  0.84060733  1
  H+  H37  1  0.62377429  0.64412022  0.34045826  1
  H+  H38  1  0.83251258  0.20828567  0.50543699  1
  H+  H39  1  0.61640485  0.15917535  0.12851405  1
  H+  H40  1  0.13974505  0.60331055  0.17674143  1
  H+  H41  1  0.35532354  0.73206360  0.33562297  1
  H+  H42  1  0.96638253  0.36175323  1.00015295  1
  H+  H43  1  0.39173668  0.29378491  0.99325334  1
  H+  H44  1  0.00242698  0.87128769  0.65664211  1
  H+  H45  1  0.24129508  0.09892496  0.64830754  1
  H+  H46  1  0.89488389  0.65793877  0.31433631  1
  H+  H47  1  0.24195514  0.37122961  1.01977280  1
  H+  H48  1  0.39633747  0.44808845  0.68330893  1
  H+  H49  1  0.39094365  0.69808508  0.66822556  1
  H+  H50  1  0.04019406  0.26071041  0.93574150  1
  H+  H51  1  0.36954454  0.39137818  0.16114884  1
  H+  H52  1  0.75716030  0.63201881  0.34149692  1
  H+  H53  1  0.50627867  0.13818049  0.34111295  1
  H+  H54  1  0.53084327  0.39494396  1.01333355  1
  H+  H55  1  0.36579306  0.89414456  0.15462712  1
  H+  H56  1  0.13085466  0.74924387  0.66370418  1
  H+  H57  1  0.63758780  0.66512450  0.49312059  1
  H+  H58  1  0.30046966  0.38342585  0.83343807  1
  H+  H59  1  0.89383176  0.78109287  0.50993326  1
  H+  H60  1  0.38390490  0.10893314  0.83287550  1
  H+  H61  1  0.58896970  0.13082341  0.34975487  1
  H+  H62  1  0.15295019  0.10250886  0.64807552  1
  H+  H63  1  0.29220817  0.56506971  0.96766956  1
  H+  H64  1  0.62321371  0.60203631  0.83326643  1
  H+  H65  1  0.64061884  0.77548051  0.16964891  1
  H+  H66  1  0.37885432  0.63426703  0.99282617  1
  H+  H67  1  0.60831515  0.63758404  0.67039489  1
  H+  H68  1  0.10463885  0.46267824  0.15871588  1
  H+  H69  1  0.75799046  0.10636652  0.66069050  1
  H+  H70  1  0.71499901  0.61085213  0.18537065  1
  H+  H71  1  0.36281591  0.63432685  0.48163692  1
  H+  H72  1  0.78138712  0.14508770  0.14781757  1
  H+  H73  1  0.14123562  0.56053810  0.51107498  1
  H+  H74  1  0.37011756  0.75329367  1.02775192  1
  H+  H75  1  0.57114404  0.40579931  0.73184906  1
  H+  H76  1  0.91103526  0.87157309  0.33284089  1
  H+  H77  1  0.14244947  0.11301577  0.17156019  1
  H+  H78  1  0.85681110  0.65719796  0.04499396  1
  H+  H79  1  0.60847307  0.87987335  0.33646506  1
  H+  H80  1  0.16848348  0.05506082  0.54753065  1
  H+  H81  1  0.36500492  0.23183160  0.33272557  1
  H+  H82  1  0.81254602  0.96305478  0.49257034  1
  H+  H83  1  0.43747469  0.34953431  -0.06545987  1
  H+  H84  1  0.68544040  0.33902917  0.84578511  1
  H+  H85  1  0.13270616  0.75960860  -0.00638459  1
  H+  H86  1  0.82722102  0.90706797  0.39228121  1
  H+  H87  1  0.11211855  0.24802460  0.30970466  1
  H+  H88  1  0.11636295  -0.01960003  0.99978219  1
  H+  H89  1  0.72808763  0.36872635  0.51294018  1
  H+  H90  1  0.62911526  0.86169286  0.65102479  1
  H+  H91  1  0.37021048  0.75385432  0.17176631  1
  H+  H92  1  0.12959793  0.14708141  0.81488440  1
  H+  H93  1  0.25947479  0.89089548  0.83969129  1
  H+  H94  1  0.38778078  0.57882733  0.65241811  1
  H+  H95  1  0.58977826  0.20421950  0.82796872  1
  H+  H96  1  0.08907585  0.37274101  -0.00009505  1
  H+  H97  1  0.39303060  0.10491468  0.56619527  1
  H+  H98  1  0.65101804  0.07712599  0.90609215  1
  H+  H99  1  0.48686085  0.13132690  0.15401840  1
  H+  H100  1  0.88947268  0.00139946  0.32356969  1
  H+  H101  1  0.86318360  -0.02096405  0.15580612  1
  H+  H102  1  1.05151786  0.90435121  0.35581447  1
  H+  H103  1  0.64769819  0.03624356  0.14383295  1
  H+  H104  1  0.08544712  0.77555678  0.50532244  1
  H+  H105  1  0.15577323  0.87946228  0.33718067  1
  H+  H106  1  0.39224846  0.32996196  0.65952503  1
  H+  H107  1  0.10902052  -0.01737829  0.15764778  1
  H+  H108  1  0.53907120  0.65185230  0.33880899  1
  H+  H109  1  0.43779018  0.83121283  0.13568996  1
  H+  H110  1  0.26003268  0.34456744  0.66553782  1
  H+  H111  1  0.88687075  0.52187495  0.51138412  1
  H+  H112  1  0.71008084  0.97559001  0.78242881  1
  H+  H113  1  0.76611792  0.87567691  1.00442495  1
  H+  H114  1  0.10568485  0.88569218  0.00565900  1
  H+  H115  1  0.83866657  0.49332454  0.82392231  1
  H+  H116  1  0.28070982  0.15450023  1.00393129  1
  H+  H117  1  0.61232860  0.37781546  0.33884148  1
  H+  H118  1  0.59487618  0.85253207  1.01348134  1
  H+  H119  1  0.36070273  0.72933729  0.83311158  1
  H+  H120  1  0.48750981  0.64565069  0.65382005  1
  H+  H121  1  0.72576244  0.36915389  0.17685450  1
  H+  H122  1  0.72287474  0.61761879  0.65902357  1
  H+  H123  1  0.39380920  0.85361347  0.53006341  1
  H+  H124  1  0.11078019  0.20780121  0.48752954  1
  H+  H125  1  0.32962830  0.16463948  0.39399157  1
  H+  H126  1  0.08071304  0.39912050  0.67386170  1
  H+  H127  1  0.13865108  -0.01004835  0.34239553  1
  H+  H128  1  0.52647413  0.88033703  0.49926859  1
  H+  H129  1  0.52183424  0.37543873  0.33911748  1
  H+  H130  1  0.40182190  0.03760886  0.15699287  1
  H+  H131  1  1.02980506  0.11370237  0.33248203  1
  H+  H132  1  0.41130415  0.98622734  0.68978459  1
  H+  H133  1  0.33242990  0.89792253  1.05580903  1
  H+  H134  1  0.13099955  0.61546980  0.32630588  1
  H+  H135  1  0.14763247  0.78481803  0.32867008  1
  H+  H136  1  0.11554712  0.66642991  0.48617173  1
  H+  H137  1  0.52152191  0.11652591  0.67807993  1
  H+  H138  1  0.82163186  0.36986064  0.83745866  1
  H+  H139  1  0.47804665  0.61808867  0.17284114  1
  H+  H140  1  0.63130891  0.51421305  0.33187332  1
  H+  H141  1  0.37671562  0.10913947  0.67039194  1
  H+  H142  1  0.42091404  0.54320980  0.33011705  1
  H+  H143  1  0.14981154  0.11894870  0.32232731  1
  H+  H144  1  0.84184771  0.42559188  0.67495849  1
  H+  H145  1  0.83003724  0.33340023  0.67984130  1
  H+  H146  1  0.88886221  0.87804521  0.16888423  1
  H+  H147  1  0.85046615  0.59706278  0.82343327  1
  H+  H148  1  0.48800481  0.15052418  0.99008083  1
  H+  H149  1  0.46897147  0.09965220  0.83560149  1
  H+  H150  1  1.03048954  0.66149996  0.32835043  1
  H+  H151  1  0.06992986  0.40064278  0.85049394  1
  H+  H152  1  0.64995722  0.27445317  0.50605653  1
  H+  H153  1  0.61601423  0.62701922  0.00768439  1
  H+  H154  1  0.51709142  0.36110762  0.49119571  1
  H+  H155  1  0.74228469  0.13388630  0.83636636  1
  H+  H156  1  0.27995053  0.88490588  0.58246380  1
  H+  H157  1  0.27782291  0.64696724  0.48462193  1
  H+  H158  1  0.11883113  0.22262501  0.15195264  1
  H+  H159  1  0.11855177  0.64324081  0.81534504  1
  H+  H160  1  0.42232558  0.82482991  0.25932382  1
  H+  H161  1  1.01668110  0.64042951  0.48587424  1
  H+  H162  1  0.84345294  0.26121274  0.85108543  1
  H+  H163  1  0.81000719  0.11133637  0.36042998  1
  H+  H164  1  0.15224458  0.53837093  0.83636066  1
  H+  H165  1  0.50181371  0.94449340  0.79727157  1
  H+  H166  1  0.16636049  0.87547502  0.65306420  1
  H+  H167  1  0.86540973  0.25505643  0.32395546  1
  H+  H168  1  0.47571429  0.85704943  0.32209092  1
  H+  H169  1  1.02926074  0.13364715  0.15835333  1
  H+  H170  1  0.30022322  0.69274499  0.66986485  1
  H+  H171  1  0.23004591  0.36220508  0.16107508  1
  H+  H172  1  0.12614528  0.20748070  0.66119974  1
  H+  H173  1  0.73227731  0.62804657  0.50930690  1
  H+  H174  1  0.23660304  0.62856251  0.83530539  1
  H+  H175  1  0.84778416  0.45197700  0.35284055  1
  H+  H176  1  0.05107434  0.75501966  0.96616429  1
  H+  H177  1  0.61571025  0.36575347  0.49305876  1
  H+  H178  1  0.16404878  0.64309711  1.00945842  1
  H+  H179  1  0.75604195  0.62721385  0.81967979  1
  H+  H180  1  0.61046680  0.38188165  0.67466075  1
  H+  H181  1  0.20865391  0.73613301  0.16461228  1
  H+  H182  1  0.14650832  0.51765991  0.98697542  1
  H+  H183  1  0.39000820  0.39095271  0.49531869  1
  H+  H184  1  0.59845741  0.16851277  0.43979763  1
  H+  H185  1  0.52064436  0.59955441  0.02374981  1
  H+  H186  1  0.88078635  0.85701448  0.99199733  1
  H+  H187  1  0.59801988  0.96312886  0.34693550  1
  H+  H188  1  0.13466067  0.52688802  0.33290486  1
  H+  H189  1  0.94471608  0.56463386  0.96512381  1
  H+  H190  1  0.37123643  0.88843490  0.30570654  1
  H+  H191  1  0.71317470  0.12026411  0.99332463  1
  H+  H192  1  0.75758567  0.36756586  0.34748397  1
  H+  H193  1  0.15580578  0.04363816  0.82880543  1
  H+  H194  1  0.09785735  0.68509014  0.72539354  1
  H+  H195  1  0.87332417  1.01385640  -0.00309466  1
  H+  H196  1  0.64542396  0.11251180  0.66123919  1
  H+  H197  1  0.37706704  0.19936858  0.66214343  1
  H+  H198  1  0.01259949  0.88193612  0.83630920  1
  H+  H199  1  0.91149973  0.56625012  0.66979660  1
  H+  H200  1  0.16912236  0.32138797  0.89088040  1
  H+  H201  1  0.11275028  0.72761987  0.81678166  1
  H+  H202  1  0.61930575  0.48095654  0.01158711  1
  H+  H203  1  0.69783973  0.10737371  0.35271516  1
  H+  H204  1  0.39646121  0.36265874  0.32564161  1
  H+  H205  1  0.90119695  0.78530169  0.65930453  1
  H+  H206  1  0.84984212  0.71434479  0.82602637  1
  H+  H207  1  0.09041167  0.38194048  0.32699420  1
  H+  H208  1  0.89188484  0.09540686  0.64190613  1
  H+  H209  1  0.87024130  0.64194776  0.49747402  1
  H+  H210  1  0.88174901  0.53750069  0.15742538  1
  H+  H211  1  0.61339068  0.39184861  0.16369606  1
  H+  H212  1  0.36620093  0.14250513  0.15198253  1
  H+  H213  1  0.97427788  0.86598678  0.99073363  1
  H+  H214  1  0.63273371  0.77453195  0.65359649  1
  H+  H215  1  0.49120581  0.90041728  0.78721827  1
  H+  H216  1  0.09383691  0.37465757  0.49372049  1
  H+  H217  1  0.63660293  0.52597841  0.66120291  1
  H+  H218  1  0.86235550  0.39513216  0.16189493  1
  H+  H219  1  0.25887964  0.64044874  0.33854760  1
  H+  H220  1  0.93563123  0.84205198  0.59178578  1
  H+  H221  1  0.77461111  0.88770814  0.15816664  1
  H+  H222  1  0.61123462  0.71939233  0.82648164  1
  H+  H223  1  -0.00309478  0.88985810  0.16105930  1
  H+  H224  1  0.31417311  0.42184784  0.34904395  1
  H+  H225  1  0.04373606  0.28611415  0.46352746  1
  H+  H226  1  0.26228357  0.13514206  0.32704507  1
  H+  H227  1  0.35791087  0.62599859  0.16884792  1
  H+  H228  1  0.18113467  0.57999993  0.65329086  1
  H+  H229  1  0.62787772  0.51914312  0.17687940  1
  H+  H230  1  0.38504084  0.26162574  0.49881236  1
  H+  H231  1  0.38349729  0.51253410  0.00982031  1
  H+  H232  1  0.97175484  0.35751761  0.17128056  1
  H+  H233  1  0.87552856  0.72691762  -0.00663210  1
  H+  H234  1  0.51879222  0.63392750  0.82671786  1
  H+  H235  1  0.69121036  0.31492862  1.00130927  1
  H+  H236  1  0.85513681  0.64850221  0.15941661  1
  H+  H237  1  0.28593260  0.90893827  0.15513288  1
  H+  H238  1  -0.05023217  0.32587637  0.51023795  1
  H+  H239  1  0.15701092  0.65524000  0.65598888  1
  H+  H240  1  0.63622765  0.87258162  0.50154364  1
  H+  H241  1  0.15291799  0.81514941  0.17165917  1
  H+  H242  1  0.87248740  0.66006448  0.66858887  1
  H+  H243  1  0.55166038  0.90873358  0.16610682  1
  H+  H244  1  0.47876711  0.36381336  0.17332345  1
  H+  H245  1  0.38510790  0.61270593  0.83146360  1
  H+  H246  1  0.99914785  0.10501460  0.84187903  1
  H+  H247  1  0.66488776  0.59612911  0.56301701  1
  H+  H248  1  0.44526428  0.86071637  0.86613671  1
  H+  H249  1  0.08764665  0.93679545  0.88039309  1
  H+  H250  1  0.89413351  0.11590045  0.17344771  1
  H+  H251  1  0.73209795  0.84888843  0.84138654  1
  H+  H252  1  0.84591578  0.17221971  0.07968322  1
  H+  H253  1  0.13071792  0.98035886  0.66538120  1
  H+  H254  1  0.34879385  0.88690511  0.84549481  1
  H+  H255  1  0.59752140  0.92495038  0.72366731  1
  H+  H256  1  0.89171509  0.57487002  0.29258393  1
  H+  H257  1  0.86025256  -0.03474334  0.66880016  1
  H+  H258  1  0.38868525  0.23004918  0.80944749  1
  H+  H259  1  0.39187942  0.52637092  0.17744600  1
  H+  H260  1  0.04093429  0.45461764  0.69197796  1
  H+  H261  1  0.01404200  0.11995551  0.01036433  1
  H+  H262  1  0.27114446  0.88694941  0.31020458  1
  H+  H263  1  0.76942343  0.87779356  0.33213802  1
  H+  H264  1  0.13601121  0.11139401  0.98709873  1
  H+  H265  1  0.16976277  0.37154754  0.83266970  1
  H+  H266  1  0.66253079  0.32655614  0.26816782  1
  H+  H267  1  0.25394136  0.35483977  -0.00776921  1
  H+  H268  1  0.36541533  0.01864671  0.53289170  1
  H+  H269  1  0.85896672  0.22708170  0.66107901  1
  H+  H270  1  0.64736465  0.86859403  0.16865053  1
  H+  H271  1  0.82301155  0.44455522  0.00243023  1
  H+  H272  1  0.10765211  0.37594147  0.15093550  1
  H+  H273  1  0.60933350  0.63725698  0.16555743  1
  H+  H274  1  -0.06122998  0.32183373  0.67137294  1
  H+  H275  1  0.90929940  0.09756295  0.33087727  1
  H+  H276  1  0.57487305  0.35911888  0.83535273  1
  H+  H277  1  0.17537451  0.34753925  0.66943439  1
  H+  H278  1  0.92771198  0.35266898  0.84749785  1
  H+  H279  1  0.87319457  0.34488683  0.32409937  1
  H+  H280  1  0.52430140  0.90665655  0.67401359  1
  H+  H281  1  0.65203122  0.86024272  0.83810451  1
  H+  H282  1  0.38817078  0.27465745  0.17114364  1
  H+  H283  1  0.12938665  0.85999693  0.84073654  1
  H+  H284  1  0.86598738  0.13329461  1.00931692  1
  H+  H285  1  0.87050857  -0.03632578  0.82546794  1
  H+  H286  1  0.60616746  0.21145058  0.67713945  1
  H+  H287  1  0.26459027  0.12989234  0.47674845  1
  H+  H288  1  0.91498731  0.07644993  0.94004740  1
  H+  H289  1  0.92448816  0.79192760  0.33056039  1
  H+  H290  1  0.35611144  0.40107213  0.74565174  1
  H+  H291  1  0.62682216  0.29591685  0.90469120  1
  H+  H292  1  0.39482298  0.77246648  0.50379466  1
  H+  H293  1  0.14000591  0.82608530  0.59090348  1
  H+  H294  1  0.20356784  0.35065627  0.56993301  1
  H+  H295  1  0.66438367  0.57929257  0.92753354  1
  H+  H296  1  0.83105437  0.11899038  0.50032902  1
  H+  H297  1  0.24687930  0.12947896  0.82826985  1
  H+  H298  1  0.79970493  0.15597623  0.41921433  1
  H+  H299  1  0.63680827  0.28244100  0.16633039  1
  H+  H300  1  0.66242964  0.81929918  0.93481878  1
  H+  H301  1  0.86886724  0.22958539  1.01039437  1
  H+  H302  1  0.67145142  0.84197275  0.56177472  1
  H+  H303  1  0.82224840  0.41422150  0.10368099  1
  H+  H304  1  0.36225391  0.68976269  0.08171725  1
  H+  H305  1  0.34808358  0.16090905  0.75435138  1
  H+  H306  1  0.39798966  0.58318343  0.89555788  1
  H+  H307  1  0.83367128  0.68021372  0.72729166  1
  H+  H308  1  0.15716133  0.56558710  0.23655366  1
  H+  H309  1  0.43804945  0.05240672  0.61704878  1
  H+  H310  1  0.09660455  0.24544500  0.98237488  1
  H+  H311  1  0.58778648  0.19955298  0.07546796  1
  H+  H312  1  0.12260097  0.23063841  0.81323348  1
  H+  H313  1  0.58325350  0.90453729  0.09775493  1
  H+  H314  1  0.57957291  0.39518622  0.42770239  1
  H+  H315  1  0.89598774  0.32509380  0.94538110  1
  H+  H316  1  0.08309683  0.15822190  0.06420607  1
  H+  H317  1  0.32779323  0.67082278  0.40381867  1
  H+  H318  1  0.82831295  0.91076163  0.06285073  1
  H+  H319  1  0.92448216  0.59141927  0.56573194  1
  H+  H320  1  0.83762946  0.67156014  0.43987417  1
  H+  H321  1  0.36304894  0.44246644  0.10397167  1
  H+  H322  1  0.57340687  0.14886743  0.76605472  1
  H+  H323  1  0.57708410  0.90199355  0.43607694  1
  H+  H324  1  0.08747517  0.15217458  0.72031116  1
  H+  H325  1  0.35301775  0.93115404  0.41402822  1
  H+  H326  1  0.42347460  0.09487046  0.24827500  1
  H+  H327  1  0.15089819  0.69743609  0.10686071  1
  H+  H328  1  0.14265869  0.96918462  0.44109138  1
  H+  H329  1  0.43761702  0.90235555  1.00293325  1
  H+  H330  1  0.83072356  0.90983087  0.76318759  1
  H+  H331  1  0.08265104  0.41386287  0.77892613  1
  H+  H332  1  0.67121138  0.83730237  0.26325867  1
  H+  H333  1  0.90482695  0.82128443  0.89577733  1
  H+  H334  1  0.79393533  0.38315671  0.77088573  1
  H+  H335  1  0.66229037  0.10580419  0.19281714  1
  H+  H336  1  0.18402623  0.86407710  0.23292347  1
  H+  H337  1  0.85459059  0.37886476  0.50549972  1
  H+  H338  1  0.64613323  0.07924478  0.29166765  1
  H+  H339  1  0.89372553  0.79105450  0.18102246  1
  H+  H340  1  0.41767904  0.10417343  0.93863306  1
  H+  H341  1  0.91812201  0.07039051  0.55256122  1
  H+  H342  1  0.78667690  0.18681943  0.77665181  1
  H+  H343  1  0.90055216  0.87403604  0.51288079  1
  H+  H344  1  0.18761413  0.63023324  0.56232040  1
  H+  H345  1  0.17639283  0.09318048  0.92769811  1
  H+  H346  1  0.43621301  0.59764496  0.27040777  1
  H+  H347  1  0.09974976  0.92556092  0.72738408  1
  H+  H348  1  0.41857794  0.32842575  0.26345896  1
  H+  H349  1  0.37346965  0.16252896  0.00504174  1
  H+  H350  1  0.89482490  0.30703878  0.57250515  1
  H+  H351  1  0.14982551  0.81891585  0.89761942  1
  H+  H352  1  0.18183367  0.58268914  0.92966325  1
  H+  H353  1  0.90647724  0.32208007  0.22915948  1
  H+  H354  1  0.57888117  0.66776908  0.72982014  1
  H+  H355  1  0.58628521  0.66534737  0.10256526  1
  H+  H356  1  0.37870577  0.83034640  0.91996760  1
  H+  H357  1  0.82566474  0.11534381  0.71562809  1
  H+  H358  1  0.98341399  0.03085590  0.88550346  1
  H+  H359  1  0.16112663  0.32333405  0.21580291  1
  H+  H360  1  0.07322079  0.92559047  0.09466603  1
  H+  H361  1  0.58512085  0.42344859  0.10345518  1
  H+  H362  1  0.65600446  0.57190370  0.27085255  1
  H+  H363  1  0.18107746  0.09036356  0.25968605  1
  H+  H364  1  0.82515990  0.40608746  0.44556505  1
  H+  H365  1  0.37149619  0.43137737  0.40547746  1
  H+  H366  1  0.35018671  0.91944631  0.44709435  1
  H+  H367  1  0.41815831  0.44601411  0.01055887  1
  H+  H368  1  0.06908136  0.39820743  0.39330097  1
  H+  H369  1  0.88213143  0.55809676  0.88273362  1
  H+  H370  1  0.65109846  0.32201203  0.60143164  1
  H+  H371  1  0.80785482  0.69139050  0.12272255  1
  H+  H372  1  0.07586601  0.41148018  0.06262091  1
  H+  H373  1  0.92091942  0.07726042  0.22985107  1
  H+  H374  1  0.42234358  0.31417889  0.56200138  1
  H+  H375  1  0.30613951  0.40003176  0.49424949  1
  H+  H376  1  0.01037892  0.14841578  0.47808886  1
  H+  H377  1  0.42360481  0.60762978  0.55461647  1
  H+  H378  1  0.63492402  0.13793717  0.98630041  1
  H+  H379  1  0.94036487  0.61877082  0.19808142  1
  H+  H380  1  0.49988437  0.80442702  0.03972938  1
  H+  H381  1  0.80531693  0.72552328  0.36528261  1
  H+  H382  1  0.43287302  0.37760930  0.82992542  1
  H+  H383  1  0.60990548  0.69568390  0.43042444  1
  O2-  O384  1  0.08839258  0.15978549  0.14125508  1
  O2-  O385  1  0.06417517  0.19642228  0.45952428  1
  O2-  O386  1  0.09141748  0.16928229  0.80036102  1
  O2-  O387  1  0.07384887  0.40434243  0.13959031  1
  O2-  O388  1  0.04148040  0.33966245  0.47020945  1
  O2-  O389  1  0.11302658  0.42742887  0.81862828  1
  O2-  O390  1  0.14894952  0.70148173  0.15199890  1
  O2-  O391  1  0.07419682  0.68090611  0.46776076  1
  O2-  O392  1  0.08801897  0.67078669  0.79687796  1
  O2-  O393  1  0.06795105  0.92453149  0.14007009  1
  O2-  O394  1  0.16643274  0.97975647  0.48350457  1
  O2-  O395  1  0.07726326  0.92038721  0.83755420  1
  O2-  O396  1  0.33127570  0.17018781  0.14255275  1
  O2-  O397  1  0.32611990  0.16208247  0.46266647  1
  O2-  O398  1  0.34780801  0.16913300  0.79993507  1
  O2-  O399  1  0.34163254  0.42405399  0.14632223  1
  O2-  O400  1  0.36614732  0.42680001  0.47918470  1
  O2-  O401  1  0.36008925  0.41750006  0.81723651  1
  O2-  O402  1  0.32409747  0.65337098  0.15361806  1
  O2-  O403  1  0.33450861  0.66798243  0.46443405  1
  O2-  O404  1  0.33849566  0.67529242  0.80968065  1
  O2-  O405  1  0.34338413  0.92837214  0.13523132  1
  O2-  O406  1  0.33835760  0.91301988  0.56468459  1
  O2-  O407  1  0.32324514  0.92195352  0.82942869  1
  O2-  O408  1  0.58618224  0.19155035  0.12285810  1
  O2-  O409  1  0.64586107  0.19368677  0.46993159  1
  O2-  O410  1  0.56548335  0.14444870  0.81214925  1
  O2-  O411  1  0.58204343  0.42158730  0.15002461  1
  O2-  O412  1  0.57856902  0.39121301  0.47446000  1
  O2-  O413  1  0.54875781  0.39288042  0.81735863  1
  O2-  O414  1  0.58454343  0.67136670  0.14779183  1
  O2-  O415  1  0.61438321  0.70243273  0.47574225  1
  O2-  O416  1  0.57799974  0.65978813  0.80956341  1
  O2-  O417  1  0.60321822  0.93066677  0.14102083  1
  O2-  O418  1  0.58549237  0.90840372  0.48053763  1
  O2-  O419  1  0.65098890  0.94443976  0.79682622  1
  O2-  O420  1  0.84490393  0.17433016  0.13835956  1
  O2-  O421  1  0.79877460  0.14818000  0.48916591  1
  O2-  O422  1  0.80104516  0.17523096  0.81691861  1
  O2-  O423  1  0.83199178  0.42558667  0.14829801  1
  O2-  O424  1  0.82927803  0.41394940  0.49061928  1
  O2-  O425  1  0.79218886  0.39643482  0.81486674  1
  O2-  O426  1  0.82469672  0.68369287  0.16328305  1
  O2-  O427  1  0.84347203  0.67658529  0.48457433  1
  O2-  O428  1  0.81816048  0.65577027  0.80668966  1
  O2-  O429  1  0.83456968  0.91845213  0.14076736  1
  O2-  O430  1  0.87355608  0.99020055  0.48071334  1
  O2-  O431  1  0.83445896  0.90494065  0.80942243  1
  O2-  O432  1  0.17151849  0.08139901  0.18717034  1
  O2-  O433  1  0.16390966  0.05711173  0.50232604  1
  O2-  O434  1  0.18628882  0.10302803  0.84396037  1
  O2-  O435  1  0.16730990  0.32749874  0.17071405  1
  O2-  O436  1  0.20691579  0.37672029  0.52920228  1
  O2-  O437  1  0.18963150  0.33257137  0.84806933  1
  O2-  O438  1  0.15734509  0.56189450  0.19121540  1
  O2-  O439  1  0.18031956  0.62178328  0.51691440  1
  O2-  O440  1  0.17665558  0.59740269  0.85220958  1
  O2-  O441  1  0.19089848  0.87237298  0.18851835  1
  O2-  O442  1  0.08335249  0.81588157  0.53492195  1
  O2-  O443  1  0.16129730  0.83046179  0.85317589  1
  O2-  O444  1  0.42877559  0.09713813  0.17373095  1
  O2-  O445  1  0.38805494  0.08101907  0.52559307  1
  O2-  O446  1  0.40811018  0.07498381  0.85238870  1
  O2-  O447  1  0.41816224  0.33355863  0.18942504  1
  O2-  O448  1  0.42315204  0.32013266  0.51627906  1
  O2-  O449  1  0.45963392  0.34229176  0.84129540  1
  O2-  O450  1  0.41928848  0.58759965  0.19109813  1
  O2-  O451  1  0.40970099  0.59417003  0.51116176  1
  O2-  O452  1  0.41184923  0.58216807  0.85172721  1
  O2-  O453  1  0.40757639  0.81891882  0.17460708  1
  O2-  O454  1  0.42811980  0.82484018  0.52813284  1
  O2-  O455  1  0.38387789  0.82626350  0.87477928  1
  O2-  O456  1  0.67662577  0.10035264  0.15102309  1
  O2-  O457  1  0.62747329  0.12157812  0.51060959  1
  O2-  O458  1  0.65149762  0.07162481  0.85979735  1
  O2-  O459  1  0.66497735  0.33670689  0.19101121  1
  O2-  O460  1  0.66481329  0.33290490  0.52277690  1
  O2-  O461  1  0.62515212  0.30508218  0.85952352  1
  O2-  O462  1  0.65330054  0.57838604  0.19603086  1
  O2-  O463  1  0.67059873  0.60436075  0.51845856  1
  O2-  O464  1  0.65481366  0.57201775  0.84738075  1
  O2-  O465  1  0.67473466  0.83636034  0.18486715  1
  O2-  O466  1  0.67597969  0.84715887  0.51594458  1
  O2-  O467  1  0.67138266  0.82182888  0.85593882  1
  O2-  O468  1  0.92172916  0.08202815  0.18469603  1
  O2-  O469  1  0.90985418  0.07803154  0.50699969  1
  O2-  O470  1  0.95404038  0.05945377  0.86867938  1
  O2-  O471  1  0.90971179  0.32673397  0.18324257  1
  O2-  O472  1  0.89254367  0.31050357  0.52742740  1
  O2-  O473  1  0.87342466  0.32257469  0.86936347  1
  O2-  O474  1  0.90980585  0.60151440  0.15923145  1
  O2-  O475  1  0.91917719  0.58465770  0.52090890  1
  O2-  O476  1  0.87494400  0.55726076  0.83669014  1
  O2-  O477  1  0.92624759  0.85491399  0.18541342  1
  O2-  O478  1  0.92493281  0.83995256  0.52836259  1
  O2-  O479  1  0.90741418  0.81805148  0.85055997  1
  O2-  O480  1  0.18575850  0.09387030  0.30621621  1
  O2-  O481  1  0.18091637  0.07060184  0.63223595  1
  O2-  O482  1  0.16816758  0.08298501  0.97214676  1
  O2-  O483  1  0.13159133  0.30634116  0.29196972  1
  O2-  O484  1  0.20153471  0.32040905  0.64617643  1
  O2-  O485  1  0.09588411  0.29102409  0.95586518  1
  O2-  O486  1  0.16403972  0.58638816  0.31468003  1
  O2-  O487  1  0.19886059  0.63711373  0.63767527  1
  O2-  O488  1  0.19036406  0.57661976  0.97403428  1
  O2-  O489  1  0.18047628  0.84689674  0.31570024  1
  O2-  O490  1  0.17772489  0.83636382  0.62854436  1
  O2-  O491  1  0.11225972  0.79483757  0.97176837  1
  O2-  O492  1  0.41354708  0.08368288  0.29378877  1
  O2-  O493  1  0.43233925  0.06617232  0.65898626  1
  O2-  O494  1  0.42428536  0.11832769  0.98206290  1
  O2-  O495  1  0.41783368  0.32453526  0.30974839  1
  O2-  O496  1  0.42562661  0.30824264  0.63759772  1
  O2-  O497  1  0.42731013  0.35412094  0.97786086  1
  O2-  O498  1  0.44412958  0.60237161  0.31528065  1
  O2-  O499  1  0.43082375  0.63361392  0.63542316  1
  O2-  O500  1  0.35311661  0.58011671  0.96874994  1
  O2-  O501  1  0.41559502  0.82946332  0.30352667  1
  O2-  O502  1  0.42552701  0.89059295  0.66189725  1
  O2-  O503  1  0.38086619  0.85133856  0.99608893  1
  O2-  O504  1  0.63754329  0.07253386  0.33537781  1
  O2-  O505  1  0.67520406  0.08331802  0.64271267  1
  O2-  O506  1  0.65562620  0.09602164  0.97642928  1
  O2-  O507  1  0.66167821  0.32673857  0.31393909  1
  O2-  O508  1  0.64699760  0.31961345  0.64669420  1
  O2-  O509  1  0.63570333  0.28380837  0.97964421  1
  O2-  O510  1  0.66173017  0.57437685  0.31657927  1
  O2-  O511  1  0.66192650  0.58602381  0.64638060  1
  O2-  O512  1  0.67111509  0.58460132  0.97258071  1
  O2-  O513  1  0.67220707  0.83899613  0.30875559  1
  O2-  O514  1  0.66242207  0.83401387  0.63693023  1
  O2-  O515  1  0.66146689  0.81854828  0.98031662  1
  O2-  O516  1  0.92749895  0.06263044  0.30853800  1
  O2-  O517  1  0.92486237  0.06866346  0.62560125  1
  O2-  O518  1  0.90599730  0.07647610  0.98465653  1
  O2-  O519  1  0.89650338  0.31167248  0.30429480  1
  O2-  O520  1  0.88193936  0.29063132  0.65187812  1
  O2-  O521  1  0.90327392  0.32418146  0.99037260  1
  O2-  O522  1  0.92944209  0.63692162  0.29328596  1
  O2-  O523  1  0.93685115  0.61830453  0.64535894  1
  O2-  O524  1  0.88604837  0.54910955  0.95443479  1
  O2-  O525  1  0.95450667  0.85419688  0.32634693  1
  O2-  O526  1  0.94092442  0.84382167  0.64052587  1
  O2-  O527  1  0.91397260  0.82984130  0.97584671  1
  O2-  O528  1  0.07671449  0.15491763  0.01862514  1
  O2-  O529  1  0.09004750  0.15528488  0.34548567  1
  O2-  O530  1  0.08972897  0.14757341  0.67516625  1
  O2-  O531  1  0.07138603  0.41274038  0.01691417  1
  O2-  O532  1  0.09590662  0.42702722  0.35480391  1
  O2-  O533  1  0.04206205  0.40269911  0.70340564  1
  O2-  O534  1  0.13595652  0.67348526  0.02983043  1
  O2-  O535  1  0.08767994  0.67998334  0.34646027  1
  O2-  O536  1  0.09787304  0.68693415  0.67890674  1
  O2-  O537  1  0.08017601  0.92128126  0.01750853  1
  O2-  O538  1  0.11450830  0.93621843  0.36629140  1
  O2-  O539  1  0.09737873  0.91982397  0.68329497  1
  O2-  O540  1  0.33879357  0.18970490  0.02109915  1
  O2-  O541  1  0.33069164  0.16806706  0.34645316  1
  O2-  O542  1  0.34290451  0.14071858  0.67955649  1
  O2-  O543  1  0.41675822  0.49242932  0.03395987  1
  O2-  O544  1  0.37127281  0.43267163  0.35936364  1
  O2-  O545  1  0.35482330  0.39209190  0.69964709  1
  O2-  O546  1  0.39362692  0.71762344  0.04329212  1
  O2-  O547  1  0.32111344  0.67311009  0.35399572  1
  O2-  O548  1  0.35796883  0.72139624  0.68933004  1
  O2-  O549  1  0.31913358  0.87921889  0.01223398  1
  O2-  O550  1  0.33745199  0.91911757  0.29829970  1
  O2-  O551  1  0.39669407  0.92612966  0.71059877  1
  O2-  O552  1  0.59274049  0.19677620  0.00670914  1
  O2-  O553  1  0.56373641  0.16744433  0.36051525  1
  O2-  O554  1  0.58617712  0.15317268  0.69338592  1
  O2-  O555  1  0.58877613  0.42459800  0.03191820  1
  O2-  O556  1  0.58073431  0.40582394  0.35716130  1
  O2-  O557  1  0.58039694  0.41389059  0.68749653  1
  O2-  O558  1  0.57979829  0.64944578  0.02538969  1
  O2-  O559  1  0.60140561  0.68213261  0.35375690  1
  O2-  O560  1  0.58002261  0.67044803  0.68443633  1
  O2-  O561  1  0.55224752  0.86184912  0.03635989  1
  O2-  O562  1  0.56967050  0.89992850  0.35312547  1
  O2-  O563  1  0.58510225  0.91948741  0.67948828  1
  O2-  O564  1  0.84106972  0.16826327  0.02786945  1
  O2-  O565  1  0.79692789  0.15560131  0.37235558  1
  O2-  O566  1  0.82481270  0.12916371  0.67293184  1
  O2-  O567  1  0.80277607  0.39195646  0.02671355  1
  O2-  O568  1  0.81621638  0.39286370  0.36696618  1
  O2-  O569  1  0.80597786  0.37069420  0.69496944  1
  O2-  O570  1  0.84876703  0.66317007  0.00178966  1
  O2-  O571  1  0.81552181  0.67774492  0.35807231  1
  O2-  O572  1  0.83913912  0.68769681  0.68236621  1
  O2-  O573  1  0.82801218  0.90971257  0.01727372  1
  O2-  O574  1  0.83083879  0.90397109  0.34811405  1
  O2-  O575  1  0.82199743  0.91323222  0.69231463  1
