# generated using pymatgen
data_H2O
_symmetry_space_group_name_H-M   'P 1'
_cell_length_a   17.99523893
_cell_length_b   17.99772918
_cell_length_c   22.01175742
_cell_angle_alpha   90.00094425
_cell_angle_beta   89.99732871
_cell_angle_gamma   120.00038515
_symmetry_Int_Tables_number   1
_chemical_formula_structural   H2O
_chemical_formula_sum   'H384 O192'
_cell_volume   6173.89150920
_cell_formula_units_Z   192
loop_
 _symmetry_equiv_pos_site_id
 _symmetry_equiv_pos_as_xyz
  1  'x, y, z'
loop_
 _atom_type_symbol
 _atom_type_oxidation_number
  H+  1.0
  O2-  -2.0
loop_
 _atom_site_type_symbol
 _atom_site_label
 _atom_site_symmetry_multiplicity
 _atom_site_fract_x
 _atom_site_fract_y
 _atom_site_fract_z
 _atom_site_occupancy
  H+  H0  1  0.52265263  0.64566849  1.00642718  1
  H+  H1  1  0.64517684  0.32654084  0.52731379  1
  H+  H2  1  0.36488064  0.48047997  0.00550059  1
  H+  H3  1  0.73042543  0.86395762  0.31363523  1
  H+  H4  1  0.67658649  0.85284169  0.54974135  1
  H+  H5  1  0.11927787  0.89099088  0.68042493  1
  H+  H6  1  0.81925671  0.41127380  0.61331819  1
  H+  H7  1  0.85898621  0.88239397  0.45940179  1
  H+  H8  1  0.54249125  0.37662189  0.16445763  1
  H+  H9  1  0.97503724  0.09818740  0.65546074  1
  H+  H10  1  0.62163718  0.41105499  0.32020415  1
  H+  H11  1  0.22522004  0.86667742  0.31797441  1
  H+  H12  1  0.60841211  0.71771221  0.82071399  1
  H+  H13  1  0.33561122  0.16593634  0.07286697  1
  H+  H14  1  0.28270427  0.13624694  0.34637511  1
  H+  H15  1  0.13191972  0.66291838  0.70123724  1
  H+  H16  1  0.85364738  0.72541333  0.33409252  1
  H+  H17  1  0.89353115  0.52474580  0.16198574  1
  H+  H18  1  0.13625317  0.27046303  0.33317488  1
  H+  H19  1  0.81152232  0.16143082  -0.04518812  1
  H+  H20  1  0.61170903  0.89424956  0.00688070  1
  H+  H21  1  0.58590778  0.92928253  0.06463840  1
  H+  H22  1  0.78389495  0.39750164  0.33666162  1
  H+  H23  1  1.00481766  0.14608060  0.82644608  1
  H+  H24  1  0.15278406  0.61352291  0.14771228  1
  H+  H25  1  0.38165816  0.27002373  0.00165437  1
  H+  H26  1  0.86545216  0.88065669  0.67917251  1
  H+  H27  1  0.59782984  0.36664303  0.69313301  1
  H+  H28  1  0.61894540  0.89637546  0.66791183  1
  H+  H29  1  0.16122295  0.82096867  0.93800480  1
  H+  H30  1  0.39661256  0.78116880  0.64530718  1
  H+  H31  1  0.36493180  0.60697439  0.32544483  1
  H+  H32  1  0.64898018  0.30480906  0.30527797  1
  H+  H33  1  0.37503584  0.99513079  0.49604988  1
  H+  H34  1  0.64549951  1.00166688  0.15834574  1
  H+  H35  1  0.01796619  0.87911135  0.00962723  1
  H+  H36  1  0.88102162  0.77392038  0.99463988  1
  H+  H37  1  0.13528420  0.86519094  0.85103292  1
  H+  H38  1  1.02833739  0.63670073  0.33356478  1
  H+  H39  1  0.88048474  0.10934984  0.33109523  1
  H+  H40  1  0.02738057  0.88417415  0.50111582  1
  H+  H41  1  0.42174153  0.83859577  0.55649255  1
  H+  H42  1  0.38666644  0.86562064  0.84382836  1
  H+  H43  1  0.63212610  0.52766504  0.98523447  1
  H+  H44  1  0.86538033  0.23502563  0.82155050  1
  H+  H45  1  0.10514783  0.87525400  0.01140567  1
  H+  H46  1  0.70080875  0.76306533  0.88648715  1
  H+  H47  1  0.36116799  0.91531265  0.39846901  1
  H+  H48  1  0.35841900  0.34822410  0.51999924  1
  H+  H49  1  0.65174426  0.38010121  0.16102194  1
  H+  H50  1  0.73028657  0.95276054  0.61305070  1
  H+  H51  1  0.04157542  0.75693059  0.21387793  1
  H+  H52  1  0.11741069  0.72499072  0.33744375  1
  H+  H53  1  0.60300897  0.50047815  0.65077856  1
  H+  H54  1  0.38685662  0.10920467  0.84197103  1
  H+  H55  1  0.83043065  0.16532142  0.75931730  1
  H+  H56  1  0.30263839  0.26579938  0.55930167  1
  H+  H57  1  0.61487994  0.73153419  0.48908717  1
  H+  H58  1  0.12494101  0.36913421  0.19312491  1
  H+  H59  1  0.21696555  0.38888888  0.17659378  1
  H+  H60  1  0.38897963  0.35830740  0.33280312  1
  H+  H61  1  0.73701324  0.84620915  0.84609665  1
  H+  H62  1  0.63471444  0.78214090  1.00291374  1
  H+  H63  1  0.60155566  0.09759311  0.52605678  1
  H+  H64  1  0.27578666  0.13524403  0.01407462  1
  H+  H65  1  1.01546598  0.13079570  0.33446401  1
  H+  H66  1  0.75024219  0.65682370  0.66017773  1
  H+  H67  1  0.57902596  0.41778603  0.87731425  1
  H+  H68  1  0.36241283  0.12636210  0.16435691  1
  H+  H69  1  0.91528973  0.83881208  0.93777213  1
  H+  H70  1  0.09516427  0.84282362  0.17814900  1
  H+  H71  1  0.85731877  0.21411048  0.36713459  1
  H+  H72  1  0.66821339  0.32543899  0.89617195  1
  H+  H73  1  0.62987995  0.53000039  0.31421122  1
  H+  H74  1  0.28435437  0.87488498  0.17226973  1
  H+  H75  1  0.13667839  0.29300356  -0.00589855  1
  H+  H76  1  0.69192438  0.11569232  0.26318802  1
  H+  H77  1  0.37169306  0.13788750  0.34628266  1
  H+  H78  1  0.63049304  0.53645316  0.49382586  1
  H+  H79  1  0.14211195  0.53657635  0.49873297  1
  H+  H80  1  0.48194148  0.11446270  0.33282723  1
  H+  H81  1  0.36456583  0.21571107  0.68204938  1
  H+  H82  1  0.46269962  0.34432084  0.84755951  1
  H+  H83  1  0.10491369  0.88522754  0.34791463  1
  H+  H84  1  0.60012709  0.87133670  0.82237528  1
  H+  H85  1  0.14471071  0.61069968  0.33631946  1
  H+  H86  1  0.78045417  0.37756664  0.49893350  1
  H+  H87  1  0.66356995  0.43805263  0.52713953  1
  H+  H88  1  0.14001823  0.11666710  1.00491124  1
  H+  H89  1  0.14390548  0.52205612  0.34394236  1
  H+  H90  1  0.77855460  0.12762593  0.82857048  1
  H+  H91  1  0.72650262  0.37087416  -0.01204207  1
  H+  H92  1  0.47051863  0.61997796  0.83810325  1
  H+  H93  1  0.10864705  0.21842526  0.48562663  1
  H+  H94  1  0.47971940  0.36350076  0.67487851  1
  H+  H95  1  0.11175660  0.64455817  0.48413654  1
  H+  H96  1  0.10682658  0.71515392  0.15238631  1
  H+  H97  1  0.07619846  0.35063040  0.10277933  1
  H+  H98  1  0.63822603  0.28219827  0.99640596  1
  H+  H99  1  0.17300532  0.52742242  0.61457545  1
  H+  H100  1  0.88868077  0.61256050  0.32082981  1
  H+  H101  1  0.86297256  -0.02341301  0.16578950  1
  H+  H102  1  0.53161579  0.63836107  0.48732799  1
  H+  H103  1  0.10366963  0.63316489  0.84186793  1
  H+  H104  1  0.88356424  0.84434199  0.53874556  1
  H+  H105  1  0.76912110  0.12098300  0.66819164  1
  H+  H106  1  0.58051420  0.67277161  0.06683625  1
  H+  H107  1  0.99567835  0.39885635  0.97964047  1
  H+  H108  1  0.45130035  0.95379901  0.36858135  1
  H+  H109  1  0.73928775  0.62128425  0.68254745  1
  H+  H110  1  0.85592587  0.63320187  0.49371053  1
  H+  H111  1  0.12666077  0.72438814  -0.00022600  1
  H+  H112  1  0.60840662  0.12305258  0.67329403  1
  H+  H113  1  0.27371274  0.37570658  0.67525590  1
  H+  H114  1  0.38926467  0.84498374  0.30570256  1
  H+  H115  1  0.87227299  0.52415466  0.99342255  1
  H+  H116  1  0.09258874  0.43908676  0.68332865  1
  H+  H117  1  0.89074269  0.02423121  1.01285110  1
  H+  H118  1  0.36715884  0.46975831  0.49302859  1
  H+  H119  1  0.41758429  0.25624461  0.18339900  1
  H+  H120  1  0.46896520  0.85656041  -0.00108104  1
  H+  H121  1  0.97571210  0.35603398  0.83193798  1
  H+  H122  1  0.39369881  0.11456500  1.01369683  1
  H+  H123  1  0.39795326  0.02716930  0.32755722  1
  H+  H124  1  0.27078489  0.88155858  0.83317467  1
  H+  H125  1  0.64493602  0.52884118  0.82835124  1
  H+  H126  1  0.86450998  0.97149768  0.47535664  1
  H+  H127  1  0.86156997  0.97709743  0.31682749  1
  H+  H128  1  0.86497546  0.47192642  0.49791118  1
  H+  H129  1  0.14096142  0.55632074  0.90683388  1
  H+  H130  1  0.66089697  1.01215351  0.83917767  1
  H+  H131  1  0.71590095  0.35050821  0.67745967  1
  H+  H132  1  0.77831301  0.64663931  0.82442493  1
  H+  H133  1  0.76804635  0.63654918  0.49577028  1
  H+  H134  1  0.76126218  0.63458461  0.01118101  1
  H+  H135  1  0.90585182  0.52817892  0.66021065  1
  H+  H136  1  0.86538684  0.72552141  0.16518270  1
  H+  H137  1  0.13011012  0.34177176  0.67137214  1
  H+  H138  1  0.22712573  0.10706085  0.50609984  1
  H+  H139  1  0.10567727  0.14413864  0.16421347  1
  H+  H140  1  0.86174833  0.88558133  1.01386687  1
  H+  H141  1  0.36085133  0.88185655  0.67272981  1
  H+  H142  1  0.88606532  0.35995302  0.34595980  1
  H+  H143  1  0.40261969  0.64443768  0.18655971  1
  H+  H144  1  0.59965140  0.01338755  0.98236334  1
  H+  H145  1  -0.02089776  0.87043970  0.84668126  1
  H+  H146  1  0.89387031  0.11436047  1.00213474  1
  H+  H147  1  0.74610261  0.88877585  0.65067348  1
  H+  H148  1  0.13700174  0.77488195  0.50237230  1
  H+  H149  1  0.13493227  0.77917951  0.66325302  1
  H+  H150  1  0.72381232  0.86705446  0.48616592  1
  H+  H151  1  0.11456479  0.38360391  0.35469347  1
  H+  H152  1  0.86778225  0.97023887  0.67548491  1
  H+  H153  1  0.01705123  0.89074601  0.16416884  1
  H+  H154  1  0.12874915  1.02677278  0.16782046  1
  H+  H155  1  0.15704145  0.52983666  0.15973280  1
  H+  H156  1  0.62485951  0.85597997  0.32029667  1
  H+  H157  1  0.64385344  0.23845531  0.52702348  1
  H+  H158  1  0.12125770  0.98015153  0.68190212  1
  H+  H159  1  0.88467373  0.76131234  0.51379819  1
  H+  H160  1  -0.00866904  0.87379125  0.67490650  1
  H+  H161  1  0.39883676  0.27481971  0.33432576  1
  H+  H162  1  0.55062657  0.14662891  0.16614309  1
  H+  H163  1  0.10263795  0.12795236  0.33361433  1
  H+  H164  1  0.86647883  0.39544567  0.82982979  1
  H+  H165  1  0.86748190  0.10705373  0.16890857  1
  H+  H166  1  0.35687212  0.87724140  0.00911253  1
  H+  H167  1  0.67545984  0.13914542  0.16222341  1
  H+  H168  1  0.48203002  0.87120264  0.65137302  1
  H+  H169  1  0.38741608  0.77734327  0.85148914  1
  H+  H170  1  0.60720741  0.20804829  0.68999678  1
  H+  H171  1  0.87685343  0.67867878  0.74666257  1
  H+  H172  1  -0.03571275  0.33736283  0.66630770  1
  H+  H173  1  0.38961617  0.77292663  0.49942910  1
  H+  H174  1  0.03503110  0.63974499  0.68258940  1
  H+  H175  1  0.11417129  0.97574300  0.50067955  1
  H+  H176  1  0.52458520  0.39679524  0.32323362  1
  H+  H177  1  0.11884312  0.56917688  0.63465514  1
  H+  H178  1  0.73150309  0.12145233  0.32913425  1
  H+  H179  1  0.38918968  0.47135136  0.35346252  1
  H+  H180  1  0.10795547  0.20546776  0.67220826  1
  H+  H181  1  0.96410407  0.12186973  0.17024362  1
  H+  H182  1  0.51851607  0.85217431  0.31945578  1
  H+  H183  1  0.88827161  0.01817636  0.85437126  1
  H+  H184  1  0.10972290  0.23455293  0.16947947  1
  H+  H185  1  0.60697193  0.70695701  0.66055154  1
  H+  H186  1  0.47415116  0.08732442  0.51054995  1
  H+  H187  1  0.97195782  0.35227741  0.51384653  1
  H+  H188  1  0.02489334  0.38242936  0.36006127  1
  H+  H189  1  0.90923289  0.09258256  0.26477954  1
  H+  H190  1  0.36228290  0.46840162  0.66852221  1
  H+  H191  1  0.77359555  0.88857842  0.01703298  1
  H+  H192  1  0.92429003  0.58490706  0.56669979  1
  H+  H193  1  0.02512064  0.62391035  0.14965296  1
  H+  H194  1  0.82003417  0.20430804  0.14960547  1
  H+  H195  1  0.52496440  0.13255662  0.83759141  1
  H+  H196  1  0.87192402  0.40584496  -0.00751691  1
  H+  H197  1  0.52910475  0.14852623  0.02427984  1
  H+  H198  1  0.24960220  0.93104540  0.14468409  1
  H+  H199  1  0.61277442  0.37183584  0.83486148  1
  H+  H200  1  0.64595859  0.87140245  0.16871662  1
  H+  H201  1  0.63139673  0.01630755  0.65065895  1
  H+  H202  1  0.61659979  0.47475172  0.15675862  1
  H+  H203  1  0.16341099  0.07570606  0.90936581  1
  H+  H204  1  0.88581985  0.86335020  0.28043681  1
  H+  H205  1  0.73154900  0.61905612  0.17073275  1
  H+  H206  1  0.84514995  0.19994906  0.50922262  1
  H+  H207  1  0.12004462  0.27713835  0.83257098  1
  H+  H208  1  0.97143964  0.10011602  0.50232349  1
  H+  H209  1  0.83734018  0.42699055  0.05438082  1
  H+  H210  1  0.37927782  0.39749405  0.17943949  1
  H+  H211  1  0.07719340  0.15324172  0.43099126  1
  H+  H212  1  0.38471282  0.09745344  0.50195907  1
  H+  H213  1  0.86834927  0.63841818  0.15835368  1
  H+  H214  1  0.62465939  0.41464012  0.54733083  1
  H+  H215  1  0.63267179  0.60996880  0.82278196  1
  H+  H216  1  0.26958571  0.87854509  0.48897673  1
  H+  H217  1  -0.02935787  0.61276018  0.85310220  1
  H+  H218  1  0.97363184  0.61173724  0.50359203  1
  H+  H219  1  0.52777382  0.64135110  0.16305425  1
  H+  H220  1  0.36392051  0.12520772  0.68130034  1
  H+  H221  1  0.26567570  0.50164528  0.11364351  1
  H+  H222  1  0.11013774  0.11832114  0.67242792  1
  H+  H223  1  0.11423287  0.97600981  0.84172420  1
  H+  H224  1  0.60852226  0.39193440  0.96730737  1
  H+  H225  1  0.96265333  0.34754401  0.13344701  1
  H+  H226  1  0.13911980  0.11117819  0.50624805  1
  H+  H227  1  0.88316858  0.34965691  0.50927526  1
  H+  H228  1  0.36213778  0.20923675  0.50317681  1
  H+  H229  1  0.21876177  0.10209724  0.84883531  1
  H+  H230  1  0.86349534  0.38958584  0.13833551  1
  H+  H231  1  0.39497843  1.02624032  0.01036536  1
  H+  H232  1  0.22186794  0.84755364  0.99771375  1
  H+  H233  1  0.23244124  0.10847983  0.66373215  1
  H+  H234  1  0.88657956  0.10023898  0.65665118  1
  H+  H235  1  0.14553170  1.00961642  0.32906818  1
  H+  H236  1  0.64124950  0.62000932  0.16986840  1
  H+  H237  1  0.11419432  0.61823203  0.00418099  1
  H+  H238  1  0.63211048  0.61423629  0.00548912  1
  H+  H239  1  0.28577808  0.38216113  0.35024238  1
  H+  H240  1  0.11563746  0.39836817  0.50329675  1
  H+  H241  1  0.55349866  0.92150911  0.16749748  1
  H+  H242  1  0.88034572  0.52068465  0.84998847  1
  H+  H243  1  0.77963345  0.39867952  0.14632808  1
  H+  H244  1  0.85585307  0.21087434  0.66990635  1
  H+  H245  1  0.91284972  0.06184103  0.56157230  1
  H+  H246  1  0.38715560  0.52777066  0.84193387  1
  H+  H247  1  0.61643519  0.72927218  0.15950343  1
  H+  H248  1  0.58498766  0.60866643  0.66089254  1
  H+  H249  1  0.65649990  0.29149068  0.16826812  1
  H+  H250  1  0.61668053  0.12896149  0.34601510  1
  H+  H251  1  0.52010353  0.88485823  0.82698216  1
  H+  H252  1  0.27052412  0.62759163  0.34422819  1
  H+  H253  1  0.58758729  0.14909577  0.78292119  1
  H+  H254  1  0.38882145  1.02245268  0.84003786  1
  H+  H255  1  0.28496214  0.64119217  0.48369132  1
  H+  H256  1  0.35762686  0.63283020  0.84572192  1
  H+  H257  1  0.27050569  0.87969748  0.67416436  1
  H+  H258  1  0.38163557  0.37063395  0.67267086  1
  H+  H259  1  0.86649409  0.61796217  0.99539193  1
  H+  H260  1  0.17321337  0.07881211  0.60307891  1
  H+  H261  1  0.37927102  0.55017035  0.16769690  1
  H+  H262  1  0.51772013  0.88239555  0.47315453  1
  H+  H263  1  0.89333197  0.52664002  0.32427372  1
  H+  H264  1  0.72393245  0.62200801  0.32121139  1
  H+  H265  1  0.36363470  0.71501194  0.33354060  1
  H+  H266  1  0.71564528  0.08944003  0.54963868  1
  H+  H267  1  0.60746968  0.88581447  0.47342535  1
  H+  H268  1  0.28392349  0.64229671  0.66427132  1
  H+  H269  1  0.11144133  0.37860108  0.82998561  1
  H+  H270  1  0.60619876  0.20195388  0.37873111  1
  H+  H271  1  0.38165434  0.59758368  0.64655828  1
  H+  H272  1  0.92001618  0.62406414  0.66962101  1
  H+  H273  1  0.35000540  0.21514778  0.83287016  1
  H+  H274  1  0.34772936  0.71373344  0.99776963  1
  H+  H275  1  0.46963679  0.59811708  0.65304982  1
  H+  H276  1  0.86417643  0.88758515  0.82976696  1
  H+  H277  1  0.88048453  0.86265365  0.18634570  1
  H+  H278  1  0.27461788  0.13176781  0.16466424  1
  H+  H279  1  0.52521820  0.39608078  0.46992740  1
  H+  H280  1  0.83532198  0.42034783  0.40068056  1
  H+  H281  1  0.90338517  0.58743836  0.93094051  1
  H+  H282  1  0.13369302  1.02407401  0.00668876  1
  H+  H283  1  0.15831866  0.34142047  0.43972948  1
  H+  H284  1  0.40095284  0.39523606  0.15087453  1
  H+  H285  1  0.79784306  0.16580401  1.02420697  1
  H+  H286  1  0.38100280  0.35955113  0.99994006  1
  H+  H287  1  0.37251622  0.39369387  0.83305966  1
  H+  H288  1  0.36172632  0.67575723  0.71083932  1
  H+  H289  1  0.16073300  0.32169771  0.60913555  1
  H+  H290  1  0.86354186  0.64268491  0.83937609  1
  H+  H291  1  0.42998138  0.08752596  0.23363571  1
  H+  H292  1  0.63834445  0.26114588  0.83947912  1
  H+  H293  1  0.93324066  0.83070255  0.61611745  1
  H+  H294  1  0.06971371  0.38822546  0.74475308  1
  H+  H295  1  0.22149971  0.04009327  0.28240846  1
  H+  H296  1  0.67512675  0.07390499  0.89466375  1
  H+  H297  1  0.28887298  0.66147293  0.17904847  1
  H+  H298  1  0.06080593  0.16483643  0.76546061  1
  H+  H299  1  0.40990223  0.33083757  0.61183656  1
  H+  H300  1  0.40275895  0.57960464  0.25943131  1
  H+  H301  1  0.08084414  0.43057705  0.07227572  1
  H+  H302  1  0.65261211  0.30803666  0.62422499  1
  H+  H303  1  0.33182448  0.66955137  0.06005124  1
  H+  H304  1  0.14934084  0.82679605  0.26899583  1
  H+  H305  1  0.21248125  0.60335333  0.85737370  1
  H+  H306  1  0.27229173  0.39573280  0.00455209  1
  H+  H307  1  0.77598276  0.39039547  0.83225445  1
  H+  H308  1  0.15898909  0.08100718  0.22824315  1
  H+  H309  1  0.03315732  0.14770452  0.01268555  1
  H+  H310  1  0.46990001  0.10170669  0.67465517  1
  H+  H311  1  0.83713907  0.91368675  0.10832594  1
  H+  H312  1  0.92416110  0.58033198  0.22396191  1
  H+  H313  1  0.57119397  0.66200059  0.75908211  1
  H+  H314  1  0.56929057  0.44621730  0.41004810  1
  H+  H315  1  0.32692939  0.90493572  0.77180492  1
  H+  H316  1  0.55925496  0.05433360  0.93918057  1
  H+  H317  1  0.13219257  0.77395581  0.85053457  1
  H+  H318  1  0.32092145  0.90666054  0.06620992  1
  H+  H319  1  0.10257172  0.46671098  0.82487196  1
  H+  H320  1  0.91506393  0.32940903  0.19521618  1
  H+  H321  1  0.41889649  0.58663086  0.93401727  1
  H+  H322  1  0.73174312  0.86487102  0.17135120  1
  H+  H323  1  0.67111966  0.59591125  0.25201327  1
  H+  H324  1  0.66580837  0.82876046  0.25547298  1
  H+  H325  1  0.57308022  0.89076017  0.38321420  1
  H+  H326  1  0.81370137  0.13892067  0.41563011  1
  H+  H327  1  0.91008933  0.30451545  0.98476117  1
  H+  H328  1  0.16152402  0.33706787  0.89252356  1
  H+  H329  1  0.14237002  0.38606988  0.98587884  1
  H+  H330  1  0.41511684  0.83499882  0.93769478  1
  H+  H331  1  0.34368340  0.42307948  0.77375679  1
  H+  H332  1  0.40066741  0.32076753  0.90477932  1
  H+  H333  1  0.69076728  0.36585159  0.24994242  1
  H+  H334  1  0.82537027  0.67149644  0.39642096  1
  H+  H335  1  0.38008412  1.01599104  0.67208197  1
  H+  H336  1  0.07659329  0.67148878  0.42807516  1
  H+  H337  1  0.91054080  0.31432288  0.60340614  1
  H+  H338  1  0.91741611  0.33371643  0.89093483  1
  H+  H339  1  0.30933389  0.44923100  0.09085180  1
  H+  H340  1  0.60358388  0.18014100  0.10450968  1
  H+  H341  1  0.30963665  0.66009388  0.79698727  1
  H+  H342  1  0.64182026  0.62717522  0.50432262  1
  H+  H343  1  0.56758598  0.40294961  0.74912511  1
  H+  H344  1  0.23101997  0.36594940  0.48711997  1
  H+  H345  1  0.88996813  0.78109809  0.84567542  1
  H+  H346  1  0.08774914  0.91779160  0.78086221  1
  H+  H347  1  0.20404578  0.57010940  0.99995755  1
  H+  H348  1  0.33975466  0.16004350  0.43877757  1
  H+  H349  1  0.09317713  0.18582820  0.06953618  1
  H+  H350  1  0.58082518  0.91458554  0.72894717  1
  H+  H351  1  0.39687415  0.02824129  0.17486812  1
  H+  H352  1  0.38445287  0.61166866  0.99277965  1
  H+  H353  1  0.08979705  0.65955822  0.06394834  1
  H+  H354  1  0.36043645  0.87673273  0.49121061  1
  H+  H355  1  0.35064554  0.66879562  0.42961826  1
  H+  H356  1  0.51760168  0.38809206  0.96942883  1
  H+  H357  1  0.83184406  0.66966578  0.06475197  1
  H+  H358  1  0.37123241  0.78862009  0.12465145  1
  H+  H359  1  0.07571504  0.66949344  0.78508884  1
  H+  H360  1  0.38892585  0.78331116  0.25143093  1
  H+  H361  1  0.34090031  0.40314058  0.43616935  1
  H+  H362  1  0.32310190  0.15459267  0.77427226  1
  H+  H363  1  0.82801284  0.91301090  0.77147065  1
  H+  H364  1  0.84702542  0.11249439  0.50662472  1
  H+  H365  1  0.91434915  0.31211440  0.29911911  1
  H+  H366  1  0.67166890  0.83930345  0.94411729  1
  H+  H367  1  0.83569633  0.91348416  0.37167489  1
  H+  H368  1  0.62244658  0.55468639  0.58802985  1
  H+  H369  1  0.44609771  0.31508761  0.24201662  1
  H+  H370  1  0.07382365  0.90944239  0.10292096  1
  H+  H371  1  0.61524410  0.14964162  0.00988081  1
  H+  H372  1  0.18483431  0.61308228  0.54591365  1
  H+  H373  1  0.90809496  0.73911815  0.68838507  1
  H+  H374  1  0.08512320  0.92389178  0.40619314  1
  H+  H375  1  0.14279727  0.86624435  0.50573904  1
  H+  H376  1  0.16593240  0.83315488  0.60056555  1
  H+  H377  1  0.41837482  0.57210014  0.55725970  1
  H+  H378  1  0.92591568  0.07425448  0.91407471  1
  H+  H379  1  0.39158327  0.60666665  0.49911721  1
  H+  H380  1  0.58531755  0.12373753  0.45864190  1
  H+  H381  1  0.85873395  0.37591427  0.66010054  1
  H+  H382  1  0.17147857  0.34123229  0.28137306  1
  H+  H383  1  1.08134285  0.42379614  0.44773169  1
  O2-  O384  1  0.07655535  0.17654554  0.15144056  1
  O2-  O385  1  0.07944855  0.15608589  0.47635252  1
  O2-  O386  1  0.05029862  0.19179807  0.80064932  1
  O2-  O387  1  0.06725981  0.39818484  0.11389845  1
  O2-  O388  1  0.08279208  0.42782006  0.49351838  1
  O2-  O389  1  0.07486467  0.40610909  0.81119552  1
  O2-  O390  1  0.08599618  0.65792917  0.13369166  1
  O2-  O391  1  0.07723180  0.67212219  0.47376416  1
  O2-  O392  1  0.07497620  0.66657063  0.83024048  1
  O2-  O393  1  0.07681402  0.91464247  0.14883330  1
  O2-  O394  1  0.08650305  0.91578251  0.48442433  1
  O2-  O395  1  0.08341041  0.91356441  0.82589002  1
  O2-  O396  1  0.33432681  0.15858460  0.14946103  1
  O2-  O397  1  0.33756824  0.15168244  0.48447486  1
  O2-  O398  1  0.32234237  0.15411370  0.81942226  1
  O2-  O399  1  0.29330063  0.47057988  0.12917467  1
  O2-  O400  1  0.33430166  0.40652432  0.48281214  1
  O2-  O401  1  0.35919630  0.43721328  0.81652212  1
  O2-  O402  1  0.35162119  0.70531577  0.18775525  1
  O2-  O403  1  0.34761295  0.66945129  0.47510091  1
  O2-  O404  1  0.32282277  0.66400412  0.84005950  1
  O2-  O405  1  0.29973464  0.92355338  0.14537091  1
  O2-  O406  1  0.33142606  0.90895224  0.47403190  1
  O2-  O407  1  0.33040738  0.90709079  0.81714694  1
  O2-  O408  1  0.61013531  0.17954735  0.15039141  1
  O2-  O409  1  0.57660143  0.12823938  0.50268146  1
  O2-  O410  1  0.58769014  0.15914819  0.82694095  1
  O2-  O411  1  0.59619614  0.41652530  0.14113409  1
  O2-  O412  1  0.55268014  0.45290195  0.45183662  1
  O2-  O413  1  0.57995668  0.40425630  0.83274737  1
  O2-  O414  1  0.58685372  0.66804262  0.14598720  1
  O2-  O415  1  0.59328996  0.67121735  0.47685923  1
  O2-  O416  1  0.56876188  0.65959772  0.80429423  1
  O2-  O417  1  0.60749046  0.94013002  0.14617690  1
  O2-  O418  1  0.57390257  0.90821518  0.45207761  1
  O2-  O419  1  0.57896348  0.90876753  0.80822791  1
  O2-  O420  1  0.78702118  0.14111767  0.14224657  1
  O2-  O421  1  0.80944531  0.13793666  0.49970997  1
  O2-  O422  1  0.83441598  0.17228679  0.80520261  1
  O2-  O423  1  0.84027153  0.42817268  0.12886394  1
  O2-  O424  1  0.83838355  0.41191950  0.48110540  1
  O2-  O425  1  0.83795708  0.42940309  0.82261815  1
  O2-  O426  1  0.83628727  0.66782606  0.14585136  1
  O2-  O427  1  0.82949654  0.66738747  0.47990916  1
  O2-  O428  1  0.84265751  0.67885642  0.82003677  1
  O2-  O429  1  0.83613909  0.91481967  0.15429733  1
  O2-  O430  1  0.83095631  0.91597201  0.45214823  1
  O2-  O431  1  0.82659225  0.91141117  0.81673294  1
  O2-  O432  1  0.15865206  0.08679370  0.18345643  1
  O2-  O433  1  0.16831704  0.08101366  0.52348089  1
  O2-  O434  1  0.15889238  0.06957389  0.86465535  1
  O2-  O435  1  0.16484045  0.34802695  0.20041772  1
  O2-  O436  1  0.16583816  0.33672033  0.48332132  1
  O2-  O437  1  0.15693417  0.33818971  0.84788621  1
  O2-  O438  1  0.19286226  0.59089094  0.15097518  1
  O2-  O439  1  0.17675190  0.60100139  0.50216743  1
  O2-  O440  1  0.14904693  0.57083648  0.86271083  1
  O2-  O441  1  0.10020842  0.79539671  0.19978128  1
  O2-  O442  1  0.17289614  0.83461619  0.51873826  1
  O2-  O443  1  0.16594697  0.83414503  0.86587163  1
  O2-  O444  1  0.43198735  0.08816636  0.18844346  1
  O2-  O445  1  0.40890017  0.05895196  0.51396055  1
  O2-  O446  1  0.42114038  0.08234975  0.85437453  1
  O2-  O447  1  0.46825941  0.29931726  0.20604479  1
  O2-  O448  1  0.36212419  0.30230394  0.54628806  1
  O2-  O449  1  0.40171731  0.32031752  0.85910693  1
  O2-  O450  1  0.42202665  0.60156338  0.19143249  1
  O2-  O451  1  0.41898846  0.57280719  0.51214265  1
  O2-  O452  1  0.41207808  0.58965494  0.85704187  1
  O2-  O453  1  0.38359885  0.74132341  0.12653478  1
  O2-  O454  1  0.41555382  0.83500617  0.51109432  1
  O2-  O455  1  0.42185291  0.83994349  0.85995756  1
  O2-  O456  1  0.70728334  0.10946247  0.17882238  1
  O2-  O457  1  0.65577505  0.05910664  0.56684392  1
  O2-  O458  1  0.70580927  0.06171525  0.86205384  1
  O2-  O459  1  0.68778405  0.35390194  0.17831244  1
  O2-  O460  1  0.67721647  0.29908393  0.54148110  1
  O2-  O461  1  0.66858894  0.32472548  0.85079626  1
  O2-  O462  1  0.67197728  0.59120685  0.18792726  1
  O2-  O463  1  0.66666054  0.58952296  0.51822096  1
  O2-  O464  1  0.67305483  0.59094442  0.83607668  1
  O2-  O465  1  0.66929802  0.83472907  0.18335867  1
  O2-  O466  1  0.66657369  0.84224163  0.50547708  1
  O2-  O467  1  0.68289340  0.80121922  0.86835884  1
  O2-  O468  1  0.90440465  0.08589853  0.18608250  1
  O2-  O469  1  0.91070546  0.06407903  0.51605215  1
  O2-  O470  1  0.91841373  0.07743805  0.86994045  1
  O2-  O471  1  0.90325077  0.31999379  0.15187973  1
  O2-  O472  1  0.91045859  0.31734448  0.52566717  1
  O2-  O473  1  0.91349728  0.32581721  0.84584618  1
  O2-  O474  1  0.92700821  0.58491266  0.17875750  1
  O2-  O475  1  0.91492511  0.57835679  0.52180549  1
  O2-  O476  1  0.90914704  0.58283129  0.86653642  1
  O2-  O477  1  0.91212902  0.83121237  0.19910245  1
  O2-  O478  1  0.92145977  0.82116492  0.53158306  1
  O2-  O479  1  0.91744488  0.84208652  0.86046442  1
  O2-  O480  1  0.18923245  0.06248809  0.30379753  1
  O2-  O481  1  0.17161070  0.07780420  0.64827138  1
  O2-  O482  1  0.16858079  0.08387275  0.99220706  1
  O2-  O483  1  0.16767462  0.33362713  0.32631740  1
  O2-  O484  1  0.16767871  0.32075720  0.65304115  1
  O2-  O485  1  0.17036824  0.35150075  0.97623490  1
  O2-  O486  1  0.17715562  0.58079014  0.32696650  1
  O2-  O487  1  0.17767269  0.58046189  0.63023711  1
  O2-  O488  1  0.14366534  0.54693468  0.98593947  1
  O2-  O489  1  0.16313419  0.83249108  0.31346645  1
  O2-  O490  1  0.16746874  0.83785726  0.64574435  1
  O2-  O491  1  0.16004810  0.81195224  0.98401635  1
  O2-  O492  1  0.42331199  0.08795866  0.31467891  1
  O2-  O493  1  0.41026675  0.07716422  0.65924504  1
  O2-  O494  1  0.43146956  0.08886705  1.01325168  1
  O2-  O495  1  0.42397146  0.33245148  0.31571356  1
  O2-  O496  1  0.41678973  0.33736183  0.65796528  1
  O2-  O497  1  0.40769292  0.32809372  0.98179204  1
  O2-  O498  1  0.37797282  0.56111375  0.30265737  1
  O2-  O499  1  0.40921482  0.56302352  0.63730355  1
  O2-  O500  1  0.41930158  0.58552862  0.97962474  1
  O2-  O501  1  0.40960909  0.80562692  0.29284410  1
  O2-  O502  1  0.42260514  0.84223508  0.63386038  1
  O2-  O503  1  0.40893990  0.82653181  0.98287175  1
  O2-  O504  1  0.67903640  0.11111198  0.30699119  1
  O2-  O505  1  0.66624350  0.07651100  0.63305341  1
  O2-  O506  1  0.61283733  0.06671960  0.95901424  1
  O2-  O507  1  0.68697587  0.36546965  0.29656910  1
  O2-  O508  1  0.65333392  0.31640753  0.66873567  1
  O2-  O509  1  0.66588984  0.33812638  0.97408477  1
  O2-  O510  1  0.66561821  0.59406644  0.30074809  1
  O2-  O511  1  0.58682769  0.53555850  0.62622665  1
  O2-  O512  1  0.66539855  0.58405073  1.00592810  1
  O2-  O513  1  0.66745534  0.82883763  0.30179937  1
  O2-  O514  1  0.70062165  0.89275864  0.62592984  1
  O2-  O515  1  0.66780493  0.84398148  0.98874666  1
  O2-  O516  1  0.91360553  0.08616428  0.30962258  1
  O2-  O517  1  0.91375898  0.06804261  0.64012407  1
  O2-  O518  1  0.92641158  0.08404008  0.99733837  1
  O2-  O519  1  0.91501160  0.32416475  0.34231289  1
  O2-  O520  1  0.90536357  0.31292859  0.64891717  1
  O2-  O521  1  0.93248953  0.36260760  0.96768337  1
  O2-  O522  1  0.92103180  0.58516215  0.30572724  1
  O2-  O523  1  0.94292220  0.58868273  0.64764746  1
  O2-  O524  1  0.89917607  0.58734541  0.97924360  1
  O2-  O525  1  0.90857926  0.82561092  0.26679728  1
  O2-  O526  1  0.92986463  0.83961499  0.65998382  1
  O2-  O527  1  0.91470439  0.83609714  0.98352880  1
  O2-  O528  1  0.09485012  0.18424591  0.02450001  1
  O2-  O529  1  0.07580425  0.15856824  0.35128757  1
  O2-  O530  1  0.07365434  0.14413782  0.68298197  1
  O2-  O531  1  0.09679164  0.45322718  0.00408673  1
  O2-  O532  1  0.08604774  0.41396889  0.37315123  1
  O2-  O533  1  0.06715427  0.38010037  0.69741300  1
  O2-  O534  1  0.09405980  0.65935926  0.01720857  1
  O2-  O535  1  0.08661144  0.66471796  0.35223008  1
  O2-  O536  1  0.08989019  0.68170690  0.70493487  1
  O2-  O537  1  0.07723876  0.90645501  0.02774231  1
  O2-  O538  1  0.08521942  0.92499617  0.36084396  1
  O2-  O539  1  0.09048029  0.92054950  0.69900320  1
  O2-  O540  1  0.33701576  0.16795178  0.02741648  1
  O2-  O541  1  0.34132716  0.16649220  0.36440962  1
  O2-  O542  1  0.33030219  0.15544760  0.69410164  1
  O2-  O543  1  0.32981002  0.42290379  0.02519029  1
  O2-  O544  1  0.34318318  0.40049013  0.36695347  1
  O2-  O545  1  0.33599172  0.40862219  0.68685576  1
  O2-  O546  1  0.31989133  0.65531754  0.01648705  1
  O2-  O547  1  0.33605182  0.65730560  0.35358507  1
  O2-  O548  1  0.34698039  0.66990588  0.66780089  1
  O2-  O549  1  0.32240636  0.90478957  0.02145659  1
  O2-  O550  1  0.39075192  0.92983565  0.35794760  1
  O2-  O551  1  0.32865977  0.90631378  0.69315681  1
  O2-  O552  1  0.59395486  0.18338398  0.03177161  1
  O2-  O553  1  0.57710664  0.13980787  0.37384994  1
  O2-  O554  1  0.57802578  0.14533039  0.69792781  1
  O2-  O555  1  0.57781941  0.42260603  -0.04580276  1
  O2-  O556  1  0.58768913  0.43804901  0.33314378  1
  O2-  O557  1  0.56526257  0.39654506  0.70425491  1
  O2-  O558  1  0.58316134  0.67890116  0.02168665  1
  O2-  O559  1  0.44123317  0.55031828  0.33837085  1
  O2-  O560  1  0.57019419  0.65208081  0.68034495  1
  O2-  O561  1  0.57706434  0.92122004  0.02009410  1
  O2-  O562  1  0.57700754  0.88467937  0.33680482  1
  O2-  O563  1  0.58163216  0.91839462  0.68358901  1
  O2-  O564  1  0.84226135  0.18289921  -0.00681038  1
  O2-  O565  1  0.82503714  0.15068179  0.37135895  1
  O2-  O566  1  0.82773836  0.15035396  0.68605777  1
  O2-  O567  1  0.83637552  0.43028623  0.00862724  1
  O2-  O568  1  0.84197145  0.42151907  0.35551207  1
  O2-  O569  1  0.82973956  0.41099871  0.65682091  1
  O2-  O570  1  0.82705706  0.66760042  0.01962883  1
  O2-  O571  1  0.82268599  0.66698411  0.35098958  1
  O2-  O572  1  0.90292001  0.68589139  0.70562907  1
  O2-  O573  1  0.83346582  0.91562301  0.03323202  1
  O2-  O574  1  0.83333856  0.91427623  0.32654901  1
  O2-  O575  1  0.83254536  0.90997539  0.69096073  1
