# generated using pymatgen
data_H2O
_symmetry_space_group_name_H-M   'P 1'
_cell_length_a   17.98242682
_cell_length_b   17.98919792
_cell_length_c   22.00406440
_cell_angle_alpha   89.97227388
_cell_angle_beta   90.00852284
_cell_angle_gamma   119.99445210
_symmetry_Int_Tables_number   1
_chemical_formula_structural   H2O
_chemical_formula_sum   'H384 O192'
_cell_volume   6164.78398776
_cell_formula_units_Z   192
loop_
 _symmetry_equiv_pos_site_id
 _symmetry_equiv_pos_as_xyz
  1  'x, y, z'
loop_
 _atom_type_symbol
 _atom_type_oxidation_number
  H+  1.0
  O2-  -2.0
loop_
 _atom_site_type_symbol
 _atom_site_label
 _atom_site_symmetry_multiplicity
 _atom_site_fract_x
 _atom_site_fract_y
 _atom_site_fract_z
 _atom_site_occupancy
  H+  H0  1  0.55665384  0.14939770  0.26120547  1
  H+  H1  1  0.16627382  0.39265034  0.16753409  1
  H+  H2  1  0.10928385  0.89444937  0.80863911  1
  H+  H3  1  0.13592607  0.53038184  0.83657104  1
  H+  H4  1  0.36573831  0.72426611  0.67026240  1
  H+  H5  1  0.50702184  0.12703832  0.65234342  1
  H+  H6  1  0.87914313  0.86226040  0.17360008  1
  H+  H7  1  0.88423849  0.85033963  0.66695854  1
  H+  H8  1  0.12098547  0.72420186  0.00096616  1
  H+  H9  1  0.25147899  0.63663657  0.34963152  1
  H+  H10  1  0.59063177  0.87966120  0.14473401  1
  H+  H11  1  0.64819719  0.27697321  0.85169107  1
  H+  H12  1  0.84316295  0.67405644  0.41142820  1
  H+  H13  1  0.48059206  0.62456843  0.50054365  1
  H+  H14  1  0.72984651  0.10647303  0.85040276  1
  H+  H15  1  0.87657538  0.48585019  0.00547246  1
  H+  H16  1  0.92311097  0.59081005  0.23666045  1
  H+  H17  1  0.54389311  0.48837722  0.87254281  1
  H+  H18  1  0.85091834  0.97012390  -0.00322337  1
  H+  H19  1  1.00587578  0.88807701  1.00539369  1
  H+  H20  1  0.35472065  0.97915224  0.16410624  1
  H+  H21  1  0.53688407  0.38199570  0.81781454  1
  H+  H22  1  0.12235324  0.24903152  0.82475045  1
  H+  H23  1  0.15098523  0.01202103  0.83944383  1
  H+  H24  1  0.63571861  0.60550008  0.99694404  1
  H+  H25  1  0.88708661  0.77456086  0.33264566  1
  H+  H26  1  0.62842523  0.14137484  0.49937375  1
  H+  H27  1  0.33456155  0.92464023  0.73813555  1
  H+  H28  1  0.01840026  0.63912440  0.15270546  1
  H+  H29  1  0.88714791  0.77746254  0.17484204  1
  H+  H30  1  0.63290316  0.26724867  0.31711633  1
  H+  H31  1  0.36572671  0.76988060  0.16533895  1
  H+  H32  1  0.94258129  0.21348758  0.05689156  1
  H+  H33  1  0.28093186  0.89908748  0.83228667  1
  H+  H34  1  0.40391275  0.91180100  0.02265044  1
  H+  H35  1  0.36658879  0.86093758  0.16819372  1
  H+  H36  1  0.47314273  0.86405618  0.82958348  1
  H+  H37  1  0.63742637  0.26244319  0.65201556  1
  H+  H38  1  0.61094815  0.47055632  0.00985124  1
  H+  H39  1  0.13848018  0.76721223  0.66663357  1
  H+  H40  1  0.12708369  0.77008673  0.32325113  1
  H+  H41  1  0.62365413  0.13036326  0.85346209  1
  H+  H42  1  -0.02912395  0.09383922  0.32459728  1
  H+  H43  1  0.27170162  0.88521083  0.67998202  1
  H+  H44  1  0.89792063  0.03440274  0.83964315  1
  H+  H45  1  0.27220073  0.38581879  0.00486165  1
  H+  H46  1  0.47361752  0.60531095  0.98417688  1
  H+  H47  1  0.40038808  0.83608939  0.25347798  1
  H+  H48  1  0.47226089  0.12092486  1.00007207  1
  H+  H49  1  0.37828207  0.98390508  0.01114427  1
  H+  H50  1  0.88481837  0.26458622  0.50451014  1
  H+  H51  1  0.10533926  -0.01489302  1.00761616  1
  H+  H52  1  0.39795813  0.31403555  0.56393604  1
  H+  H53  1  0.72181618  0.85614215  0.84271740  1
  H+  H54  1  0.84602741  0.17047593  0.07340692  1
  H+  H55  1  0.91539003  0.32979098  0.88636714  1
  H+  H56  1  0.47001929  0.86204942  0.52730096  1
  H+  H57  1  0.60196677  0.13482340  0.00760461  1
  H+  H58  1  0.14176156  0.36342382  0.98417331  1
  H+  H59  1  0.63725788  0.27526453  0.17551133  1
  H+  H60  1  0.60808422  0.71701133  -0.00407082  1
  H+  H61  1  0.45267240  0.61882457  0.16865402  1
  H+  H62  1  0.12021392  0.61157800  0.14779903  1
  H+  H63  1  0.08836508  0.68093810  0.44571112  1
  H+  H64  1  0.63212616  0.10257847  0.65631070  1
  H+  H65  1  0.25964442  0.63597228  0.14057366  1
  H+  H66  1  0.97777389  0.61346551  0.98548213  1
  H+  H67  1  0.96828724  0.08919141  0.50963922  1
  H+  H68  1  0.71787038  0.59462082  0.66485210  1
  H+  H69  1  0.36598047  0.97793636  0.50171081  1
  H+  H70  1  0.62868539  0.85026524  0.30983061  1
  H+  H71  1  0.27763365  0.63550241  0.66204299  1
  H+  H72  1  1.01931092  0.88207043  0.34181376  1
  H+  H73  1  0.61961522  0.88576771  0.67831236  1
  H+  H74  1  0.02936311  0.64367911  0.34431829  1
  H+  H75  1  0.16518376  0.83253017  0.61222888  1
  H+  H76  1  0.89142135  0.11105020  0.99013538  1
  H+  H77  1  0.85484702  0.96489667  0.34184468  1
  H+  H78  1  0.38531513  0.15441784  0.68070717  1
  H+  H79  1  0.13614039  1.01506195  0.32268055  1
  H+  H80  1  0.35356372  0.13449283  1.01102562  1
  H+  H81  1  0.90973431  0.57415623  0.60164785  1
  H+  H82  1  0.13973450  0.55990749  0.47324222  1
  H+  H83  1  0.75466500  0.39041205  0.34515933  1
  H+  H84  1  0.11085475  0.13573683  0.00052755  1
  H+  H85  1  0.39004827  0.86437903  0.67134813  1
  H+  H86  1  0.36156748  0.47686878  0.99899882  1
  H+  H87  1  0.17065417  0.59030095  0.89612623  1
  H+  H88  1  0.53026038  0.38956218  0.51049144  1
  H+  H89  1  0.37320265  0.48702407  0.15305624  1
  H+  H90  1  0.86000333  0.22372753  0.82272200  1
  H+  H91  1  0.21756363  0.10417327  0.50664520  1
  H+  H92  1  0.88720730  0.53514001  0.33365184  1
  H+  H93  1  0.85220289  0.62561669  0.67464537  1
  H+  H94  1  0.63860997  0.01686954  0.65689237  1
  H+  H95  1  0.35217085  0.22271932  0.00851940  1
  H+  H96  1  0.72911117  0.36277130  -0.00400306  1
  H+  H97  1  -0.02326498  0.86445732  0.49975295  1
  H+  H98  1  0.63633792  0.15353844  0.15189869  1
  H+  H99  1  0.35706271  0.22139422  0.33485185  1
  H+  H100  1  0.89746425  0.32493083  0.30768374  1
  H+  H101  1  0.87493749  -0.03020835  0.68023449  1
  H+  H102  1  0.85320412  0.46728566  0.66886331  1
  H+  H103  1  0.88555545  0.52505841  0.18035927  1
  H+  H104  1  0.14107118  0.51908026  0.64736957  1
  H+  H105  1  0.10941095  0.61580179  0.66468175  1
  H+  H106  1  0.50102826  0.87706047  0.15562737  1
  H+  H107  1  0.34226524  0.41461661  0.43697720  1
  H+  H108  1  0.12061626  0.64753950  0.50233501  1
  H+  H109  1  0.28051801  0.38246445  0.68004676  1
  H+  H110  1  0.46299055  0.34942174  0.17021404  1
  H+  H111  1  0.15764839  0.26816657  0.50783050  1
  H+  H112  1  0.16958798  0.06960274  0.93776841  1
  H+  H113  1  0.87016215  0.20303565  0.33554295  1
  H+  H114  1  0.13690611  0.78132733  0.51642833  1
  H+  H115  1  0.39483867  0.53498169  0.49496553  1
  H+  H116  1  0.57228418  0.63574992  0.14918716  1
  H+  H117  1  0.62920862  0.23861122  0.49515993  1
  H+  H118  1  0.36183314  0.88758018  0.50549045  1
  H+  H119  1  0.12303486  0.65125689  0.83245182  1
  H+  H120  1  0.48330019  0.11182562  0.85415450  1
  H+  H121  1  0.88590135  0.36190156  0.82816511  1
  H+  H122  1  0.86776386  0.64703375  0.82350066  1
  H+  H123  1  0.02611362  0.15134560  0.82407284  1
  H+  H124  1  0.15472955  0.06727490  0.61358108  1
  H+  H125  1  0.39203279  0.60219382  0.66042204  1
  H+  H126  1  0.46039392  0.59795452  0.31643968  1
  H+  H127  1  0.10820437  0.88264951  0.49739675  1
  H+  H128  1  0.77564385  0.38897613  0.82443853  1
  H+  H129  1  0.28845926  0.39043588  0.49820129  1
  H+  H130  1  0.62719770  0.50908168  0.84103399  1
  H+  H131  1  1.01069878  0.12618557  0.15566373  1
  H+  H132  1  0.09373273  0.97060148  0.71300770  1
  H+  H133  1  0.37163461  0.78608335  0.31663453  1
  H+  H134  1  0.38032001  0.39370919  0.15268033  1
  H+  H135  1  0.77402470  0.63403724  0.00032147  1
  H+  H136  1  0.64094795  0.52077384  0.51338552  1
  H+  H137  1  0.87734259  0.87164554  0.49380141  1
  H+  H138  1  0.44792339  0.78677897  0.99876126  1
  H+  H139  1  0.35721441  0.37861189  0.33989705  1
  H+  H140  1  0.36799514  0.89263340  0.82571560  1
  H+  H141  1  0.17039525  0.86658436  1.00905850  1
  H+  H142  1  0.58655131  0.00069936  0.99828018  1
  H+  H143  1  0.86593182  0.96892137  0.49620367  1
  H+  H144  1  0.86299078  0.38371725  0.49584361  1
  H+  H145  1  0.51688006  0.88644972  0.30805301  1
  H+  H146  1  0.64611261  1.02496861  0.29451544  1
  H+  H147  1  0.64215037  0.77380698  0.52740430  1
  H+  H148  1  0.14834544  0.35172404  0.50954697  1
  H+  H149  1  0.71514885  0.85959261  0.15979626  1
  H+  H150  1  0.17110778  0.33449079  0.89360986  1
  H+  H151  1  -0.02572630  0.35225918  0.50839504  1
  H+  H152  1  0.87962200  0.86012374  0.98978019  1
  H+  H153  1  0.63955559  0.60296994  0.33018615  1
  H+  H154  1  0.12513385  0.11120170  0.17134294  1
  H+  H155  1  0.61666528  0.62910350  0.67485723  1
  H+  H156  1  0.88409335  0.35529079  -0.01937959  1
  H+  H157  1  0.40529828  0.39062894  0.52396493  1
  H+  H158  1  1.01182514  0.88597266  0.16011563  1
  H+  H159  1  0.40428081  0.39396565  0.84496558  1
  H+  H160  1  0.86450789  0.09842816  0.17765415  1
  H+  H161  1  0.60035930  0.37075821  0.34774587  1
  H+  H162  1  0.12012454  0.46249356  0.50959717  1
  H+  H163  1  -0.03315419  0.59520866  0.66115448  1
  H+  H164  1  0.77248073  0.13105530  0.67188690  1
  H+  H165  1  0.37159903  1.01500177  0.66528292  1
  H+  H166  1  0.58849733  0.40141050  0.75315849  1
  H+  H167  1  0.64292906  0.36224562  0.83642907  1
  H+  H168  1  0.38750920  0.11383973  0.17417202  1
  H+  H169  1  0.66642519  0.57357262  0.57619342  1
  H+  H170  1  0.68216929  0.06984174  1.01377134  1
  H+  H171  1  0.12436228  0.65391816  0.34777231  1
  H+  H172  1  0.84615692  0.40011516  0.34672281  1
  H+  H173  1  0.85796250  0.12206994  0.49522659  1
  H+  H174  1  0.88703433  0.77403672  -0.00982809  1
  H+  H175  1  0.60841163  0.83701010  0.98421889  1
  H+  H176  1  0.78663587  0.88494691  0.68891986  1
  H+  H177  1  1.02112428  0.13257402  0.99637798  1
  H+  H178  1  0.88557533  0.35671108  0.66032855  1
  H+  H179  1  0.38297742  0.77785441  0.82603243  1
  H+  H180  1  0.39182497  0.02465163  0.84538463  1
  H+  H181  1  0.89220352  0.77794522  0.83014141  1
  H+  H182  1  0.09820474  0.46845857  0.13343245  1
  H+  H183  1  0.11582660  0.39286746  0.82305367  1
  H+  H184  1  0.62869635  0.35979525  0.17429083  1
  H+  H185  1  0.14463522  0.79167639  0.84826319  1
  H+  H186  1  0.89205711  0.12108573  0.83258466  1
  H+  H187  1  0.42158159  0.25825993  0.69391397  1
  H+  H188  1  0.78158292  0.63962798  0.35426778  1
  H+  H189  1  -0.02135631  0.11353839  0.66098603  1
  H+  H190  1  -0.02034916  0.61693168  0.83567419  1
  H+  H191  1  0.22346834  0.34655785  0.32835401  1
  H+  H192  1  0.13826302  0.27230850  -0.01260413  1
  H+  H193  1  0.12774460  0.02364316  0.17032575  1
  H+  H194  1  0.65131466  0.56359394  0.93895928  1
  H+  H195  1  0.26430036  0.13507468  0.16362805  1
  H+  H196  1  0.22067853  0.10700367  1.00002166  1
  H+  H197  1  0.63171074  0.85343283  0.83516368  1
  H+  H198  1  0.36964186  0.47056358  0.67954946  1
  H+  H199  1  0.75971877  0.88073700  0.99844879  1
  H+  H200  1  0.10839808  0.11870269  0.33580563  1
  H+  H201  1  0.74039835  0.35806323  0.66093453  1
  H+  H202  1  0.89694493  0.27453471  -0.01135529  1
  H+  H203  1  0.59372757  0.61706949  0.83246177  1
  H+  H204  1  0.13485162  0.34337017  0.31992895  1
  H+  H205  1  0.36884828  0.26771770  0.17256907  1
  H+  H206  1  0.02364068  0.89784713  0.81351038  1
  H+  H207  1  0.64475637  0.77095359  0.67554076  1
  H+  H208  1  0.27150092  0.12847322  0.33246578  1
  H+  H209  1  0.02570493  0.39045589  0.82000525  1
  H+  H210  1  0.48044676  0.60348072  0.66413760  1
  H+  H211  1  0.01392427  0.37681791  0.13814402  1
  H+  H212  1  0.34002914  0.67417764  0.42207752  1
  H+  H213  1  0.83755089  0.21978669  0.16043776  1
  H+  H214  1  0.84948149  0.71343928  0.67020776  1
  H+  H215  1  0.13082264  0.10511012  0.51309463  1
  H+  H216  1  0.35024238  0.46396934  0.33926665  1
  H+  H217  1  0.59069291  0.73256889  0.14819902  1
  H+  H218  1  0.37296447  0.64222986  -0.00137786  1
  H+  H219  1  0.38432804  0.36018941  -0.00379763  1
  H+  H220  1  0.06752764  0.91903046  0.07112821  1
  H+  H221  1  0.61098456  0.88710876  0.53669478  1
  H+  H222  1  0.61322040  0.22969610  1.00501445  1
  H+  H223  1  0.28914413  0.13081298  0.82357724  1
  H+  H224  1  0.15247323  0.53136132  -0.01254828  1
  H+  H225  1  0.41067229  0.57944072  0.92613907  1
  H+  H226  1  0.86799481  0.89184467  0.84097430  1
  H+  H227  1  0.04054244  0.19842019  0.46799340  1
  H+  H228  1  0.47095951  0.35562959  -0.00203382  1
  H+  H229  1  0.52903084  0.13505696  0.33078484  1
  H+  H230  1  0.72805639  0.86200753  0.51871800  1
  H+  H231  1  0.41018068  0.72811277  0.36962126  1
  H+  H232  1  0.63836214  0.36297475  0.50956453  1
  H+  H233  1  1.03367377  0.39347443  0.98509148  1
  H+  H234  1  0.88258038  0.77218331  0.50317647  1
  H+  H235  1  0.03337369  0.46042544  0.37700698  1
  H+  H236  1  0.85072450  0.96801180  0.15532128  1
  H+  H237  1  0.25945677  0.63759790  0.49712859  1
  H+  H238  1  0.35552870  0.47831874  0.82537652  1
  H+  H239  1  0.12375345  0.49715696  0.34925303  1
  H+  H240  1  0.64739381  0.11399146  0.29680881  1
  H+  H241  1  0.10089940  0.88401923  0.15564942  1
  H+  H242  1  0.23990481  0.62409094  -0.01182097  1
  H+  H243  1  0.89228474  0.52683809  0.50875153  1
  H+  H244  1  0.46863170  0.35507363  0.32785861  1
  H+  H245  1  0.37069297  0.90747650  0.34255534  1
  H+  H246  1  -0.01891899  0.61779777  0.51193835  1
  H+  H247  1  0.11717976  0.22654145  0.67525280  1
  H+  H248  1  0.86559441  0.47738641  0.81860413  1
  H+  H249  1  0.34371056  0.21918896  0.47870116  1
  H+  H250  1  0.46935789  0.61214449  0.83460245  1
  H+  H251  1  0.47343603  0.11014602  0.16795579  1
  H+  H252  1  0.12156474  0.86219651  0.32338482  1
  H+  H253  1  0.22468731  0.87091174  0.51620074  1
  H+  H254  1  0.60405152  0.46037007  0.35456446  1
  H+  H255  1  0.38136271  0.61577926  0.83346511  1
  H+  H256  1  0.72932085  0.11852534  0.50602493  1
  H+  H257  1  0.13873723  0.35842391  0.66088900  1
  H+  H258  1  0.76430486  0.38881796  0.16956425  1
  H+  H259  1  0.61600558  -0.03046917  0.82966320  1
  H+  H260  1  0.23227160  0.36793197  0.83359612  1
  H+  H261  1  0.10767142  0.20744871  0.33429903  1
  H+  H262  1  0.62649987  0.63563679  0.50905108  1
  H+  H263  1  0.38191745  0.13903308  0.82850381  1
  H+  H264  1  0.34566039  0.63420000  0.15391218  1
  H+  H265  1  0.88754251  0.10890937  0.66030768  1
  H+  H266  1  0.10561028  -0.03016362  0.49411190  1
  H+  H267  1  0.25403029  0.86071858  0.99951116  1
  H+  H268  1  0.99316053  0.35057968  0.31285541  1
  H+  H269  1  0.77512662  0.63597991  0.50417055  1
  H+  H270  1  0.83197758  0.91049809  0.43188535  1
  H+  H271  1  0.89699753  0.62712428  0.33478658  1
  H+  H272  1  0.79048772  0.64044642  0.15143783  1
  H+  H273  1  0.86682509  0.64003189  0.50279488  1
  H+  H274  1  0.64728035  0.59719968  0.20250341  1
  H+  H275  1  0.58413991  0.92125831  0.36113709  1
  H+  H276  1  0.37783268  0.60378587  0.33262548  1
  H+  H277  1  0.83538110  -0.07787171  0.89581783  1
  H+  H278  1  0.87800401  0.36094520  0.16833715  1
  H+  H279  1  0.39753162  0.13461793  0.49446487  1
  H+  H280  1  0.58566653  0.45746292  0.15651353  1
  H+  H281  1  0.60864338  0.97309899  0.52363752  1
  H+  H282  1  0.53572255  0.14921662  0.48905577  1
  H+  H283  1  0.12908590  0.77512448  0.16593980  1
  H+  H284  1  1.02657959  0.38411458  0.66955825  1
  H+  H285  1  0.60719793  0.71450318  0.32558040  1
  H+  H286  1  0.21722494  0.86676507  0.17050109  1
  H+  H287  1  0.60967732  0.71410215  0.82801997  1
  H+  H288  1  0.08922959  0.42022946  0.72684595  1
  H+  H289  1  0.82627031  0.90986336  0.09511381  1
  H+  H290  1  0.41137739  0.33090356  0.26617710  1
  H+  H291  1  0.57597207  0.40433487  0.44474226  1
  H+  H292  1  0.73189778  0.36671286  0.50769831  1
  H+  H293  1  0.55191014  0.53804975  0.22293612  1
  H+  H294  1  0.91660449  0.08638037  0.92588792  1
  H+  H295  1  0.85513722  0.87668321  0.34411054  1
  H+  H296  1  0.10517645  0.69690746  0.77705190  1
  H+  H297  1  0.22591289  0.01772059  0.87817995  1
  H+  H298  1  0.61613599  0.88734134  0.43031581  1
  H+  H299  1  0.32358140  0.16534027  0.10450573  1
  H+  H300  1  0.05555979  0.59423507  0.72444358  1
  H+  H301  1  0.46343776  0.18182953  0.54554218  1
  H+  H302  1  0.92780961  0.83609602  0.89011752  1
  H+  H303  1  0.27133772  0.63895057  0.81954198  1
  H+  H304  1  0.58956368  0.91778278  0.76661502  1
  H+  H305  1  0.67641682  0.33085838  0.59374857  1
  H+  H306  1  0.32964532  0.92217784  0.10358524  1
  H+  H307  1  0.64724706  0.93528674  0.43053352  1
  H+  H308  1  0.16403657  0.57889013  0.58759301  1
  H+  H309  1  0.62664009  0.50311118  0.66331745  1
  H+  H310  1  0.07359932  0.66795197  0.08937747  1
  H+  H311  1  0.82399376  0.40905127  0.73054679  1
  H+  H312  1  0.17884911  0.85041350  0.90617177  1
  H+  H313  1  0.32122230  0.15803511  0.42184361  1
  H+  H314  1  0.41308495  0.08607477  0.94103415  1
  H+  H315  1  0.32906240  0.66227908  0.75889256  1
  H+  H316  1  0.86166227  0.21992257  0.67372309  1
  H+  H317  1  0.68515174  0.56304099  0.28939089  1
  H+  H318  1  0.82553755  0.15761387  0.76738066  1
  H+  H319  1  0.61173562  0.38203105  0.00698259  1
  H+  H320  1  0.15022063  0.82920350  0.25669389  1
  H+  H321  1  0.90129413  0.06696830  0.23176857  1
  H+  H322  1  0.88116697  0.09317881  0.32847735  1
  H+  H323  1  0.08321090  0.90938365  0.39977222  1
  H+  H324  1  0.84017004  0.66734603  0.05628218  1
  H+  H325  1  0.82906109  0.41873974  0.44077990  1
  H+  H326  1  0.67547159  0.34099194  0.93419140  1
  H+  H327  1  0.65752079  0.82902336  0.21920144  1
  H+  H328  1  0.34529486  0.67722027  0.05644928  1
  H+  H329  1  0.47392873  0.38962248  0.64757803  1
  H+  H330  1  0.57167461  0.40055962  0.09741703  1
  H+  H331  1  0.71681689  0.85045113  0.32183005  1
  H+  H332  1  0.77418030  0.12501851  0.33229316  1
  H+  H333  1  0.67156937  0.09321613  0.56787978  1
  H+  H334  1  0.56895765  0.66347843  0.05639982  1
  H+  H335  1  0.41340375  0.83512748  0.60989487  1
  H+  H336  1  0.55950615  0.16005375  0.71102511  1
  H+  H337  1  0.38632418  0.06957759  0.60327628  1
  H+  H338  1  0.08350254  0.41321321  0.04809914  1
  H+  H339  1  0.20673043  0.61616270  0.28703644  1
  H+  H340  1  0.35625519  0.64163187  0.49786444  1
  H+  H341  1  0.53043632  0.88727364  0.67435558  1
  H+  H342  1  0.56340951  0.64965674  0.38091934  1
  H+  H343  1  0.11605209  0.63383174  0.00046687  1
  H+  H344  1  0.91590718  0.57929723  0.89158641  1
  H+  H345  1  0.66336067  0.34015594  0.26934767  1
  H+  H346  1  0.07384820  0.15367163  0.42359954  1
  H+  H347  1  0.82295766  0.42283727  0.11010670  1
  H+  H348  1  0.87814800  0.64235989  0.15937093  1
  H+  H349  1  0.37854296  0.77490752  0.51499296  1
  H+  H350  1  0.65379020  0.82216603  0.92734870  1
  H+  H351  1  0.91184136  0.06558471  0.57103950  1
  H+  H352  1  0.92284069  0.32586246  0.21472915  1
  H+  H353  1  0.83238842  0.67192076  0.76599155  1
  H+  H354  1  0.19468633  0.36023582  0.22344975  1
  H+  H355  1  0.91416697  0.32620883  0.60130962  1
  H+  H356  1  0.16085117  0.07589116  0.26318554  1
  H+  H357  1  0.33334000  0.41441421  0.76747125  1
  H+  H358  1  0.90931652  0.43767931  0.04763236  1
  H+  H359  1  0.41346954  0.12839254  0.35895966  1
  H+  H360  1  0.58894319  0.17514689  0.10037128  1
  H+  H361  1  0.67943721  0.83525332  0.61987225  1
  H+  H362  1  0.52890709  0.90311349  0.06940400  1
  H+  H363  1  0.14099839  0.56422144  0.19987209  1
  H+  H364  1  0.64123082  0.69901227  0.45542451  1
  H+  H365  1  0.35414123  0.42953510  0.08516362  1
  H+  H366  1  0.58611392  0.65743447  0.73447248  1
  H+  H367  1  0.66691027  0.06861623  0.91011516  1
  H+  H368  1  0.88709195  0.61159142  0.98583020  1
  H+  H369  1  0.08878241  0.17913763  0.76122918  1
  H+  H370  1  0.33853219  0.92092257  0.40686537  1
  H+  H371  1  0.83102665  0.15153321  0.43415168  1
  H+  H372  1  0.39165247  0.57591521  0.22774862  1
  H+  H373  1  0.36210142  0.18111391  0.75627502  1
  H+  H374  1  0.71364073  0.10729569  0.20914924  1
  H+  H375  1  0.17358413  0.32628069  0.60548638  1
  H+  H376  1  0.09374337  0.41662418  0.44593681  1
  H+  H377  1  0.90795669  0.82363593  0.60452464  1
  H+  H378  1  0.41327457  0.04173772  0.36793185  1
  H+  H379  1  0.60226734  0.16599259  0.79603402  1
  H+  H380  1  0.43222278  0.35978677  0.90342741  1
  H+  H381  1  0.91265553  0.83364009  0.27202441  1
  H+  H382  1  0.07224456  0.15807263  0.09796629  1
  H+  H383  1  0.11105019  0.13292956  0.68080018  1
  O2-  O384  1  0.07135515  0.15406415  0.14283537  1
  O2-  O385  1  0.06790508  0.16321878  0.46893699  1
  O2-  O386  1  0.08815084  0.18432423  0.80875890  1
  O2-  O387  1  0.07330831  0.40716976  0.12179270  1
  O2-  O388  1  0.09107121  0.40489491  0.49013189  1
  O2-  O389  1  0.08722456  0.42419173  0.80717278  1
  O2-  O390  1  0.07750336  0.67112854  0.13514965  1
  O2-  O391  1  0.08605401  0.67696657  0.49050067  1
  O2-  O392  1  0.09487527  0.68593997  0.82067418  1
  O2-  O393  1  0.07028118  0.91395951  0.14021652  1
  O2-  O394  1  0.07580446  0.90963086  0.47815233  1
  O2-  O395  1  0.08433055  0.93056426  0.79783159  1
  O2-  O396  1  0.32556887  0.16741202  0.14987436  1
  O2-  O397  1  0.32164072  0.15881332  0.46878242  1
  O2-  O398  1  0.35010926  0.16735860  0.81043178  1
  O2-  O399  1  0.38187204  0.44356591  0.12855494  1
  O2-  O400  1  0.34808844  0.42178494  0.48201024  1
  O2-  O401  1  0.32830859  0.41616449  0.81413448  1
  O2-  O402  1  0.32287841  0.66930420  0.13487707  1
  O2-  O403  1  0.32574630  0.67315613  0.48511130  1
  O2-  O404  1  0.33144848  0.66668685  0.80447531  1
  O2-  O405  1  0.31920999  0.91816588  0.14840390  1
  O2-  O406  1  0.33114298  0.91811717  0.48943853  1
  O2-  O407  1  0.34041200  0.92951341  0.81554489  1
  O2-  O408  1  0.59563613  0.17484002  0.14566521  1
  O2-  O409  1  0.59934263  0.17600017  0.48002997  1
  O2-  O410  1  0.59439194  0.16391324  0.83982689  1
  O2-  O411  1  0.56726837  0.39835461  0.14347297  1
  O2-  O412  1  0.58688961  0.41062202  0.48953317  1
  O2-  O413  1  0.59486722  0.40185032  0.80111352  1
  O2-  O414  1  0.55027390  0.67230764  0.13339591  1
  O2-  O415  1  0.60526333  0.67397638  0.49115080  1
  O2-  O416  1  0.57444570  0.65438456  0.81236251  1
  O2-  O417  1  0.55571212  0.90550197  0.13210346  1
  O2-  O418  1  0.57473547  0.91417455  0.53885522  1
  O2-  O419  1  0.58617299  0.91101753  0.81193757  1
  O2-  O420  1  0.80953812  0.15672369  0.14967693  1
  O2-  O421  1  0.83248859  0.15629194  0.47948890  1
  O2-  O422  1  0.82903918  0.16080350  0.81290344  1
  O2-  O423  1  0.82608434  0.41997641  0.15482826  1
  O2-  O424  1  0.83303555  0.41645519  0.48583972  1
  O2-  O425  1  0.83368061  0.41614017  0.80430552  1
  O2-  O426  1  0.85096246  0.67432046  0.14047685  1
  O2-  O427  1  0.83563666  0.67005932  0.48805093  1
  O2-  O428  1  0.84171061  0.68149737  0.81071174  1
  O2-  O429  1  0.82369936  0.90727643  0.14020257  1
  O2-  O430  1  0.83708508  0.90812451  0.47824319  1
  O2-  O431  1  0.83701020  0.92410438  0.85143427  1
  O2-  O432  1  0.15767009  0.08239924  0.18739019  1
  O2-  O433  1  0.15943765  0.07335321  0.52548100  1
  O2-  O434  1  0.20082604  0.05299647  0.86648672  1
  O2-  O435  1  0.21702111  0.40320618  0.19092976  1
  O2-  O436  1  0.18325586  0.32659945  0.52475496  1
  O2-  O437  1  0.16894785  0.33563995  0.84797251  1
  O2-  O438  1  0.14831143  0.57569689  0.15640922  1
  O2-  O439  1  0.16685709  0.59018084  0.51057915  1
  O2-  O440  1  0.16593603  0.59126301  0.85080334  1
  O2-  O441  1  0.15514164  0.83357816  0.18481556  1
  O2-  O442  1  0.16369108  0.84245180  0.53013564  1
  O2-  O443  1  0.17437457  0.85295856  0.86133470  1
  O2-  O444  1  0.41567355  0.08066888  0.18617009  1
  O2-  O445  1  0.44215947  0.13079487  0.51990616  1
  O2-  O446  1  0.42068643  0.08547220  0.86245874  1
  O2-  O447  1  0.40370931  0.33012796  0.18584312  1
  O2-  O448  1  0.43942600  0.37015351  0.54798675  1
  O2-  O449  1  0.45276269  0.39008251  0.86403400  1
  O2-  O450  1  0.39258223  0.57777716  0.18247221  1
  O2-  O451  1  0.41883555  0.59784280  0.49300073  1
  O2-  O452  1  0.40895545  0.58342439  0.85038571  1
  O2-  O453  1  0.39629164  0.82937199  0.18274796  1
  O2-  O454  1  0.40590852  0.83450465  0.53191966  1
  O2-  O455  1  0.41147947  0.83846041  0.83999030  1
  O2-  O456  1  0.71771311  0.12055969  0.16450283  1
  O2-  O457  1  0.66982075  0.09780262  0.52199135  1
  O2-  O458  1  0.66897852  0.07498282  0.86505094  1
  O2-  O459  1  0.66344575  0.33548533  0.19192150  1
  O2-  O460  1  0.67038042  0.33176039  0.52241197  1
  O2-  O461  1  0.67784552  0.33979105  0.85902549  1
  O2-  O462  1  0.59020375  0.55558714  0.18773096  1
  O2-  O463  1  0.67121263  0.58039619  0.52972996  1
  O2-  O464  1  0.60490432  0.53702536  0.86867072  1
  O2-  O465  1  0.65427858  0.83178456  0.17435663  1
  O2-  O466  1  0.67281060  0.83498987  0.54041010  1
  O2-  O467  1  0.65964333  0.82136312  0.85230678  1
  O2-  O468  1  0.89693546  0.06866001  0.18658180  1
  O2-  O469  1  0.90839633  0.06067748  0.52471276  1
  O2-  O470  1  0.92944307  0.09774040  0.84784023  1
  O2-  O471  1  0.90739058  0.32625573  0.17157604  1
  O2-  O472  1  0.91269745  0.32502765  0.51959430  1
  O2-  O473  1  0.91656362  0.33082588  0.84109525  1
  O2-  O474  1  0.92041526  0.58737980  0.19134510  1
  O2-  O475  1  0.91888727  0.58656725  0.52446626  1
  O2-  O476  1  0.91804608  0.58061382  0.84633933  1
  O2-  O477  1  0.91292023  0.83667994  0.19142062  1
  O2-  O478  1  0.91330696  0.83644879  0.51201476  1
  O2-  O479  1  0.92441143  0.84048286  0.84564548  1
  O2-  O480  1  0.16507940  0.07575382  0.30895693  1
  O2-  O481  1  0.15073856  0.06917309  0.65853207  1
  O2-  O482  1  0.16027027  0.07380357  0.98229260  1
  O2-  O483  1  0.16447525  0.31211890  0.30997281  1
  O2-  O484  1  0.16775215  0.32494285  0.65039216  1
  O2-  O485  1  0.17280752  0.33251253  0.97180958  1
  O2-  O486  1  0.19303960  0.60752370  0.33028219  1
  O2-  O487  1  0.16684254  0.57967197  0.63311965  1
  O2-  O488  1  0.17836460  0.59281329  0.97500447  1
  O2-  O489  1  0.14978715  0.82944222  0.30360250  1
  O2-  O490  1  0.17084237  0.82830217  0.65686058  1
  O2-  O491  1  0.19192317  0.83416113  0.98709971  1
  O2-  O492  1  0.45097010  0.10614075  0.37252262  1
  O2-  O493  1  0.40092125  0.07611316  0.64661491  1
  O2-  O494  1  0.41098917  0.08614613  0.98649144  1
  O2-  O495  1  0.40895933  0.32819930  0.31153611  1
  O2-  O496  1  0.48322837  0.36244798  0.68326377  1
  O2-  O497  1  0.41083193  0.32597791  0.98224760  1
  O2-  O498  1  0.39801438  0.57040275  0.30848144  1
  O2-  O499  1  0.41997821  0.56845047  0.65042453  1
  O2-  O500  1  0.41171790  0.57644646  0.97201593  1
  O2-  O501  1  0.40968680  0.84287615  0.29953600  1
  O2-  O502  1  0.41990938  0.83467695  0.65509796  1
  O2-  O503  1  0.50522179  0.83828783  0.98931139  1
  O2-  O504  1  0.68408350  0.08771124  0.28791149  1
  O2-  O505  1  0.66780607  0.07870193  0.64185864  1
  O2-  O506  1  0.63511395  0.05989983  0.98672626  1
  O2-  O507  1  0.66039602  0.33163127  0.31465223  1
  O2-  O508  1  0.67723311  0.32393912  0.63984688  1
  O2-  O509  1  0.67046060  0.33544203  0.98008018  1
  O2-  O510  1  0.67325400  0.57221393  0.33111309  1
  O2-  O511  1  0.65786510  0.56492143  0.64769426  1
  O2-  O512  1  0.66618260  0.57449353  0.98341135  1
  O2-  O513  1  0.65899852  0.81717888  0.30260392  1
  O2-  O514  1  0.67516776  0.83382168  0.66491547  1
  O2-  O515  1  0.65349244  0.82296951  0.97334952  1
  O2-  O516  1  0.90939166  0.06213714  0.31107467  1
  O2-  O517  1  0.91954913  0.08120907  0.64387758  1
  O2-  O518  1  0.91270544  0.07540571  0.97080687  1
  O2-  O519  1  0.93836210  0.30810370  0.29366679  1
  O2-  O520  1  0.91664208  0.32704679  0.64653820  1
  O2-  O521  1  0.91708766  0.32873696  0.96544979  1
  O2-  O522  1  0.92444838  0.59444530  0.31828468  1
  O2-  O523  1  0.90614054  0.56697400  0.64694191  1
  O2-  O524  1  0.91626345  0.57923471  0.97249713  1
  O2-  O525  1  0.91572248  0.83515325  0.31743150  1
  O2-  O526  1  0.90178343  0.81058457  0.64782804  1
  O2-  O527  1  0.91822552  0.83664385  0.97883903  1
  O2-  O528  1  0.08034874  0.16649153  0.01320355  1
  O2-  O529  1  0.07603233  0.14752497  0.35106156  1
  O2-  O530  1  0.08374343  0.16735166  0.69418388  1
  O2-  O531  1  0.09225168  0.42084931  0.00258544  1
  O2-  O532  1  0.07464781  0.44268357  0.36526072  1
  O2-  O533  1  0.08831662  0.41576842  0.68151013  1
  O2-  O534  1  0.08322631  0.66308747  0.01316775  1
  O2-  O535  1  0.09020764  0.68165393  0.35823040  1
  O2-  O536  1  0.07215343  0.63268857  0.68953721  1
  O2-  O537  1  0.06839216  0.92196373  0.02384377  1
  O2-  O538  1  0.08135750  0.90811308  0.35403145  1
  O2-  O539  1  0.08348385  0.97939458  0.66993228  1
  O2-  O540  1  0.31990583  0.16221060  0.02448777  1
  O2-  O541  1  0.32970308  0.16172627  0.35137015  1
  O2-  O542  1  0.37500421  0.19700844  0.70270876  1
  O2-  O543  1  0.33351805  0.41842753  0.01924170  1
  O2-  O544  1  0.32443927  0.40536377  0.35713800  1
  O2-  O545  1  0.33898874  0.41064704  0.69716499  1
  O2-  O546  1  0.35188843  0.68194044  0.01139053  1
  O2-  O547  1  0.35345615  0.67709420  0.37349111  1
  O2-  O548  1  0.33486164  0.66221064  0.68174924  1
  O2-  O549  1  0.35602280  0.92392583  0.02679394  1
  O2-  O550  1  0.34597958  0.93841022  0.36360658  1
  O2-  O551  1  0.33391006  0.92269652  0.69247700  1
  O2-  O552  1  0.57823718  0.17095907  0.02281208  1
  O2-  O553  1  0.58192392  0.15918040  0.30186056  1
  O2-  O554  1  0.56863973  0.15957339  0.66742690  1
  O2-  O555  1  0.57886494  0.40886620  0.02338758  1
  O2-  O556  1  0.56915565  0.39894360  0.36549059  1
  O2-  O557  1  0.57707986  0.40199900  0.68657351  1
  O2-  O558  1  0.57817138  0.65702074  0.01247101  1
  O2-  O559  1  0.57703312  0.65151240  0.33767236  1
  O2-  O560  1  0.59069890  0.66371113  0.68929829  1
  O2-  O561  1  0.50641206  0.90813993  0.02534294  1
  O2-  O562  1  0.58019053  0.91368980  0.31692704  1
  O2-  O563  1  0.59142760  0.92059475  0.68839056  1
  O2-  O564  1  0.88608754  0.18994356  0.03786590  1
  O2-  O565  1  0.83049527  0.14724308  0.35441166  1
  O2-  O566  1  0.83189333  0.15948557  0.68886535  1
  O2-  O567  1  0.85731941  0.42883832  0.02707627  1
  O2-  O568  1  0.81494700  0.42715072  0.36260816  1
  O2-  O569  1  0.82263980  0.40550693  0.68430715  1
  O2-  O570  1  0.83689137  0.66731091  0.01133652  1
  O2-  O571  1  0.84311225  0.67436392  0.36563004  1
  O2-  O572  1  0.81910222  0.65300540  0.68803840  1
  O2-  O573  1  0.82190346  0.90874970  0.01009909  1
  O2-  O574  1  0.82269814  0.90495967  0.35946979  1
  O2-  O575  1  0.84885560  0.91194385  0.69809255  1
