# generated using pymatgen
data_H2O
_symmetry_space_group_name_H-M   'P 1'
_cell_length_a   17.99401994
_cell_length_b   17.99918622
_cell_length_c   22.00136651
_cell_angle_alpha   90.00889442
_cell_angle_beta   89.99532504
_cell_angle_gamma   120.01580609
_symmetry_Int_Tables_number   1
_chemical_formula_structural   H2O
_chemical_formula_sum   'H384 O192'
_cell_volume   6170.09934173
_cell_formula_units_Z   192
loop_
 _symmetry_equiv_pos_site_id
 _symmetry_equiv_pos_as_xyz
  1  'x, y, z'
loop_
 _atom_type_symbol
 _atom_type_oxidation_number
  H+  1.0
  O2-  -2.0
loop_
 _atom_site_type_symbol
 _atom_site_label
 _atom_site_symmetry_multiplicity
 _atom_site_fract_x
 _atom_site_fract_y
 _atom_site_fract_z
 _atom_site_occupancy
  H+  H0  1  0.00980965  0.87489370  0.83234678  1
  H+  H1  1  0.61839619  0.45276868  0.48819712  1
  H+  H2  1  0.12033233  1.01286677  0.84056116  1
  H+  H3  1  0.74593712  0.10751906  0.01403308  1
  H+  H4  1  0.36620979  0.21327282  -0.00109179  1
  H+  H5  1  0.17366710  0.51763640  -0.00980045  1
  H+  H6  1  0.62476531  0.34026679  0.50827223  1
  H+  H7  1  0.77860555  0.88599225  0.66352771  1
  H+  H8  1  0.85787621  0.47944550  0.66869184  1
  H+  H9  1  0.12073126  0.63573801  0.67944353  1
  H+  H10  1  0.98345975  0.62228362  1.00540510  1
  H+  H11  1  0.39175078  0.61930778  0.50955850  1
  H+  H12  1  0.94735503  0.96567517  0.77875835  1
  H+  H13  1  0.52942841  0.64598152  0.81566919  1
  H+  H14  1  0.11742783  0.67662384  -0.00551072  1
  H+  H15  1  0.14565817  0.76730181  0.69310547  1
  H+  H16  1  0.37646015  0.77601263  0.82923324  1
  H+  H17  1  0.38796263  0.54076264  0.66411189  1
  H+  H18  1  0.39098303  0.53623632  0.18393316  1
  H+  H19  1  0.53254492  0.64004873  0.66791309  1
  H+  H20  1  0.11200702  0.22376760  0.67203838  1
  H+  H21  1  0.11371591  1.00301536  -0.00967992  1
  H+  H22  1  0.22943823  0.11257596  0.33084362  1
  H+  H23  1  0.71016997  0.58280774  0.90099428  1
  H+  H24  1  0.37804428  0.74175113  0.65156349  1
  H+  H25  1  0.07715030  0.65356192  0.73846304  1
  H+  H26  1  0.86414161  0.37592298  1.00078203  1
  H+  H27  1  0.87911497  0.02123548  0.98366709  1
  H+  H28  1  0.35475704  0.21942875  0.49610397  1
  H+  H29  1  0.73989202  0.83073745  0.84133751  1
  H+  H30  1  0.36453707  0.65140715  0.81109568  1
  H+  H31  1  0.39605113  0.86888857  0.52277511  1
  H+  H32  1  0.37177930  0.48097487  0.34412941  1
  H+  H33  1  0.90739857  0.62198031  0.50227956  1
  H+  H34  1  0.65225249  0.09107819  0.34826040  1
  H+  H35  1  0.64654044  0.51895588  0.67655996  1
  H+  H36  1  0.02671115  0.14145157  0.82489694  1
  H+  H37  1  0.74318610  0.68816394  0.03281791  1
  H+  H38  1  0.37771458  0.86395157  0.97835834  1
  H+  H39  1  0.88221599  0.73434352  0.69585952  1
  H+  H40  1  0.59107103  0.36844093  0.83001860  1
  H+  H41  1  0.88231549  0.73991994  0.48646791  1
  H+  H42  1  0.16302277  0.59667694  0.99470251  1
  H+  H43  1  0.89784993  0.62098410  0.17241822  1
  H+  H44  1  0.60027570  0.83831659  0.81685255  1
  H+  H45  1  0.91794022  0.28649727  0.18832667  1
  H+  H46  1  0.80614112  0.21788799  0.15280505  1
  H+  H47  1  0.60997352  0.21084557  0.01498138  1
  H+  H48  1  0.53000705  0.88899861  0.50572891  1
  H+  H49  1  0.26359009  0.12440543  0.82681974  1
  H+  H50  1  0.38031698  0.10644491  0.83846916  1
  H+  H51  1  0.10734124  0.21243507  1.00181229  1
  H+  H52  1  0.99089729  0.40413121  0.32588548  1
  H+  H53  1  0.41483700  0.86790097  0.33110182  1
  H+  H54  1  0.62072779  0.63264924  0.34229343  1
  H+  H55  1  0.61254800  0.86803896  0.84378944  1
  H+  H56  1  0.63786494  0.02861297  0.65881151  1
  H+  H57  1  0.39481643  0.02333896  0.64818460  1
  H+  H58  1  0.34917810  0.20128504  0.16188901  1
  H+  H59  1  0.82787169  0.85352030  0.33145243  1
  H+  H60  1  0.83159491  0.19659670  0.00914629  1
  H+  H61  1  0.87536101  0.36290208  0.67726683  1
  H+  H62  1  0.85940489  0.40617674  0.16057199  1
  H+  H63  1  0.58307723  0.98616240  0.81299284  1
  H+  H64  1  0.96782909  0.85190413  0.16956772  1
  H+  H65  1  0.61703316  0.67473133  0.07318050  1
  H+  H66  1  0.85060991  0.72955010  0.84386616  1
  H+  H67  1  -0.01879871  0.62871825  0.32967929  1
  H+  H68  1  0.74580762  0.10425282  0.33129064  1
  H+  H69  1  0.63651353  0.11365868  0.84353647  1
  H+  H70  1  0.61100631  -0.04094036  1.01546368  1
  H+  H71  1  0.36066807  0.50096126  1.02485611  1
  H+  H72  1  0.63447251  0.86255916  0.50737280  1
  H+  H73  1  0.09995331  0.88065260  0.82953774  1
  H+  H74  1  0.83195777  0.66517639  0.78293970  1
  H+  H75  1  0.52151039  0.13475667  0.82805629  1
  H+  H76  1  0.10381431  0.62367926  0.32033613  1
  H+  H77  1  0.63388413  0.96931571  0.34764646  1
  H+  H78  1  0.51352576  0.37439881  0.34108492  1
  H+  H79  1  0.62017398  0.63499390  0.16635212  1
  H+  H80  1  0.34610522  0.44019923  0.87110893  1
  H+  H81  1  0.38998187  0.77799478  0.98103581  1
  H+  H82  1  0.10839204  0.33467591  0.50255337  1
  H+  H83  1  0.51837311  0.12608224  0.01101481  1
  H+  H84  1  0.23628203  0.38809574  0.32507380  1
  H+  H85  1  0.62965437  0.26434097  0.17809341  1
  H+  H86  1  0.11509342  0.22268092  0.16026267  1
  H+  H87  1  0.85253718  0.72404493  0.15584095  1
  H+  H88  1  0.48241511  0.85665439  0.17606938  1
  H+  H89  1  0.62322386  0.51158210  0.32875084  1
  H+  H90  1  0.84015361  0.91932440  0.72187294  1
  H+  H91  1  0.82076157  0.40326103  0.09572038  1
  H+  H92  1  0.72457585  0.60930128  0.17308880  1
  H+  H93  1  0.05140923  0.40879768  0.01525377  1
  H+  H94  1  0.66638625  0.73222285  0.84156520  1
  H+  H95  1  0.26235227  0.87391940  0.76723361  1
  H+  H96  1  0.64163361  0.37070406  0.99190512  1
  H+  H97  1  0.33660693  0.15230887  0.09938735  1
  H+  H98  1  0.20697508  0.35894914  0.50654772  1
  H+  H99  1  0.35120913  0.22156920  0.34030282  1
  H+  H100  1  0.03771695  0.00770581  0.22243877  1
  H+  H101  1  0.86045001  0.22608542  0.67537730  1
  H+  H102  1  0.14431221  0.35485849  0.98908967  1
  H+  H103  1  0.38967453  0.10994933  0.17406383  1
  H+  H104  1  0.71949876  0.10332158  0.84078285  1
  H+  H105  1  0.71374009  0.85334143  0.28369530  1
  H+  H106  1  0.77897095  0.12986626  0.48939660  1
  H+  H107  1  0.34997009  0.41532323  0.69480815  1
  H+  H108  1  0.44807280  0.09528778  0.33566146  1
  H+  H109  1  0.47351781  0.34653375  0.97682125  1
  H+  H110  1  0.26946327  0.88222753  0.99749010  1
  H+  H111  1  0.38006669  0.38909897  0.14755103  1
  H+  H112  1  0.98308588  0.61105227  0.66212214  1
  H+  H113  1  1.01673087  0.63353008  0.84080850  1
  H+  H114  1  0.11745421  0.38141279  0.82668890  1
  H+  H115  1  0.53527091  0.71157806  0.95646206  1
  H+  H116  1  0.86219412  0.74516456  0.31570401  1
  H+  H117  1  0.36098299  -0.03065761  0.99889907  1
  H+  H118  1  0.73645126  0.86261906  0.16892782  1
  H+  H119  1  0.38500534  0.10584270  0.65712290  1
  H+  H120  1  0.35310469  0.01064056  0.32420630  1
  H+  H121  1  0.21207365  0.86254311  0.85136444  1
  H+  H122  1  0.02047073  0.14012712  0.15692115  1
  H+  H123  1  0.85889421  -0.02384731  0.15583401  1
  H+  H124  1  0.38837359  0.54078008  0.83044105  1
  H+  H125  1  0.87838311  0.48858634  0.83524813  1
  H+  H126  1  0.18149611  0.87150128  1.04134850  1
  H+  H127  1  0.73951419  0.36891386  0.99116424  1
  H+  H128  1  0.30298068  0.64639773  1.00055828  1
  H+  H129  1  0.42697800  0.59267041  0.27512686  1
  H+  H130  1  0.08662858  0.18210309  0.35231506  1
  H+  H131  1  1.03282712  0.88529262  0.48318112  1
  H+  H132  1  0.23531452  0.85762086  0.16078708  1
  H+  H133  1  0.12944753  0.48635958  0.16304979  1
  H+  H134  1  0.89845400  0.61715285  0.66401903  1
  H+  H135  1  0.13320044  0.60776430  0.83754344  1
  H+  H136  1  0.34891945  0.21570353  0.82226427  1
  H+  H137  1  0.11425047  0.42030966  0.32826155  1
  H+  H138  1  0.62156358  0.63845278  0.67219994  1
  H+  H139  1  0.86131171  0.88727196  0.15498638  1
  H+  H140  1  0.91006273  0.06959960  0.56627542  1
  H+  H141  1  0.71505520  0.09749583  0.18098712  1
  H+  H142  1  0.71661868  0.35662182  0.83961032  1
  H+  H143  1  0.13525864  0.76283118  0.16240124  1
  H+  H144  1  0.89494869  0.86543773  0.50448866  1
  H+  H145  1  0.45609349  0.87675814  0.82594016  1
  H+  H146  1  0.94926949  0.29617008  0.98455748  1
  H+  H147  1  0.88347738  0.11498017  0.17379147  1
  H+  H148  1  0.83589852  0.14920382  0.39363849  1
  H+  H149  1  0.89340363  0.36125588  0.83752466  1
  H+  H150  1  0.87199620  0.47006153  1.00602281  1
  H+  H151  1  0.14711250  0.61202071  0.52236977  1
  H+  H152  1  0.33182135  0.89785410  0.09634221  1
  H+  H153  1  0.97759030  0.35332302  0.83822040  1
  H+  H154  1  0.64532198  0.58496885  0.95195518  1
  H+  H155  1  0.11467783  0.01048965  0.65674196  1
  H+  H156  1  -0.07977418  0.57682013  0.22584242  1
  H+  H157  1  0.75239845  0.88092554  0.99763044  1
  H+  H158  1  0.50141564  0.38962035  0.16925448  1
  H+  H159  1  0.37860738  0.64247032  0.35715394  1
  H+  H160  1  0.82326930  0.90238668  0.43344611  1
  H+  H161  1  0.09896879  0.09170068  0.18592820  1
  H+  H162  1  0.24105252  0.32176681  -0.00495376  1
  H+  H163  1  0.53142143  0.89245870  0.64646365  1
  H+  H164  1  0.72072354  0.62006032  0.50382563  1
  H+  H165  1  0.13863991  0.31531716  0.32271075  1
  H+  H166  1  0.53364284  0.64180984  0.16395798  1
  H+  H167  1  0.86563855  0.77475871  0.99405523  1
  H+  H168  1  0.05134738  0.37720661  0.41722227  1
  H+  H169  1  0.11390283  0.76335332  1.01247165  1
  H+  H170  1  0.91371868  0.07837844  0.22870754  1
  H+  H171  1  0.86862492  -0.00321693  0.31861146  1
  H+  H172  1  0.97549619  0.11308013  0.65974034  1
  H+  H173  1  0.60867341  0.38404531  0.33756437  1
  H+  H174  1  0.90419050  0.42055345  0.31476847  1
  H+  H175  1  0.64779832  1.03477498  0.51016992  1
  H+  H176  1  0.80939304  0.91137464  0.05882962  1
  H+  H177  1  0.40241043  0.67390687  1.00141911  1
  H+  H178  1  0.63216944  0.26340839  0.84312496  1
  H+  H179  1  0.61923570  0.08709951  0.99546655  1
  H+  H180  1  0.72718096  0.11683264  0.66481051  1
  H+  H181  1  0.63998552  0.72579566  0.01089093  1
  H+  H182  1  0.13445202  0.01340534  0.50094194  1
  H+  H183  1  0.61688149  0.38206766  0.67349137  1
  H+  H184  1  0.37268760  0.97289341  0.49982057  1
  H+  H185  1  0.38363517  0.48666314  0.00309643  1
  H+  H186  1  0.88695461  1.02362114  0.65788880  1
  H+  H187  1  0.97195430  0.09559701  0.50887597  1
  H+  H188  1  0.26096126  0.11548213  0.67042193  1
  H+  H189  1  0.42742458  0.58858482  0.56551927  1
  H+  H190  1  0.92889726  0.47298906  0.78506410  1
  H+  H191  1  0.61581886  0.38174868  0.15045758  1
  H+  H192  1  0.50058416  0.86315493  0.33165898  1
  H+  H193  1  0.60814009  0.73794748  0.49134336  1
  H+  H194  1  0.79147765  0.64681360  0.69348654  1
  H+  H195  1  0.38714651  0.10403512  0.99290588  1
  H+  H196  1  0.33067461  0.41706654  0.40118437  1
  H+  H197  1  0.60525385  0.11711258  0.17015359  1
  H+  H198  1  0.71676195  0.59578750  0.32652150  1
  H+  H199  1  0.10130843  0.96191858  0.16156260  1
  H+  H200  1  0.90598942  0.25545261  0.46343205  1
  H+  H201  1  0.62148872  0.96370579  0.17295734  1
  H+  H202  1  0.46567317  0.35195278  0.50607825  1
  H+  H203  1  0.35123373  0.38249039  0.49684909  1
  H+  H204  1  0.10435064  0.72123773  0.83785827  1
  H+  H205  1  0.28441414  0.88191032  0.66800363  1
  H+  H206  1  0.38139412  0.10821662  0.50353159  1
  H+  H207  1  0.14264509  0.61750694  0.16881927  1
  H+  H208  1  0.86256312  0.11813710  0.48700182  1
  H+  H209  1  0.71974107  0.35745274  0.65806499  1
  H+  H210  1  0.40976617  0.31562155  0.91680500  1
  H+  H211  1  0.23299479  0.60973658  0.52074403  1
  H+  H212  1  0.88570549  0.85929870  0.83860809  1
  H+  H213  1  1.00556317  0.88932881  1.00138237  1
  H+  H214  1  0.97404305  0.09986604  0.98782613  1
  H+  H215  1  0.85624439  0.21623553  0.82546710  1
  H+  H216  1  0.08758036  0.16587570  0.76638148  1
  H+  H217  1  0.86402552  0.13821100  0.67094310  1
  H+  H218  1  0.22109103  0.10375616  0.50696153  1
  H+  H219  1  0.38661626  0.32797688  0.66353514  1
  H+  H220  1  0.34930528  0.13038601  0.34089578  1
  H+  H221  1  0.61849116  0.87505850  1.02240686  1
  H+  H222  1  0.35964294  0.87286770  0.15910167  1
  H+  H223  1  0.07737163  0.78035746  0.32840778  1
  H+  H224  1  0.23435884  0.35642960  0.16446289  1
  H+  H225  1  0.63950604  0.86336015  0.17309781  1
  H+  H226  1  0.09776582  0.88775121  0.00398798  1
  H+  H227  1  0.37870879  0.35932383  0.33028384  1
  H+  H228  1  0.64260339  0.77786617  0.65938470  1
  H+  H229  1  0.48601315  0.11076753  0.18118606  1
  H+  H230  1  0.02687957  0.62479610  0.48645172  1
  H+  H231  1  0.76181638  0.63165557  -0.00794768  1
  H+  H232  1  0.28938043  0.89621655  0.37864790  1
  H+  H233  1  0.58297171  0.16653134  0.76965417  1
  H+  H234  1  0.13041938  0.39578636  0.16264748  1
  H+  H235  1  0.52908761  0.38173666  0.67266388  1
  H+  H236  1  0.86402461  0.12167842  0.33260434  1
  H+  H237  1  0.64384724  0.76682817  0.17426655  1
  H+  H238  1  0.12704396  0.10510440  0.99192585  1
  H+  H239  1  0.59213100  0.41680557  0.05240787  1
  H+  H240  1  0.38217552  0.73161497  0.35591290  1
  H+  H241  1  0.82690095  0.15734182  0.76644351  1
  H+  H242  1  0.59618624  0.15845800  0.32435141  1
  H+  H243  1  0.27283061  0.64503823  0.80886016  1
  H+  H244  1  0.10773034  0.21306422  0.49803147  1
  H+  H245  1  0.39613543  0.86998672  0.61723463  1
  H+  H246  1  0.22233466  0.89063789  0.32996288  1
  H+  H247  1  0.85789358  0.96325752  0.49264086  1
  H+  H248  1  0.37926589  1.01852561  0.83497277  1
  H+  H249  1  0.60847985  0.22991840  0.49822071  1
  H+  H250  1  0.14688058  0.76566540  0.48693641  1
  H+  H251  1  0.12565797  0.10624982  0.84012201  1
  H+  H252  1  0.89508338  -0.00480818  0.81842152  1
  H+  H253  1  0.63892172  0.72952114  0.34388206  1
  H+  H254  1  -0.00533436  0.37056219  0.68154111  1
  H+  H255  1  0.11447313  0.47038234  0.82398936  1
  H+  H256  1  0.36862313  0.72597192  0.51092849  1
  H+  H257  1  0.38592047  0.24216728  0.65866743  1
  H+  H258  1  0.88481165  0.10981559  0.83508368  1
  H+  H259  1  0.12697277  0.09491305  0.34251973  1
  H+  H260  1  0.93586043  0.84258791  0.56162685  1
  H+  H261  1  0.95014040  0.83295134  0.31928593  1
  H+  H262  1  0.72102936  0.85503792  0.50357406  1
  H+  H263  1  0.23754504  0.37110164  0.83971855  1
  H+  H264  1  0.35770462  0.47392191  0.49552630  1
  H+  H265  1  0.37028556  0.73011426  0.16365057  1
  H+  H266  1  0.57646844  0.14790539  0.10960933  1
  H+  H267  1  0.34068307  0.31953294  0.99336032  1
  H+  H268  1  0.73582908  0.39232819  0.31975834  1
  H+  H269  1  0.62299729  0.46767473  -0.01315738  1
  H+  H270  1  0.62934228  0.52198851  0.50556860  1
  H+  H271  1  0.49144337  0.61877755  0.33075365  1
  H+  H272  1  0.50958978  0.13224975  0.48926336  1
  H+  H273  1  0.61419982  0.25033810  0.33915141  1
  H+  H274  1  0.10400230  0.50374797  0.33976881  1
  H+  H275  1  0.63225399  0.26586306  0.66384003  1
  H+  H276  1  0.96235543  0.07608539  0.32916065  1
  H+  H277  1  0.23200179  0.61902063  0.17501736  1
  H+  H278  1  0.02874849  0.64222293  0.15952754  1
  H+  H279  1  0.21032191  0.37225919  0.66530843  1
  H+  H280  1  0.79122277  0.65174931  0.48583698  1
  H+  H281  1  -0.00127330  0.37795360  0.17625334  1
  H+  H282  1  0.13997457  0.86028833  0.16132368  1
  H+  H283  1  0.27489764  0.12859546  0.00254411  1
  H+  H284  1  0.32959796  0.86889931  0.81440113  1
  H+  H285  1  0.61518346  0.13670338  0.67733696  1
  H+  H286  1  0.88847383  0.60260591  1.01739980  1
  H+  H287  1  0.84489947  0.60700755  0.32763690  1
  H+  H288  1  0.40310834  0.63352683  0.65294569  1
  H+  H289  1  0.41487546  0.08276165  0.24232318  1
  H+  H290  1  0.63755101  0.88352078  0.35547277  1
  H+  H291  1  0.41785190  0.07667649  0.93291090  1
  H+  H292  1  0.09189199  0.36976900  0.67436695  1
  H+  H293  1  0.67209237  0.33224561  0.92994955  1
  H+  H294  1  0.55174901  0.93030988  0.75137533  1
  H+  H295  1  0.07753754  0.91525303  0.09676315  1
  H+  H296  1  0.90293021  0.82141568  0.22693180  1
  H+  H297  1  0.57206815  0.39641389  0.42890584  1
  H+  H298  1  0.35282369  0.69450746  0.71761325  1
  H+  H299  1  0.66160501  0.06628431  0.24315614  1
  H+  H300  1  0.68119062  0.10029257  0.56435314  1
  H+  H301  1  0.66177751  0.57205465  0.23162565  1
  H+  H302  1  0.52555217  0.13627771  0.67446169  1
  H+  H303  1  0.39541617  0.62561437  0.17581802  1
  H+  H304  1  0.07515580  0.89031259  0.38530019  1
  H+  H305  1  0.91782534  0.87820786  0.66807255  1
  H+  H306  1  0.40942911  0.31735787  0.56608448  1
  H+  H307  1  0.90058066  0.82707814  0.90437020  1
  H+  H308  1  0.48052349  0.44478647  0.21313202  1
  H+  H309  1  0.57830592  0.67202680  0.42891613  1
  H+  H310  1  0.31952906  0.14491053  0.73084900  1
  H+  H311  1  0.83360368  0.65258709  0.38829061  1
  H+  H312  1  0.15489861  0.07008392  0.59876616  1
  H+  H313  1  0.45787854  0.34910972  0.83046760  1
  H+  H314  1  0.08451432  0.15891011  0.06484206  1
  H+  H315  1  0.59572986  0.90729218  0.10958447  1
  H+  H316  1  0.30497877  0.34065843  0.05906134  1
  H+  H317  1  0.37058092  0.35618292  0.83515263  1
  H+  H318  1  0.67107191  0.34453122  0.26457840  1
  H+  H319  1  0.66807553  0.58092143  0.57072361  1
  H+  H320  1  0.86091822  0.48395251  0.37535749  1
  H+  H321  1  0.16561188  0.32560338  0.92292185  1
  H+  H322  1  0.66654810  0.83332113  0.59909233  1
  H+  H323  1  0.06890567  0.13426238  0.41534921  1
  H+  H324  1  0.65100660  0.06117943  0.93480981  1
  H+  H325  1  0.41266422  0.33240506  0.27172781  1
  H+  H326  1  0.28747369  0.88077993  0.49777608  1
  H+  H327  1  0.10904285  0.42327267  0.07269550  1
  H+  H328  1  0.16107583  0.81339788  0.54879414  1
  H+  H329  1  0.50894556  0.63929645  0.49309622  1
  H+  H330  1  0.65279233  0.31008765  0.56924984  1
  H+  H331  1  0.37010817  0.91511836  0.70398401  1
  H+  H332  1  0.34591602  0.67465641  0.10254043  1
  H+  H333  1  0.35996830  0.44992301  0.10542197  1
  H+  H334  1  0.23611560  0.62781149  0.66584231  1
  H+  H335  1  0.93027035  0.36872896  0.26162360  1
  H+  H336  1  0.15067642  0.07128487  0.92546433  1
  H+  H337  1  0.17842031  0.58147772  0.88884208  1
  H+  H338  1  0.80832394  0.15702165  0.10139941  1
  H+  H339  1  0.34473511  0.67272174  0.44785333  1
  H+  H340  1  0.43172627  0.61457825  0.88148149  1
  H+  H341  1  0.90678366  0.31084866  0.92643756  1
  H+  H342  1  0.91244095  0.35515258  0.61518627  1
  H+  H343  1  0.08717936  0.67366844  0.09775478  1
  H+  H344  1  0.62464813  0.47526148  0.14916912  1
  H+  H345  1  0.15074297  0.59611429  0.27091349  1
  H+  H346  1  0.15887419  0.83910004  0.91328601  1
  H+  H347  1  0.32344112  0.16057448  0.43651482  1
  H+  H348  1  0.90958913  0.57887831  0.91794965  1
  H+  H349  1  0.87041846  0.86519992  0.99042109  1
  H+  H350  1  0.12069100  0.88384268  0.47978628  1
  H+  H351  1  0.40498004  0.83266871  0.91026180  1
  H+  H352  1  0.58663212  0.91428720  0.44406215  1
  H+  H353  1  0.14463701  0.27634867  0.83561052  1
  H+  H354  1  0.18285989  0.34331998  0.22704242  1
  H+  H355  1  0.31909722  0.44084897  0.75198357  1
  H+  H356  1  0.14819005  0.06774489  0.27474255  1
  H+  H357  1  0.14726206  0.85679301  0.68839266  1
  H+  H358  1  0.57149746  0.40273983  0.76948089  1
  H+  H359  1  0.61503909  0.89018509  0.66656259  1
  H+  H360  1  0.87468387  0.60529237  0.85992208  1
  H+  H361  1  0.91969285  0.08258201  0.89444062  1
  H+  H362  1  0.11057209  0.12383242  0.50054897  1
  H+  H363  1  0.71691054  0.35399166  0.17020853  1
  H+  H364  1  0.15480579  0.33603777  0.60316426  1
  H+  H365  1  0.48806255  0.61753629  0.98114742  1
  H+  H366  1  0.11103332  0.13341837  0.67023349  1
  H+  H367  1  0.88340174  0.42065188  0.54249083  1
  H+  H368  1  0.93459804  0.37673679  0.51758840  1
  H+  H369  1  0.93338934  0.59201898  0.56261643  1
  H+  H370  1  0.17024422  0.58467114  0.61298364  1
  H+  H371  1  0.06911000  0.40070785  0.74142604  1
  H+  H372  1  0.41996948  0.08674008  0.56294870  1
  H+  H373  1  0.42712998  0.83150679  0.23632015  1
  H+  H374  1  0.59390090  0.67011360  0.76071563  1
  H+  H375  1  0.82342688  0.42681772  0.73042730  1
  H+  H376  1  0.62077174  0.84313646  0.93458143  1
  H+  H377  1  0.03560049  0.89581406  0.72818463  1
  H+  H378  1  0.69506595  0.57747941  0.61961494  1
  H+  H379  1  0.67245026  0.79480908  0.91723996  1
  H+  H380  1  0.81560383  0.66222551  0.09891789  1
  H+  H381  1  0.09499526  0.61505901  0.44245483  1
  H+  H382  1  0.04381433  0.66956635  0.38800530  1
  H+  H383  1  0.57449254  0.17342488  0.42868626  1
  O2-  O384  1  0.08181965  0.16228639  0.14512235  1
  O2-  O385  1  0.07828816  0.15207150  0.48405453  1
  O2-  O386  1  0.08831080  0.16709486  0.81193748  1
  O2-  O387  1  0.10001682  0.42546238  0.14670669  1
  O2-  O388  1  0.02961936  0.33102369  0.44840100  1
  O2-  O389  1  0.08269862  0.40840079  0.81179390  1
  O2-  O390  1  0.09084813  0.67256077  0.14318552  1
  O2-  O391  1  0.08555062  0.65610765  0.46530515  1
  O2-  O392  1  0.07536539  0.66091453  0.82311813  1
  O2-  O393  1  0.08227114  0.90624645  0.14094161  1
  O2-  O394  1  0.09129375  0.91445942  0.46463009  1
  O2-  O395  1  0.06752486  0.90794482  0.81314025  1
  O2-  O396  1  0.33579316  0.14608042  0.14459846  1
  O2-  O397  1  0.32548047  0.15829538  0.48156577  1
  O2-  O398  1  0.32268663  0.15362698  0.81016088  1
  O2-  O399  1  0.33402948  0.39199129  0.12250490  1
  O2-  O400  1  0.32346506  0.41408134  0.48029069  1
  O2-  O401  1  0.32917010  0.42257540  0.82898095  1
  O2-  O402  1  0.34126943  0.66950904  0.14744029  1
  O2-  O403  1  0.34105707  0.66702729  0.49403291  1
  O2-  O404  1  0.33380644  0.68162735  0.79625661  1
  O2-  O405  1  0.32450687  0.89593385  0.14098906  1
  O2-  O406  1  0.35014662  0.91129802  0.48976578  1
  O2-  O407  1  0.30004489  0.90121737  0.80280835  1
  O2-  O408  1  0.57618912  0.14902544  0.15521260  1
  O2-  O409  1  0.57185724  0.16664994  0.47391176  1
  O2-  O410  1  0.58293342  0.16790869  0.81552225  1
  O2-  O411  1  0.59117219  0.41587376  0.13181066  1
  O2-  O412  1  0.57282948  0.39500176  0.47574248  1
  O2-  O413  1  0.55752038  0.39304674  0.81333731  1
  O2-  O414  1  0.59531152  0.67160566  0.15169722  1
  O2-  O415  1  0.57301112  0.67489954  0.47493095  1
  O2-  O416  1  0.58946492  0.66350615  0.80558714  1
  O2-  O417  1  0.59635383  0.90337483  0.15622007  1
  O2-  O418  1  0.58963965  0.91768372  0.48920955  1
  O2-  O419  1  0.53204815  0.94256215  0.79025610  1
  O2-  O420  1  0.81242269  0.16725717  0.14828775  1
  O2-  O421  1  0.83629597  0.15004604  0.46841185  1
  O2-  O422  1  0.82513381  0.15532197  0.81209838  1
  O2-  O423  1  0.81060519  0.40430170  0.13973129  1
  O2-  O424  1  0.92578132  0.40465853  0.55407019  1
  O2-  O425  1  0.87395014  0.44259832  0.80647871  1
  O2-  O426  1  0.82287133  0.66228611  0.14377941  1
  O2-  O427  1  0.85115907  0.67880080  0.47057673  1
  O2-  O428  1  0.82751497  0.66426427  0.82987411  1
  O2-  O429  1  0.82731409  0.91507168  0.14170184  1
  O2-  O430  1  0.82724692  0.90163967  0.47827909  1
  O2-  O431  1  0.89007793  0.94264811  0.79624703  1
  O2-  O432  1  0.09785605  0.04345606  0.21038853  1
  O2-  O433  1  0.15977481  0.07126710  0.52064836  1
  O2-  O434  1  0.15152898  0.07237350  0.85826989  1
  O2-  O435  1  0.17625546  0.33255830  0.18220870  1
  O2-  O436  1  0.14904703  0.32161800  0.52416807  1
  O2-  O437  1  0.17048071  0.33556912  0.85258698  1
  O2-  O438  1  0.17055741  0.58688419  0.18736854  1
  O2-  O439  1  0.17318759  0.57878727  0.53654694  1
  O2-  O440  1  0.16815645  0.57932409  0.84458747  1
  O2-  O441  1  0.17023683  0.82848032  0.17490995  1
  O2-  O442  1  0.17324885  0.82400487  0.50542320  1
  O2-  O443  1  0.15288119  0.83233453  0.86881658  1
  O2-  O444  1  0.42282511  0.08466723  0.19605020  1
  O2-  O445  1  0.41712954  0.08277743  0.51714496  1
  O2-  O446  1  0.41133354  0.07643115  0.85289201  1
  O2-  O447  1  0.45240063  0.38847858  0.19337659  1
  O2-  O448  1  0.40572005  0.32328390  0.52126566  1
  O2-  O449  1  0.39665738  0.31928294  0.84675940  1
  O2-  O450  1  0.42782711  0.59717148  0.19245594  1
  O2-  O451  1  0.42596201  0.58918778  0.51969769  1
  O2-  O452  1  0.41884523  0.60425591  0.83753490  1
  O2-  O453  1  0.42242833  0.83003676  0.19094142  1
  O2-  O454  1  0.42684664  0.83621433  0.53819186  1
  O2-  O455  1  0.39873582  0.83488965  0.84778005  1
  O2-  O456  1  0.65539171  0.06273747  0.19772006  1
  O2-  O457  1  0.68495237  0.09620035  0.51971311  1
  O2-  O458  1  0.65960840  0.07630875  0.85707838  1
  O2-  O459  1  0.65696056  0.32612926  0.18826793  1
  O2-  O460  1  0.65077756  0.30650283  0.52331435  1
  O2-  O461  1  0.66213811  0.32411382  0.86117450  1
  O2-  O462  1  0.66226712  0.57500213  0.18616584  1
  O2-  O463  1  0.65762913  0.58410919  0.52337478  1
  O2-  O464  1  0.73413520  0.61155500  0.84109213  1
  O2-  O465  1  0.67521939  0.83059691  0.18748214  1
  O2-  O466  1  0.66021617  0.82518623  0.51846784  1
  O2-  O467  1  0.71396269  0.78039132  0.86759571  1
  O2-  O468  1  0.91431077  0.08396927  0.18330969  1
  O2-  O469  1  0.91032509  0.06341021  0.52095248  1
  O2-  O470  1  0.92176767  0.08548602  0.84813600  1
  O2-  O471  1  0.93868729  0.34785628  0.19326477  1
  O2-  O472  1  0.94345772  0.31991137  0.45884009  1
  O2-  O473  1  0.91618474  0.32411267  0.85182424  1
  O2-  O474  1  0.93374063  0.59551283  0.18257301  1
  O2-  O475  1  0.93609155  0.59120940  0.51761827  1
  O2-  O476  1  0.90873128  0.57846469  0.87256045  1
  O2-  O477  1  0.90725101  0.83027879  0.18148872  1
  O2-  O478  1  0.93060442  0.83925539  0.51696947  1
  O2-  O479  1  0.90244817  0.81983621  0.85871242  1
  O2-  O480  1  0.16422931  0.07537203  0.31975639  1
  O2-  O481  1  0.15416129  0.07060441  0.64435017  1
  O2-  O482  1  0.15276734  0.06988477  0.97356831  1
  O2-  O483  1  0.17986277  0.36905001  0.30336251  1
  O2-  O484  1  0.15170723  0.33522957  0.64875949  1
  O2-  O485  1  0.16439144  0.31794267  0.96982005  1
  O2-  O486  1  0.13727491  0.59398412  0.31467568  1
  O2-  O487  1  0.17373315  0.59433877  0.65812231  1
  O2-  O488  1  0.19820909  0.57728030  0.97392029  1
  O2-  O489  1  0.11034346  0.84316405  0.31714416  1
  O2-  O490  1  0.18372271  0.83205877  0.69713167  1
  O2-  O491  1  0.15623794  0.84734579  1.00173648  1
  O2-  O492  1  0.39396278  0.07400574  0.31310320  1
  O2-  O493  1  0.42311778  0.08589714  0.63908208  1
  O2-  O494  1  0.41854319  0.07468474  0.97843938  1
  O2-  O495  1  0.40625070  0.32524485  0.31625601  1
  O2-  O496  1  0.41890308  0.30406385  0.64456784  1
  O2-  O497  1  0.41304385  0.31127227  0.96361927  1
  O2-  O498  1  0.42947564  0.58601628  0.31965936  1
  O2-  O499  1  0.42702916  0.59483985  0.64262381  1
  O2-  O500  1  0.47746422  0.65928180  0.96023464  1
  O2-  O501  1  0.44088123  0.83597842  0.31450238  1
  O2-  O502  1  0.42879648  0.84037387  0.60528296  1
  O2-  O503  1  0.40978908  0.83545980  0.95985738  1
  O2-  O504  1  0.67838763  0.06893289  0.32013178  1
  O2-  O505  1  0.66720916  0.09119360  0.64899767  1
  O2-  O506  1  0.64700428  0.05504072  0.98030460  1
  O2-  O507  1  0.67466458  0.35133149  0.31008926  1
  O2-  O508  1  0.65869277  0.32438098  0.64418018  1
  O2-  O509  1  0.67602231  0.33870078  0.97712730  1
  O2-  O510  1  0.65532789  0.57120134  0.31228750  1
  O2-  O511  1  0.68259546  0.58141544  0.66297278  1
  O2-  O512  1  0.68386015  0.56163438  0.94727781  1
  O2-  O513  1  0.71175702  0.84393557  0.32819035  1
  O2-  O514  1  0.67167225  0.83843517  0.64415772  1
  O2-  O515  1  0.64043726  0.80722888  0.95428313  1
  O2-  O516  1  0.90888280  0.05681430  0.30559260  1
  O2-  O517  1  0.91542935  0.08475959  0.64396324  1
  O2-  O518  1  0.91869512  0.07851547  0.96682333  1
  O2-  O519  1  0.92859096  0.38081528  0.30701112  1
  O2-  O520  1  0.90752312  0.33582177  0.65966373  1
  O2-  O521  1  0.90384108  0.30766292  0.97241515  1
  O2-  O522  1  0.88942724  0.55882192  0.30318352  1
  O2-  O523  1  0.92282119  0.58379399  0.64578657  1
  O2-  O524  1  0.92063461  0.58031509  0.99580827  1
  O2-  O525  1  0.89009219  0.80735647  0.30365461  1
  O2-  O526  1  0.94774493  0.84428205  0.66120749  1
  O2-  O527  1  0.90213827  0.83502635  0.97796910  1
  O2-  O528  1  0.08459262  0.15408175  0.01945567  1
  O2-  O529  1  0.06526565  0.12462221  0.36866367  1
  O2-  O530  1  0.08218427  0.16391999  0.68757533  1
  O2-  O531  1  0.10877466  0.42017479  0.02639603  1
  O2-  O532  1  0.07744531  0.43873669  0.34901067  1
  O2-  O533  1  0.05952093  0.39621495  0.69517678  1
  O2-  O534  1  0.08350644  0.69155385  0.02094953  1
  O2-  O535  1  0.04162074  0.67437256  0.34349500  1
  O2-  O536  1  0.08413338  0.66221294  0.69390800  1
  O2-  O537  1  0.06762251  0.92272908  0.01457710  1
  O2-  O538  1  0.05862439  0.87928145  0.34137842  1
  O2-  O539  1  0.03793879  0.90021736  0.68285295  1
  O2-  O540  1  0.33341244  0.15616352  0.01952720  1
  O2-  O541  1  0.31851082  0.16071661  0.35547098  1
  O2-  O542  1  0.32161808  0.14394732  0.68536933  1
  O2-  O543  1  0.28772277  0.31194777  0.01766226  1
  O2-  O544  1  0.33421115  0.41896435  0.35555770  1
  O2-  O545  1  0.31571948  0.44109886  0.70649247  1
  O2-  O546  1  0.36001621  0.68952056  0.01738208  1
  O2-  O547  1  0.35334035  0.67482044  0.37560856  1
  O2-  O548  1  0.35293498  0.68592822  0.67282933  1
  O2-  O549  1  0.33081415  0.90666096  0.00998206  1
  O2-  O550  1  0.28486407  0.91249436  0.33702167  1
  O2-  O551  1  0.34868765  0.91393025  0.66294667  1
  O2-  O552  1  0.57691391  0.15180238  0.03017231  1
  O2-  O553  1  0.57638778  0.18835003  0.35101826  1
  O2-  O554  1  0.58403676  0.16688111  0.69287797  1
  O2-  O555  1  0.59221656  0.40932308  0.00703991  1
  O2-  O556  1  0.57334621  0.40667756  0.35726248  1
  O2-  O557  1  0.58846582  0.41479293  0.68841104  1
  O2-  O558  1  0.63749146  0.67606081  0.03097503  1
  O2-  O559  1  0.59751698  0.67041029  0.35734568  1
  O2-  O560  1  0.59377918  0.67262550  0.68148892  1
  O2-  O561  1  0.58940292  0.90417213  0.03887125  1
  O2-  O562  1  0.60115354  0.90903534  0.36410877  1
  O2-  O563  1  0.58112734  0.91941448  0.67435575  1
  O2-  O564  1  0.80350453  0.14347817  0.03316874  1
  O2-  O565  1  0.83407124  0.15140986  0.34787570  1
  O2-  O566  1  0.83239468  0.16534900  0.68927518  1
  O2-  O567  1  0.83409149  0.40705731  0.01374357  1
  O2-  O568  1  0.85258808  0.47071448  0.33166095  1
  O2-  O569  1  0.82197642  0.41989830  0.68585996  1
  O2-  O570  1  0.79240053  0.67922876  0.02310824  1
  O2-  O571  1  0.81912706  0.64341052  0.34456169  1
  O2-  O572  1  0.85019277  0.67434759  0.71112286  1
  O2-  O573  1  0.81144888  0.91134804  0.01370471  1
  O2-  O574  1  0.80344170  0.89003340  0.34687058  1
  O2-  O575  1  0.84039534  0.91636330  0.67690763  1
