# generated using pymatgen
data_H2O
_symmetry_space_group_name_H-M   'P 1'
_cell_length_a   17.99129664
_cell_length_b   17.98990472
_cell_length_c   22.00473660
_cell_angle_alpha   90.01406748
_cell_angle_beta   89.98452670
_cell_angle_gamma   120.00513668
_symmetry_Int_Tables_number   1
_chemical_formula_structural   H2O
_chemical_formula_sum   'H384 O192'
_cell_volume   6167.59194431
_cell_formula_units_Z   192
loop_
 _symmetry_equiv_pos_site_id
 _symmetry_equiv_pos_as_xyz
  1  'x, y, z'
loop_
 _atom_type_symbol
 _atom_type_oxidation_number
  H+  1.0
  O2-  -2.0
loop_
 _atom_site_type_symbol
 _atom_site_label
 _atom_site_symmetry_multiplicity
 _atom_site_fract_x
 _atom_site_fract_y
 _atom_site_fract_z
 _atom_site_occupancy
  H+  H0  1  0.61129961  0.88689576  0.00196333  1
  H+  H1  1  0.02618226  0.15153121  0.67252862  1
  H+  H2  1  0.87676650  0.24246153  0.82523092  1
  H+  H3  1  0.39255570  0.52734240  0.99480288  1
  H+  H4  1  0.58386422  0.15177616  0.41007188  1
  H+  H5  1  0.12882840  0.01389314  0.16332073  1
  H+  H6  1  0.88060269  0.61787965  0.99527160  1
  H+  H7  1  0.82748372  0.93149818  0.52012893  1
  H+  H8  1  0.32032854  0.90384478  0.74269601  1
  H+  H9  1  0.89566812  0.49668426  0.34371345  1
  H+  H10  1  0.85936494  0.23247883  0.49829845  1
  H+  H11  1  0.60271663  0.71990186  0.33588616  1
  H+  H12  1  0.88940962  0.12933884  0.65778255  1
  H+  H13  1  0.59811384  0.88238677  0.49800958  1
  H+  H14  1  0.78728056  0.97897730  0.48524824  1
  H+  H15  1  0.30683253  0.39454490  0.40561272  1
  H+  H16  1  0.52072510  0.12265308  0.46828373  1
  H+  H17  1  0.60023017  0.62577856  0.48559565  1
  H+  H18  1  0.98211911  0.36758041  0.66061821  1
  H+  H19  1  0.98180682  0.87253312  0.82888707  1
  H+  H20  1  0.01866426  0.60668055  0.68134169  1
  H+  H21  1  -0.01920015  0.85867652  0.01965821  1
  H+  H22  1  0.15623140  0.12054593  0.32099177  1
  H+  H23  1  0.91385002  0.33603197  0.89728663  1
  H+  H24  1  0.92973678  0.06121015  0.49967282  1
  H+  H25  1  0.38185367  0.10419316  0.62794941  1
  H+  H26  1  0.66699380  0.33806380  0.89346228  1
  H+  H27  1  0.83574644  0.15399813  -0.04719523  1
  H+  H28  1  0.62641076  0.26401895  0.66909554  1
  H+  H29  1  -0.04811950  0.35337342  0.17680844  1
  H+  H30  1  0.26782453  0.88303012  0.67620650  1
  H+  H31  1  0.18337900  0.39028038  0.49511536  1
  H+  H32  1  0.35644121  0.96784927  0.82969396  1
  H+  H33  1  0.61615012  0.88690378  0.33884108  1
  H+  H34  1  0.87013524  0.64749638  0.83082164  1
  H+  H35  1  0.15044737  0.84617743  0.21021707  1
  H+  H36  1  0.53607252  0.37857007  0.15558119  1
  H+  H37  1  0.87804714  0.91696533  0.67487674  1
  H+  H38  1  0.72927335  0.86739177  0.83857694  1
  H+  H39  1  0.49179425  0.13011653  0.16621895  1
  H+  H40  1  0.34289528  0.46069409  0.35087659  1
  H+  H41  1  0.14910109  0.87117129  0.49926490  1
  H+  H42  1  -0.03432294  0.59787385  0.16896031  1
  H+  H43  1  0.52049201  0.38831182  0.33749078  1
  H+  H44  1  0.13722590  0.52301058  0.99626244  1
  H+  H45  1  0.12978444  0.87027379  0.14536582  1
  H+  H46  1  0.36418782  0.72277295  1.00098288  1
  H+  H47  1  0.13574954  0.61395819  0.17154672  1
  H+  H48  1  0.51761534  0.88058078  0.00177544  1
  H+  H49  1  0.97703423  0.61891264  0.84570127  1
  H+  H50  1  0.02228429  0.62480922  0.34065289  1
  H+  H51  1  0.32300009  0.93196676  0.30250865  1
  H+  H52  1  0.35643863  0.22447663  0.49006058  1
  H+  H53  1  0.14303684  0.27978905  0.65299204  1
  H+  H54  1  0.12339257  0.25168977  0.32872475  1
  H+  H55  1  0.37217145  0.60538928  0.34091109  1
  H+  H56  1  0.11696027  0.09578388  0.17167944  1
  H+  H57  1  0.11091244  0.63407974  0.00558393  1
  H+  H58  1  0.75985704  0.37397886  0.47419703  1
  H+  H59  1  0.89589156  0.01758417  0.99375386  1
  H+  H60  1  0.60655914  0.65766071  0.67828118  1
  H+  H61  1  0.85943706  0.81189552  0.64075260  1
  H+  H62  1  0.39252772  0.10875020  0.84703286  1
  H+  H63  1  0.67204439  0.83553876  0.93270943  1
  H+  H64  1  0.61792316  0.48094372  0.00396438  1
  H+  H65  1  0.81819245  0.63137604  0.67485276  1
  H+  H66  1  0.86854668  0.35516314  0.50677454  1
  H+  H67  1  0.00230681  0.62971171  0.50428472  1
  H+  H68  1  0.61687435  0.25197006  0.47314694  1
  H+  H69  1  0.38669906  0.78413674  0.51182936  1
  H+  H70  1  0.86613716  0.48420662  0.83038433  1
  H+  H71  1  0.84708890  0.96292290  0.15944578  1
  H+  H72  1  0.41435418  0.85456700  0.60651511  1
  H+  H73  1  0.61001909  0.47663941  0.33733600  1
  H+  H74  1  0.36987590  0.65439306  0.66354378  1
  H+  H75  1  0.88464239  0.77565165  0.83090763  1
  H+  H76  1  0.86994857  0.71210266  0.49605994  1
  H+  H77  1  0.80866877  0.39111996  0.08206071  1
  H+  H78  1  0.32753916  0.66496302  0.09248085  1
  H+  H79  1  0.56917165  0.90810238  0.90842767  1
  H+  H80  1  0.98041260  0.12194195  0.83994981  1
  H+  H81  1  0.41016400  0.37052619  0.17226740  1
  H+  H82  1  0.72816674  0.60960360  0.17047617  1
  H+  H83  1  0.03609575  0.13399047  0.00442147  1
  H+  H84  1  0.77916981  0.88747923  1.00318827  1
  H+  H85  1  0.87969422  0.14748427  0.82641249  1
  H+  H86  1  0.65350702  0.02886962  0.31763892  1
  H+  H87  1  0.27036749  0.88475480  0.49065679  1
  H+  H88  1  0.47117844  0.10685769  0.63266690  1
  H+  H89  1  0.85555361  0.97514786  0.33296750  1
  H+  H90  1  0.73074058  0.61838916  0.83770414  1
  H+  H91  1  0.12827278  0.86545086  0.84538564  1
  H+  H92  1  0.36333140  0.64657586  0.49795826  1
  H+  H93  1  0.03157382  0.38775593  0.34401415  1
  H+  H94  1  0.67050861  0.59271056  -0.06648357  1
  H+  H95  1  0.75627789  0.12090133  0.23303358  1
  H+  H96  1  0.46962353  0.61706651  0.66454009  1
  H+  H97  1  0.38569705  0.27194304  0.17707830  1
  H+  H98  1  0.90829818  0.41396403  0.35089197  1
  H+  H99  1  0.40907078  0.12525443  -0.01206257  1
  H+  H100  1  0.89969213  0.10762158  0.99866417  1
  H+  H101  1  0.51356381  0.62942192  0.33922704  1
  H+  H102  1  0.27452954  0.63242064  0.00137110  1
  H+  H103  1  0.63568248  0.35909045  0.31580628  1
  H+  H104  1  0.45878367  0.35997961  0.50296979  1
  H+  H105  1  0.47461287  0.87437580  0.51021182  1
  H+  H106  1  0.87906956  0.85916441  0.31844023  1
  H+  H107  1  0.13804330  0.78363885  0.65191829  1
  H+  H108  1  0.61919311  0.13135423  0.32142084  1
  H+  H109  1  0.08894502  0.78581758  0.36071765  1
  H+  H110  1  0.61602854  0.64107619  0.82955811  1
  H+  H111  1  0.89743303  0.61558161  0.50450106  1
  H+  H112  1  0.86767640  0.23871258  0.67517513  1
  H+  H113  1  0.48329262  0.85424833  0.32446382  1
  H+  H114  1  0.88733750  0.77565499  0.32313924  1
  H+  H115  1  0.09613490  0.47322565  0.16041647  1
  H+  H116  1  0.13714648  0.86164730  1.01015557  1
  H+  H117  1  0.38102310  0.85061203  0.99409337  1
  H+  H118  1  0.52106166  0.38908599  0.83520130  1
  H+  H119  1  0.34597047  0.21348294  0.65519631  1
  H+  H120  1  0.68659331  0.14546352  0.16789902  1
  H+  H121  1  0.26802711  0.63323439  0.15349995  1
  H+  H122  1  0.25980699  0.13200453  0.16722277  1
  H+  H123  1  0.13119522  0.77170791  -0.00219673  1
  H+  H124  1  0.52324885  0.87943220  0.15976286  1
  H+  H125  1  0.90465656  0.84141177  0.50669160  1
  H+  H126  1  0.26306810  0.85420380  0.26062919  1
  H+  H127  1  0.36479388  0.87730399  0.67586452  1
  H+  H128  1  0.51839895  0.63048814  0.00429781  1
  H+  H129  1  0.67062691  0.62477375  0.63598624  1
  H+  H130  1  0.34963629  0.70746338  0.82686235  1
  H+  H131  1  0.87666232  0.52752124  0.99629842  1
  H+  H132  1  0.08092751  0.65835374  0.43511726  1
  H+  H133  1  0.62824553  0.85120085  0.16741318  1
  H+  H134  1  0.36644903  0.35088598  0.66016619  1
  H+  H135  1  0.77870840  0.62315616  0.49282330  1
  H+  H136  1  0.05232763  0.06821658  0.37007659  1
  H+  H137  1  0.13990797  0.36603876  0.84029388  1
  H+  H138  1  0.77639668  0.14892808  0.67513610  1
  H+  H139  1  0.60979842  0.13365792  0.66264857  1
  H+  H140  1  0.07441751  0.19800180  0.16262618  1
  H+  H141  1  0.38372677  0.77380626  0.16842674  1
  H+  H142  1  0.14813218  0.51908707  0.32279737  1
  H+  H143  1  0.14120709  0.60574475  0.65859294  1
  H+  H144  1  0.39276809  0.37056658  0.99282530  1
  H+  H145  1  0.83202432  0.66376846  0.39581094  1
  H+  H146  1  0.56946336  0.44333923  0.66961763  1
  H+  H147  1  0.63877303  0.11160873  0.49722005  1
  H+  H148  1  0.61061586  0.75426812  0.50772747  1
  H+  H149  1  0.27897207  0.14017115  0.33346489  1
  H+  H150  1  0.18647144  0.34384589  0.59569034  1
  H+  H151  1  0.47847802  0.10551045  0.83345350  1
  H+  H152  1  0.24060329  0.11034002  0.01578520  1
  H+  H153  1  0.08199138  0.92643827  0.43950641  1
  H+  H154  1  0.27689089  0.63766132  0.34246162  1
  H+  H155  1  0.42140312  0.82114169  0.26647793  1
  H+  H156  1  0.46206360  0.85088801  0.84525289  1
  H+  H157  1  0.25945202  0.45889673  0.20571409  1
  H+  H158  1  0.11417484  0.37811519  0.33853866  1
  H+  H159  1  0.86644747  0.73058898  0.00903353  1
  H+  H160  1  0.87502797  0.15184253  0.49851926  1
  H+  H161  1  0.46223882  0.60086775  0.50480718  1
  H+  H162  1  0.72948929  0.62363078  0.99434056  1
  H+  H163  1  0.33865690  0.67776005  0.43724237  1
  H+  H164  1  0.21006551  0.10352779  0.65392174  1
  H+  H165  1  0.17044709  0.32910161  0.17236838  1
  H+  H166  1  0.85725699  0.33749695  0.18663490  1
  H+  H167  1  0.88430365  0.87111317  0.83020265  1
  H+  H168  1  0.12352204  -0.02325117  1.04699110  1
  H+  H169  1  0.11876284  0.63969432  0.49506974  1
  H+  H170  1  0.63936795  0.60827239  0.16742181  1
  H+  H171  1  0.77633044  0.39518889  0.82645841  1
  H+  H172  1  0.36363571  0.47455609  0.67600466  1
  H+  H173  1  0.27275101  0.87330602  1.00644226  1
  H+  H174  1  0.39363215  0.61820335  0.99534068  1
  H+  H175  1  0.52335064  0.14202902  -0.00479827  1
  H+  H176  1  0.15860859  0.83903950  0.90670918  1
  H+  H177  1  0.61125029  0.97808519  0.49656511  1
  H+  H178  1  0.36774466  0.23910593  0.33939340  1
  H+  H179  1  0.10760152  0.72587528  0.15592508  1
  H+  H180  1  0.10219838  -0.01256160  0.34576369  1
  H+  H181  1  0.52848543  0.64613514  0.14469021  1
  H+  H182  1  0.64057801  0.52918848  0.84019451  1
  H+  H183  1  0.63242873  0.61031336  0.32312283  1
  H+  H184  1  0.86782327  -0.00103966  0.67109108  1
  H+  H185  1  0.92131853  0.08979954  0.90039727  1
  H+  H186  1  0.20165629  0.09937427  0.86274633  1
  H+  H187  1  0.63273150  1.02899605  0.00561599  1
  H+  H188  1  0.38483691  0.78290403  0.65994295  1
  H+  H189  1  0.89229659  0.73305683  0.66890908  1
  H+  H190  1  0.15289487  0.11119453  1.01576152  1
  H+  H191  1  0.60645750  0.74478377  0.68082375  1
  H+  H192  1  0.38462049  0.35760674  0.84145359  1
  H+  H193  1  1.03509785  0.88059265  0.50052706  1
  H+  H194  1  0.28086512  0.65202902  0.65749075  1
  H+  H195  1  0.26221074  0.88346350  0.83324489  1
  H+  H196  1  0.41710758  0.07878892  0.54222869  1
  H+  H197  1  0.10990399  0.14275502  0.67162729  1
  H+  H198  1  0.60705955  0.21301909  0.32194786  1
  H+  H199  1  0.36470712  0.98088292  0.48251115  1
  H+  H200  1  0.71907469  0.85458338  0.32159302  1
  H+  H201  1  0.86701035  -0.01456321  0.82935913  1
  H+  H202  1  0.38357253  0.10672206  0.48380025  1
  H+  H203  1  0.59109162  0.37361211  0.48375895  1
  H+  H204  1  0.10307603  0.89056951  0.67022456  1
  H+  H205  1  0.97932292  0.86185906  0.15972314  1
  H+  H206  1  0.61514667  0.90487858  0.67427495  1
  H+  H207  1  0.72698822  0.37113559  0.98984187  1
  H+  H208  1  0.37607732  0.35757002  0.32943847  1
  H+  H209  1  0.36652205  -0.02228025  0.15418753  1
  H+  H210  1  0.14638924  0.48498867  0.49018850  1
  H+  H211  1  0.09930924  0.97587613  0.82656524  1
  H+  H212  1  0.36632224  0.88736420  0.49527148  1
  H+  H213  1  0.62027595  0.73199528  0.14955669  1
  H+  H214  1  0.85123855  0.09331306  0.18210047  1
  H+  H215  1  0.89961558  0.46082529  0.06361959  1
  H+  H216  1  0.63213881  0.11124754  0.85748845  1
  H+  H217  1  0.86803724  0.51396783  0.18354969  1
  H+  H218  1  0.85851283  0.87957056  0.15636140  1
  H+  H219  1  0.27317276  0.38803379  0.67454380  1
  H+  H220  1  0.11915987  0.39026197  0.66747210  1
  H+  H221  1  0.37220185  0.84857298  0.83765301  1
  H+  H222  1  0.65756666  0.82315856  0.26337167  1
  H+  H223  1  0.88860487  0.62334837  0.32144355  1
  H+  H224  1  0.38699094  0.24384740  0.00751284  1
  H+  H225  1  0.37181565  0.72345559  0.33968958  1
  H+  H226  1  0.73764805  0.11907204  0.32994800  1
  H+  H227  1  0.35074307  0.61996796  0.83018268  1
  H+  H228  1  0.63814110  0.37033248  0.99059438  1
  H+  H229  1  0.14726170  0.78159946  0.49980775  1
  H+  H230  1  0.23175489  0.62489527  0.50346908  1
  H+  H231  1  0.72640856  0.87438716  0.65923772  1
  H+  H232  1  0.44821530  0.33891137  0.66219160  1
  H+  H233  1  0.64036315  0.77719946  -0.00800629  1
  H+  H234  1  0.63344815  1.02403098  0.86243229  1
  H+  H235  1  0.88576730  0.27599001  0.98924725  1
  H+  H236  1  0.36338855  0.22337646  0.85026146  1
  H+  H237  1  0.13517435  0.15272825  0.49579021  1
  H+  H238  1  0.77021757  0.63767625  0.33753089  1
  H+  H239  1  0.70563884  0.50171073  0.68220621  1
  H+  H240  1  0.00924306  0.87948401  0.66934896  1
  H+  H241  1  0.27756393  0.39190541  0.00470142  1
  H+  H242  1  0.62815372  0.58199588  0.63498699  1
  H+  H243  1  0.46112762  0.06793212  0.31658029  1
  H+  H244  1  0.38698513  0.86353068  0.17316441  1
  H+  H245  1  1.02153810  0.63503923  1.00642722  1
  H+  H246  1  0.38839161  0.63143165  0.15865158  1
  H+  H247  1  0.61932090  0.47042767  0.15390473  1
  H+  H248  1  0.13624666  0.61071314  0.84634933  1
  H+  H249  1  0.12270419  0.10851141  0.83924387  1
  H+  H250  1  0.27436612  0.43539670  0.22649154  1
  H+  H251  1  0.26898095  0.13356031  0.49014973  1
  H+  H252  1  0.91529331  0.62239689  0.66013028  1
  H+  H253  1  0.40831807  0.50690548  0.14984693  1
  H+  H254  1  1.01322612  0.15007960  0.50845533  1
  H+  H255  1  0.11302011  0.73230170  0.83704118  1
  H+  H256  1  0.47608324  0.60861561  0.84184005  1
  H+  H257  1  0.27274319  0.89256713  0.15272529  1
  H+  H258  1  0.63520233  0.36803962  0.83578901  1
  H+  H259  1  0.88547133  0.36403081  -0.00283576  1
  H+  H260  1  0.77895168  0.39049797  0.68163614  1
  H+  H261  1  0.13976528  0.36350474  0.99708319  1
  H+  H262  1  0.33302083  0.41108878  0.77023838  1
  H+  H263  1  0.15258555  0.25017436  0.48867306  1
  H+  H264  1  0.88526487  0.36620946  0.83731386  1
  H+  H265  1  0.62585099  0.51020115  0.49741938  1
  H+  H266  1  0.12146953  0.22575284  1.00958577  1
  H+  H267  1  0.62169122  0.14427499  1.00832919  1
  H+  H268  1  0.62299940  0.23858720  0.99925537  1
  H+  H269  1  1.02362590  0.38638337  1.00408894  1
  H+  H270  1  0.61947920  0.23637939  0.82246150  1
  H+  H271  1  0.13625593  0.59928236  0.32701891  1
  H+  H272  1  0.86304531  0.72313155  0.15586165  1
  H+  H273  1  0.64260390  1.03628137  0.65963673  1
  H+  H274  1  0.11309322  0.23150547  0.82819662  1
  H+  H275  1  0.71914283  0.85184614  0.16893927  1
  H+  H276  1  0.11724430  0.01952878  0.65852250  1
  H+  H277  1  0.02674293  0.38841459  0.82314336  1
  H+  H278  1  0.39872743  0.12119064  0.16876658  1
  H+  H279  1  0.84833302  0.42773217  0.43889563  1
  H+  H280  1  0.11458462  0.47729793  0.82630524  1
  H+  H281  1  0.08121663  0.66314083  0.09989853  1
  H+  H282  1  0.13775304  1.02415801  0.50592863  1
  H+  H283  1  0.96853869  0.10648926  0.32071659  1
  H+  H284  1  0.36441400  0.46960050  0.83016723  1
  H+  H285  1  0.72876262  0.11438202  0.50530981  1
  H+  H286  1  0.86556313  0.14139067  0.34537276  1
  H+  H287  1  0.89381753  0.52425257  0.65507182  1
  H+  H288  1  0.61671073  0.63205535  0.00153534  1
  H+  H289  1  0.06564676  0.15000076  0.10014021  1
  H+  H290  1  0.92460135  0.81270200  0.57386347  1
  H+  H291  1  0.16242398  0.08314645  0.56524797  1
  H+  H292  1  0.43631206  0.08712280  0.93066039  1
  H+  H293  1  0.83717394  0.93216402  0.76733992  1
  H+  H294  1  0.69627169  0.84337002  0.50266324  1
  H+  H295  1  0.83850473  0.17088979  0.40718355  1
  H+  H296  1  0.08361941  0.66636794  0.78020741  1
  H+  H297  1  0.30994538  0.15151943  0.80263320  1
  H+  H298  1  0.07516624  0.41352974  0.06636991  1
  H+  H299  1  0.14843971  0.52301891  0.65296178  1
  H+  H300  1  0.17704275  0.08414880  0.26076174  1
  H+  H301  1  0.16935207  0.58556408  0.56064876  1
  H+  H302  1  0.66490079  0.08869056  0.94683485  1
  H+  H303  1  0.91784198  0.59325740  0.26154120  1
  H+  H304  1  0.41939663  0.33690589  0.90317165  1
  H+  H305  1  0.17018940  0.33572894  0.93726338  1
  H+  H306  1  0.58756017  0.66673718  0.06846579  1
  H+  H307  1  0.22737661  0.36262846  0.84156562  1
  H+  H308  1  0.18773265  0.84244215  0.35387489  1
  H+  H309  1  0.36832082  0.51835170  0.51042015  1
  H+  H310  1  0.33065085  0.37019819  0.50247655  1
  H+  H311  1  0.41754425  0.20376405  0.05807311  1
  H+  H312  1  0.92806801  0.10444411  0.59954773  1
  H+  H313  1  0.33145483  0.17179689  0.40190047  1
  H+  H314  1  0.64063727  0.77556579  0.84089993  1
  H+  H315  1  0.65924181  0.83398015  0.60360984  1
  H+  H316  1  0.41234441  0.58071313  0.60409404  1
  H+  H317  1  0.07278238  0.91534270  0.76547982  1
  H+  H318  1  0.69629655  0.35343005  0.26598320  1
  H+  H319  1  0.66531022  0.58122033  0.26472521  1
  H+  H320  1  0.84295363  0.42715019  0.73679759  1
  H+  H321  1  0.52961739  0.90903648  0.67788944  1
  H+  H322  1  0.41872670  0.57866188  0.90127144  1
  H+  H323  1  0.48506747  0.37423101  0.99269854  1
  H+  H324  1  0.71078567  0.52545466  0.61335137  1
  H+  H325  1  0.83326544  0.91330730  0.06443720  1
  H+  H326  1  0.91854414  0.33358686  0.27620586  1
  H+  H327  1  0.38177139  0.55526364  0.28415611  1
  H+  H328  1  0.04603238  0.55722035  0.72614450  1
  H+  H329  1  0.08840964  0.15620472  0.40561808  1
  H+  H330  1  0.91178270  0.58646424  0.90181865  1
  H+  H331  1  0.16480536  0.57939637  0.93557824  1
  H+  H332  1  0.55558504  0.14570035  0.71627060  1
  H+  H333  1  0.00499656  0.91215023  0.34776773  1
  H+  H334  1  0.85103781  0.67683530  0.76717598  1
  H+  H335  1  0.17438356  0.84377548  0.59435700  1
  H+  H336  1  0.56809367  0.41399295  0.42857063  1
  H+  H337  1  0.40046392  0.32553163  0.56340329  1
  H+  H338  1  0.89411443  0.27910136  0.33763754  1
  H+  H339  1  0.11752961  0.42325650  0.43172461  1
  H+  H340  1  0.01219403  0.54916061  0.37683458  1
  H+  H341  1  0.21236414  0.33977436  0.32725922  1
  H+  H342  1  0.22315071  0.60435847  0.84265360  1
  H+  H343  1  0.93570561  0.59172177  0.56816567  1
  H+  H344  1  0.08274574  0.17533238  0.76684230  1
  H+  H345  1  0.89732815  0.86226065  1.00242369  1
  H+  H346  1  0.64924457  0.30350430  0.53326580  1
  H+  H347  1  0.08068706  0.37745020  0.16363580  1
  H+  H348  1  0.82604898  0.91727859  0.39211141  1
  H+  H349  1  0.92584379  0.83530752  0.22296352  1
  H+  H350  1  0.56919657  0.65868636  0.42941673  1
  H+  H351  1  0.33446523  0.90255256  0.06385976  1
  H+  H352  1  0.58728259  0.92121196  0.39640271  1
  H+  H353  1  0.82788506  0.66347064  0.06440029  1
  H+  H354  1  0.90732868  0.33093361  0.56420472  1
  H+  H355  1  0.64452089  0.17910920  0.78367234  1
  H+  H356  1  0.67275215  0.09463098  0.59883151  1
  H+  H357  1  0.86041210  0.63245433  0.15652868  1
  H+  H358  1  0.67100322  0.34388804  0.62447829  1
  H+  H359  1  0.41449289  0.05621419  0.25503509  1
  H+  H360  1  0.57179664  0.41591093  0.77323459  1
  H+  H361  1  0.60961088  0.88471045  0.85431435  1
  H+  H362  1  0.58858227  0.36602388  0.68150132  1
  H+  H363  1  0.32436669  0.42243042  0.15890700  1
  H+  H364  1  0.58113514  0.67368620  0.77390616  1
  H+  H365  1  0.77411923  0.13750753  0.00572147  1
  H+  H366  1  0.58208010  0.91019525  0.10092516  1
  H+  H367  1  0.34683639  0.42676286  0.06008345  1
  H+  H368  1  0.84633778  0.17782635  0.76072287  1
  H+  H369  1  0.31617438  0.16438102  0.10812716  1
  H+  H370  1  0.33304408  0.14288400  0.70361695  1
  H+  H371  1  0.40616821  0.81987207  0.93220811  1
  H+  H372  1  0.09161655  0.41960741  0.72851956  1
  H+  H373  1  0.16823734  0.58214115  0.22890095  1
  H+  H374  1  0.58801693  0.41789619  0.06264860  1
  H+  H375  1  0.82796094  0.20283537  0.19754064  1
  H+  H376  1  0.44936024  0.63930212  0.21385356  1
  H+  H377  1  0.94311001  0.09799238  0.16703886  1
  H+  H378  1  0.90351379  0.07718719  0.26338490  1
  H+  H379  1  0.89388171  0.37003738  0.66443354  1
  H+  H380  1  0.12681420  0.30539614  0.23621235  1
  H+  H381  1  0.71215070  0.29872579  0.15747378  1
  H+  H382  1  0.41157702  0.33122615  0.26923436  1
  H+  H383  1  0.65065670  0.57728443  0.55237645  1
  O2-  O384  1  0.05199768  0.14001293  0.14476400  1
  O2-  O385  1  0.11125061  0.18847410  0.47881170  1
  O2-  O386  1  0.07923881  0.17119878  0.81219445  1
  O2-  O387  1  0.05941638  0.41327521  0.14472190  1
  O2-  O388  1  0.13432474  0.42772616  0.47538464  1
  O2-  O389  1  0.08675940  0.41753210  0.80840671  1
  O2-  O390  1  0.08043350  0.66371445  0.14537247  1
  O2-  O391  1  0.08768358  0.67050263  0.48035542  1
  O2-  O392  1  0.08277472  0.67017240  0.82512449  1
  O2-  O393  1  0.08341140  0.91499554  0.12615052  1
  O2-  O394  1  0.09312256  0.92089104  0.48320603  1
  O2-  O395  1  0.06950641  0.91363887  0.81104106  1
  O2-  O396  1  0.32085265  0.16610163  0.15266336  1
  O2-  O397  1  0.32823018  0.16539549  0.47166529  1
  O2-  O398  1  0.33099005  0.15884521  0.84420298  1
  O2-  O399  1  0.37920406  0.44548562  0.13753774  1
  O2-  O400  1  0.30163189  0.40188774  0.48649696  1
  O2-  O401  1  0.33280119  0.40848389  0.81564608  1
  O2-  O402  1  0.32881023  0.66492154  0.13828017  1
  O2-  O403  1  0.33838674  0.68162543  0.48288409  1
  O2-  O404  1  0.31615327  0.64559674  0.81645864  1
  O2-  O405  1  0.33481747  0.91562291  0.14380680  1
  O2-  O406  1  0.33332826  0.91441225  0.47537324  1
  O2-  O407  1  0.32094205  0.90778276  0.81452347  1
  O2-  O408  1  0.61753476  0.19935175  0.15682210  1
  O2-  O409  1  0.58242873  0.15343839  0.45665408  1
  O2-  O410  1  0.59603849  0.17616483  0.80582345  1
  O2-  O411  1  0.59025218  0.41363431  0.13346676  1
  O2-  O412  1  0.56525609  0.41035093  0.47464724  1
  O2-  O413  1  0.58096823  0.42106263  0.81780052  1
  O2-  O414  1  0.58932844  0.67069209  0.13064890  1
  O2-  O415  1  0.56735634  0.65482823  0.47516840  1
  O2-  O416  1  0.58390447  0.67141045  0.81912969  1
  O2-  O417  1  0.58300094  0.90128085  0.14493993  1
  O2-  O418  1  0.57455330  0.91764968  0.48145033  1
  O2-  O419  1  0.57464328  0.91250090  0.86402118  1
  O2-  O420  1  0.78705164  0.14029740  0.19352799  1
  O2-  O421  1  0.83417625  0.16916264  0.48364938  1
  O2-  O422  1  0.85223009  0.18080664  0.80791700  1
  O2-  O423  1  0.77207222  0.34928786  0.15021033  1
  O2-  O424  1  0.82227925  0.40843654  0.47995856  1
  O2-  O425  1  0.83784023  0.42408430  0.81362236  1
  O2-  O426  1  0.82934476  0.66234730  0.14154875  1
  O2-  O427  1  0.83934148  0.65179784  0.47899825  1
  O2-  O428  1  0.84169061  0.67817068  0.81224864  1
  O2-  O429  1  0.82223814  0.90381498  0.14198397  1
  O2-  O430  1  0.80935308  0.93950076  0.47992682  1
  O2-  O431  1  0.83768374  0.92573317  0.81240969  1
  O2-  O432  1  0.15316468  0.07102406  0.18488277  1
  O2-  O433  1  0.16923291  0.08576809  0.51990177  1
  O2-  O434  1  0.13961232  0.06742796  0.85541648  1
  O2-  O435  1  0.11419660  0.30306856  0.19159401  1
  O2-  O436  1  0.21389531  0.35541761  0.51268427  1
  O2-  O437  1  0.16708529  0.33384107  0.85738739  1
  O2-  O438  1  0.16480612  0.58079950  0.18340071  1
  O2-  O439  1  0.16977180  0.58902481  0.51512211  1
  O2-  O440  1  0.16116982  0.57470342  0.85879137  1
  O2-  O441  1  0.16026340  0.83999343  0.16737039  1
  O2-  O442  1  0.17875188  0.84100060  0.51714116  1
  O2-  O443  1  0.16036328  0.83778019  0.86102449  1
  O2-  O444  1  0.43000413  0.08975592  0.17389053  1
  O2-  O445  1  0.41331377  0.07479669  0.49565060  1
  O2-  O446  1  0.42235102  0.07502718  0.85388457  1
  O2-  O447  1  0.42480690  0.33095720  0.19326669  1
  O2-  O448  1  0.39814741  0.32700537  0.51806518  1
  O2-  O449  1  0.41749648  0.33004025  0.85771610  1
  O2-  O450  1  0.42983669  0.61128686  0.17445796  1
  O2-  O451  1  0.40463991  0.57849913  0.52401184  1
  O2-  O452  1  0.41570656  0.57316496  0.85632904  1
  O2-  O453  1  0.41672109  0.83193802  0.18639345  1
  O2-  O454  1  0.41390265  0.84536049  0.52632087  1
  O2-  O455  1  0.39936000  0.81562940  0.85259481  1
  O2-  O456  1  0.62463641  0.12813893  0.17048623  1
  O2-  O457  1  0.66735166  0.08404084  0.51937322  1
  O2-  O458  1  0.66557866  0.08614780  0.87366405  1
  O2-  O459  1  0.78419441  0.41417233  0.19584292  1
  O2-  O460  1  0.64058441  0.31217991  0.49087287  1
  O2-  O461  1  0.66684173  0.33752952  0.84810440  1
  O2-  O462  1  0.66719468  0.57830344  0.18566010  1
  O2-  O463  1  0.66180901  0.57326255  0.50930672  1
  O2-  O464  1  0.67146348  0.59005171  0.85472125  1
  O2-  O465  1  0.65785521  0.81844468  0.18288279  1
  O2-  O466  1  0.64086472  0.81474193  0.52400768  1
  O2-  O467  1  0.67064464  0.83623767  0.85646176  1
  O2-  O468  1  0.88677227  0.06513440  0.18821655  1
  O2-  O469  1  0.95117535  0.11539997  0.52155463  1
  O2-  O470  1  0.91875336  0.09329218  0.85483800  1
  O2-  O471  1  0.89799668  0.31879281  0.20008562  1
  O2-  O472  1  0.89972767  0.32433951  0.51984593  1
  O2-  O473  1  0.91370527  0.33342912  0.85166217  1
  O2-  O474  1  0.90720741  0.57870978  0.18481874  1
  O2-  O475  1  0.93828570  0.59661401  0.52187211  1
  O2-  O476  1  0.91421169  0.58815206  0.85627641  1
  O2-  O477  1  0.92009208  0.83207907  0.17795725  1
  O2-  O478  1  0.93124233  0.81056102  0.52412053  1
  O2-  O479  1  0.91578909  0.83963934  0.84293022  1
  O2-  O480  1  0.18873933  0.09330804  0.30561723  1
  O2-  O481  1  0.14872247  0.07967903  0.64245432  1
  O2-  O482  1  0.17852071  0.07364229  1.01252900  1
  O2-  O483  1  0.15205745  0.30953976  0.31123816  1
  O2-  O484  1  0.17571042  0.34144333  0.63999534  1
  O2-  O485  1  0.17300606  0.33590438  0.98272056  1
  O2-  O486  1  0.17449722  0.57992921  0.30838828  1
  O2-  O487  1  0.17438196  0.58320416  0.63713261  1
  O2-  O488  1  0.16721789  0.58346873  0.98128431  1
  O2-  O489  1  0.13994410  0.82503889  0.38349815  1
  O2-  O490  1  0.17137825  0.84398060  0.64027047  1
  O2-  O491  1  0.16067018  0.83300660  0.98440835  1
  O2-  O492  1  0.40370676  0.03776632  0.29793447  1
  O2-  O493  1  0.41421395  0.07691103  0.61280919  1
  O2-  O494  1  0.44310419  0.09814521  0.97543273  1
  O2-  O495  1  0.40856188  0.32912603  0.31505761  1
  O2-  O496  1  0.39133547  0.31584388  0.64244652  1
  O2-  O497  1  0.42348457  0.34004356  0.97879440  1
  O2-  O498  1  0.39735933  0.56730723  0.32691338  1
  O2-  O499  1  0.41016423  0.58049180  0.64942871  1
  O2-  O500  1  0.42773486  0.58963032  0.98275482  1
  O2-  O501  1  0.42464495  0.81191930  0.31064556  1
  O2-  O502  1  0.41188780  0.84961395  0.65189768  1
  O2-  O503  1  0.41430543  0.82231095  0.97723199  1
  O2-  O504  1  0.68675748  0.08899693  0.30269138  1
  O2-  O505  1  0.67330776  0.09815828  0.64432305  1
  O2-  O506  1  0.66582317  0.09079294  0.99315591  1
  O2-  O507  1  0.66004215  0.32396947  0.30150576  1
  O2-  O508  1  0.65675648  0.32936794  0.66719663  1
  O2-  O509  1  0.66837158  0.33955220  0.97390603  1
  O2-  O510  1  0.66502828  0.58166916  0.31027938  1
  O2-  O511  1  0.74460797  0.52462908  0.64765757  1
  O2-  O512  1  0.66761655  0.59292864  0.97906689  1
  O2-  O513  1  0.65763255  0.82332405  0.30887745  1
  O2-  O514  1  0.66457126  0.84240179  0.64853772  1
  O2-  O515  1  0.67047057  0.83739300  0.97840384  1
  O2-  O516  1  0.90750687  0.07942127  0.30927095  1
  O2-  O517  1  0.92006485  0.09849881  0.64452208  1
  O2-  O518  1  0.92800538  0.07904277  0.97878848  1
  O2-  O519  1  0.92870424  0.33867594  0.32112092  1
  O2-  O520  1  0.91975824  0.33575686  0.64951748  1
  O2-  O521  1  0.91490458  0.33734231  0.97578349  1
  O2-  O522  1  0.92276702  0.59728521  0.30680162  1
  O2-  O523  1  0.93468956  0.58389635  0.64041937  1
  O2-  O524  1  0.91023535  0.58599473  0.98001288  1
  O2-  O525  1  0.91671435  0.83566468  0.30691755  1
  O2-  O526  1  0.91503890  0.81556228  0.63636177  1
  O2-  O527  1  0.92771186  0.82983411  0.99506480  1
  O2-  O528  1  0.09292303  0.16568388  0.02507393  1
  O2-  O529  1  0.07289955  0.13041533  0.36361817  1
  O2-  O530  1  0.08678551  0.17969238  0.68698055  1
  O2-  O531  1  0.08271959  0.41457443  0.02122219  1
  O2-  O532  1  0.09441518  0.41673004  0.35474399  1
  O2-  O533  1  0.08937622  0.42072229  0.68308245  1
  O2-  O534  1  0.08151523  0.66483895  0.02169575  1
  O2-  O535  1  0.05788333  0.60976916  0.36726490  1
  O2-  O536  1  0.06767534  0.61402893  0.70815354  1
  O2-  O537  1  0.08735620  0.91423917  0.05819088  1
  O2-  O538  1  0.05068582  0.96122064  0.37174130  1
  O2-  O539  1  0.06900930  0.91528927  0.68679995  1
  O2-  O540  1  0.37247147  0.18727297  0.02758093  1
  O2-  O541  1  0.33751217  0.17588949  0.35496256  1
  O2-  O542  1  0.32051109  0.14936673  0.66156673  1
  O2-  O543  1  0.34072692  0.42408417  0.01511805  1
  O2-  O544  1  0.31353973  0.39793034  0.36052446  1
  O2-  O545  1  0.33331821  0.41355222  0.69053199  1
  O2-  O546  1  0.33527946  0.66147131  0.01665688  1
  O2-  O547  1  0.33598839  0.66395660  0.36007420  1
  O2-  O548  1  0.34237611  0.68998631  0.66809323  1
  O2-  O549  1  0.33308314  0.89581972  0.01899414  1
  O2-  O550  1  0.27188093  0.87274416  0.30273826  1
  O2-  O551  1  0.32531942  0.90527791  0.69618650  1
  O2-  O552  1  0.58942400  0.17750945  0.01427016  1
  O2-  O553  1  0.58218362  0.15336011  0.33804829  1
  O2-  O554  1  0.57211157  0.15958529  0.67344862  1
  O2-  O555  1  0.58743053  0.41942420  0.01583925  1
  O2-  O556  1  0.57949759  0.41698755  0.35422062  1
  O2-  O557  1  0.55255110  0.39204599  0.69413760  1
  O2-  O558  1  0.58294062  0.66143319  0.01866781  1
  O2-  O559  1  0.57444438  0.65985206  0.35258713  1
  O2-  O560  1  0.57512509  0.68379860  0.69611664  1
  O2-  O561  1  0.58025045  0.91830281  0.01160573  1
  O2-  O562  1  0.59092881  0.92278109  0.35147988  1
  O2-  O563  1  0.59126825  0.94104603  0.68797426  1
  O2-  O564  1  0.83728548  0.16574602  -0.00377147  1
  O2-  O565  1  0.83880947  0.17401744  0.36154220  1
  O2-  O566  1  0.83680371  0.17726752  0.69132503  1
  O2-  O567  1  0.84486454  0.42046647  0.04469821  1
  O2-  O568  1  0.90801909  0.46232861  0.37311190  1
  O2-  O569  1  0.84067861  0.42423201  0.69109323  1
  O2-  O570  1  0.82836578  0.66653524  0.01874604  1
  O2-  O571  1  0.83150400  0.67031753  0.35113420  1
  O2-  O572  1  0.87356976  0.67547978  0.69222919  1
  O2-  O573  1  0.83902906  0.91686384  0.01898729  1
  O2-  O574  1  0.82608693  0.91398166  0.34765617  1
  O2-  O575  1  0.83969691  0.93816265  0.68737186  1
