# generated using pymatgen
data_H2O
_symmetry_space_group_name_H-M   'P 1'
_cell_length_a   17.98813947
_cell_length_b   17.98422479
_cell_length_c   21.98241776
_cell_angle_alpha   89.99616113
_cell_angle_beta   90.04072429
_cell_angle_gamma   120.01316254
_symmetry_Int_Tables_number   1
_chemical_formula_structural   H2O
_chemical_formula_sum   'H384 O192'
_cell_volume   6157.81030106
_cell_formula_units_Z   192
loop_
 _symmetry_equiv_pos_site_id
 _symmetry_equiv_pos_as_xyz
  1  'x, y, z'
loop_
 _atom_type_symbol
 _atom_type_oxidation_number
  H+  1.0
  O2-  -2.0
loop_
 _atom_site_type_symbol
 _atom_site_label
 _atom_site_symmetry_multiplicity
 _atom_site_fract_x
 _atom_site_fract_y
 _atom_site_fract_z
 _atom_site_occupancy
  H+  H0  1  0.65473370  0.56363069  0.60931922  1
  H+  H1  1  0.14277585  0.25854753  0.84517149  1
  H+  H2  1  0.38328584  0.85034643  0.32477390  1
  H+  H3  1  0.88164326  0.36421391  0.50597693  1
  H+  H4  1  0.46057232  0.86072680  0.84439402  1
  H+  H5  1  0.47188255  0.61490431  0.84586838  1
  H+  H6  1  0.10977088  0.38571594  0.16686836  1
  H+  H7  1  0.73520821  0.61836238  0.84375399  1
  H+  H8  1  0.72200683  0.60903318  0.99757556  1
  H+  H9  1  0.38362568  0.25419604  0.66267823  1
  H+  H10  1  0.86966847  0.11776280  0.16846832  1
  H+  H11  1  0.38635977  0.26857628  0.50760258  1
  H+  H12  1  0.61298430  -0.04095080  0.99778335  1
  H+  H13  1  0.12329264  0.74601885  0.15117545  1
  H+  H14  1  0.15170728  0.12326872  0.33023868  1
  H+  H15  1  0.60946047  0.36863896  0.34717654  1
  H+  H16  1  0.52418440  0.63188409  0.49927559  1
  H+  H17  1  0.81049659  0.16030619  0.81361336  1
  H+  H18  1  0.51806714  0.87753359  1.00335221  1
  H+  H19  1  0.60520173  0.86965200  0.16052352  1
  H+  H20  1  0.13074196  0.24614488  0.34489007  1
  H+  H21  1  0.86623797  0.13321107  0.66447775  1
  H+  H22  1  0.08659686  0.15886615  0.76764178  1
  H+  H23  1  0.61618239  0.06846630  1.03133636  1
  H+  H24  1  1.01538304  0.13234177  1.00061148  1
  H+  H25  1  0.88583857  0.76967626  0.66352565  1
  H+  H26  1  0.76844464  0.79366333  0.05867288  1
  H+  H27  1  0.26153131  0.13365214  0.00783552  1
  H+  H28  1  0.87453139  0.26973046  0.32902728  1
  H+  H29  1  0.02492966  0.37617676  0.01090150  1
  H+  H30  1  0.77338086  0.88197748  0.82547273  1
  H+  H31  1  0.37691107  0.11590722  0.99508619  1
  H+  H32  1  0.53159001  0.38404749  0.34279571  1
  H+  H33  1  0.62202723  0.85441200  0.65885161  1
  H+  H34  1  0.83498838  0.66431301  0.40635877  1
  H+  H35  1  -0.01368957  0.11806626  0.50772024  1
  H+  H36  1  0.76640139  0.62402683  0.50010672  1
  H+  H37  1  0.71169284  0.36127155  0.82896452  1
  H+  H38  1  0.47514557  0.36979728  0.83877088  1
  H+  H39  1  0.87626535  0.02526845  0.98939390  1
  H+  H40  1  0.59070435  0.44589093  0.76187716  1
  H+  H41  1  0.21706981  0.34647925  0.17800159  1
  H+  H42  1  0.13344134  0.10454700  0.84005001  1
  H+  H43  1  0.04369805  0.66565713  0.81584331  1
  H+  H44  1  0.31717025  0.69754922  0.65018876  1
  H+  H45  1  0.36010154  0.99093164  0.83154599  1
  H+  H46  1  0.89353564  0.36240000  0.99362422  1
  H+  H47  1  0.35730338  0.72259519  0.33507003  1
  H+  H48  1  0.38714628  0.35175096  0.65950371  1
  H+  H49  1  -0.01240710  0.62756283  0.17479416  1
  H+  H50  1  0.61307833  0.72499366  0.67685771  1
  H+  H51  1  0.62608152  0.73275358  0.82866913  1
  H+  H52  1  0.27478683  0.89330237  0.15680226  1
  H+  H53  1  0.09688449  0.71908899  0.32636109  1
  H+  H54  1  0.37087415  0.46309231  0.67042987  1
  H+  H55  1  0.29180512  0.89520305  0.67406564  1
  H+  H56  1  0.41198516  0.88203663  0.51167466  1
  H+  H57  1  0.45764139  0.09246998  0.33114217  1
  H+  H58  1  0.26658996  0.63216001  0.48009595  1
  H+  H59  1  0.92307853  0.58944278  0.23301488  1
  H+  H60  1  0.27007929  0.62972053  0.16010123  1
  H+  H61  1  0.64384900  0.11915060  0.66694068  1
  H+  H62  1  0.97447654  0.85974039  0.99865352  1
  H+  H63  1  0.89083344  0.37226317  0.17414255  1
  H+  H64  1  0.14833802  0.78949907  0.82831698  1
  H+  H65  1  0.35893344  0.15693623  0.16311884  1
  H+  H66  1  0.57848730  0.65474094  0.10658917  1
  H+  H67  1  0.91746553  0.33486630  0.59512849  1
  H+  H68  1  0.11730686  0.06429318  0.50936174  1
  H+  H69  1  0.23291877  0.63827701  0.84499852  1
  H+  H70  1  0.61503382  0.17876902  0.00928330  1
  H+  H71  1  0.16893772  0.84108398  0.10731847  1
  H+  H72  1  0.23155510  0.35367091  0.84601009  1
  H+  H73  1  0.84801707  0.37701540  0.34082932  1
  H+  H74  1  0.65114105  0.13887258  0.49756873  1
  H+  H75  1  0.24143345  0.88675843  0.83194939  1
  H+  H76  1  0.37393177  -0.02452657  0.47574474  1
  H+  H77  1  0.40345187  0.69724126  0.64229916  1
  H+  H78  1  0.70729029  0.33284166  0.32746432  1
  H+  H79  1  0.37914503  0.14507073  0.68869754  1
  H+  H80  1  0.84481116  0.84608608  0.01426431  1
  H+  H81  1  0.36006415  0.73180071  1.01251129  1
  H+  H82  1  0.58418600  0.39930636  0.44533047  1
  H+  H83  1  0.12358359  0.26454051  0.17428654  1
  H+  H84  1  0.47120701  0.12984266  -0.00671100  1
  H+  H85  1  0.62093427  0.09058681  0.33143453  1
  H+  H86  1  0.13898456  0.30438515  0.50176745  1
  H+  H87  1  0.76991366  0.30272383  0.78678412  1
  H+  H88  1  0.40234002  0.03981126  0.69362336  1
  H+  H89  1  0.35691797  0.62707770  0.47955801  1
  H+  H90  1  0.61072770  0.63161268  0.16836665  1
  H+  H91  1  0.13019181  0.61492517  0.32393546  1
  H+  H92  1  0.38058447  0.58590961  0.68000246  1
  H+  H93  1  0.35079110  0.29311569  0.15731248  1
  H+  H94  1  0.35733384  0.14223010  0.82751708  1
  H+  H95  1  0.38877573  0.91043862  0.68235098  1
  H+  H96  1  0.63005301  0.37519181  0.83173119  1
  H+  H97  1  -0.02489351  0.36417738  0.17687208  1
  H+  H98  1  0.89164491  0.35886554  0.83431652  1
  H+  H99  1  0.39437951  0.04817230  0.17425637  1
  H+  H100  1  0.22536130  0.34464016  0.66387364  1
  H+  H101  1  0.73661874  0.60892734  0.33572254  1
  H+  H102  1  0.58778013  0.01686220  0.86801417  1
  H+  H103  1  0.54882523  0.87511899  0.75655171  1
  H+  H104  1  0.88160123  0.60779181  0.33019227  1
  H+  H105  1  0.46998322  0.10844665  0.50565067  1
  H+  H106  1  0.41076322  0.58427156  0.90388529  1
  H+  H107  1  0.37115060  0.22823139  0.32760199  1
  H+  H108  1  0.59989088  0.97862876  0.67487244  1
  H+  H109  1  0.62847723  0.50671420  0.51872181  1
  H+  H110  1  0.13626404  0.53518352  0.49871561  1
  H+  H111  1  0.11193254  0.12302059  0.67436330  1
  H+  H112  1  0.73070038  0.09572905  0.18311554  1
  H+  H113  1  1.02472009  0.88449495  0.82638983  1
  H+  H114  1  0.38490335  0.52305646  0.50197745  1
  H+  H115  1  0.57363385  0.09580562  0.86490007  1
  H+  H116  1  0.60900532  0.36948608  0.50808531  1
  H+  H117  1  0.14370394  0.01676411  0.65831228  1
  H+  H118  1  0.89913807  0.52995095  0.65730893  1
  H+  H119  1  0.11169420  0.37506914  0.01319885  1
  H+  H120  1  0.14339502  0.02942521  0.32508915  1
  H+  H121  1  0.62116122  0.62887860  0.34946164  1
  H+  H122  1  0.12975770  0.65967531  0.82642182  1
  H+  H123  1  0.11762000  0.64831249  0.16019865  1
  H+  H124  1  0.60389949  0.86811355  0.34538224  1
  H+  H125  1  0.87494708  0.14203706  0.49593187  1
  H+  H126  1  0.76849669  0.14038849  0.00448322  1
  H+  H127  1  0.47994394  0.31075476  0.25452514  1
  H+  H128  1  0.13844423  0.87823510  0.83029269  1
  H+  H129  1  1.10779378  0.88974907  1.01958292  1
  H+  H130  1  0.12940178  0.52479102  0.32456814  1
  H+  H131  1  0.27770576  0.14409074  0.33439297  1
  H+  H132  1  0.13234782  0.65337272  0.66086905  1
  H+  H133  1  0.58459440  0.17297391  0.77166012  1
  H+  H134  1  0.86531950  0.63016425  0.82797495  1
  H+  H135  1  1.02596019  0.88764502  0.16863521  1
  H+  H136  1  0.12189190  0.35880721  0.32873213  1
  H+  H137  1  0.13357034  0.02447604  0.17307152  1
  H+  H138  1  0.86114756  -0.02720209  0.49388756  1
  H+  H139  1  0.91622428  0.28652209  0.83351404  1
  H+  H140  1  0.13431047  0.52442760  0.17226196  1
  H+  H141  1  0.87052507  0.84855841  0.50728835  1
  H+  H142  1  0.69663442  0.11052808  0.80791129  1
  H+  H143  1  0.82463005  0.90891998  0.11199506  1
  H+  H144  1  0.13451058  0.63212755  0.00064762  1
  H+  H145  1  0.78281737  0.38953178  0.66164441  1
  H+  H146  1  0.07267229  0.92002991  0.07414342  1
  H+  H147  1  0.73288395  0.62233893  0.18220875  1
  H+  H148  1  0.11523067  0.88602972  0.15619527  1
  H+  H149  1  0.38078679  0.87671192  0.84883735  1
  H+  H150  1  0.66615820  0.06317691  0.27804414  1
  H+  H151  1  0.75098020  0.86144984  0.34509788  1
  H+  H152  1  0.74014434  0.10529467  0.51580392  1
  H+  H153  1  0.90404221  0.82122217  0.56541506  1
  H+  H154  1  0.71306104  0.44487061  0.97008326  1
  H+  H155  1  0.14023332  0.55176890  0.84296228  1
  H+  H156  1  0.65791072  0.82486831  0.60268305  1
  H+  H157  1  0.37011315  -0.01299484  1.01341907  1
  H+  H158  1  0.81989870  0.38938916  0.75146986  1
  H+  H159  1  0.47058740  0.85265634  0.17074246  1
  H+  H160  1  0.51224881  0.62370960  0.01044953  1
  H+  H161  1  0.86245205  0.97107122  0.82495746  1
  H+  H162  1  0.48947859  0.78378360  0.78395266  1
  H+  H163  1  0.76754089  0.88258033  0.67209090  1
  H+  H164  1  0.49458266  0.12840941  0.69462960  1
  H+  H165  1  0.59767039  0.47597456  0.01169541  1
  H+  H166  1  0.82128374  0.90896975  0.43692289  1
  H+  H167  1  0.26019308  0.63433996  0.33531219  1
  H+  H168  1  0.56023836  0.45032182  0.65754699  1
  H+  H169  1  0.63137239  0.60801438  0.99551096  1
  H+  H170  1  0.71111934  0.14742074  0.83034241  1
  H+  H171  1  0.35815858  0.64845766  0.83624860  1
  H+  H172  1  0.85084807  0.97818258  0.16564008  1
  H+  H173  1  0.35409253  0.95441356  0.33410271  1
  H+  H174  1  0.14965833  0.97681587  0.48238677  1
  H+  H175  1  0.88463156  0.85776961  0.66149064  1
  H+  H176  1  0.64728062  1.00195307  0.18312959  1
  H+  H177  1  0.41623735  0.34400880  0.24957820  1
  H+  H178  1  0.11371984  0.85257241  0.30488444  1
  H+  H179  1  0.71764748  0.85293797  0.18118837  1
  H+  H180  1  0.37674707  0.61119784  0.99828666  1
  H+  H181  1  0.59503714  0.38781264  0.01617596  1
  H+  H182  1  0.83468649  0.16696251  0.43912429  1
  H+  H183  1  0.53392605  0.17522002  0.20508854  1
  H+  H184  1  0.35926079  0.45980808  0.34149461  1
  H+  H185  1  0.86725090  0.72689048  0.34762533  1
  H+  H186  1  0.93219312  0.07921460  0.31655521  1
  H+  H187  1  0.46297347  0.35884521  0.99699397  1
  H+  H188  1  0.64989038  0.01569134  0.51142910  1
  H+  H189  1  0.60599626  0.26017766  0.00474837  1
  H+  H190  1  0.11325198  0.21251701  0.67492448  1
  H+  H191  1  0.84449678  0.13171412  0.34268967  1
  H+  H192  1  0.88751066  0.86668053  0.18306874  1
  H+  H193  1  0.97649510  0.10429256  0.66129654  1
  H+  H194  1  0.88862231  0.85937416  0.83920036  1
  H+  H195  1  0.64902678  0.26404436  0.52062224  1
  H+  H196  1  0.71159435  0.83510793  0.99054459  1
  H+  H197  1  0.63009956  0.63713072  0.82952943  1
  H+  H198  1  0.53774878  0.89267599  0.50078819  1
  H+  H199  1  0.87029750  0.64425681  0.16558746  1
  H+  H200  1  0.88302538  0.49485727  0.15701653  1
  H+  H201  1  0.39583495  0.11616351  0.47445623  1
  H+  H202  1  0.78645260  0.39176640  0.00943293  1
  H+  H203  1  0.37665825  0.59108923  0.16345652  1
  H+  H204  1  0.14413792  0.18404652  0.50628226  1
  H+  H205  1  0.85342351  0.48998603  0.84660661  1
  H+  H206  1  1.09494966  0.12829066  0.16095207  1
  H+  H207  1  0.85663970  0.47591703  0.49602802  1
  H+  H208  1  0.61482901  0.48983646  0.82642272  1
  H+  H209  1  0.86886706  0.38506118  0.66342256  1
  H+  H210  1  0.62569032  0.75115757  0.33558200  1
  H+  H211  1  0.86545959  0.63261725  0.67365559  1
  H+  H212  1  0.62952777  0.76141978  0.17717405  1
  H+  H213  1  0.36088878  0.71695480  0.16048896  1
  H+  H214  1  0.65157010  0.40065903  0.17091054  1
  H+  H215  1  0.23292469  0.87176312  0.01746677  1
  H+  H216  1  0.72511175  0.85585674  0.51391462  1
  H+  H217  1  0.59127877  0.19757251  0.34921017  1
  H+  H218  1  0.35738837  0.47609141  0.82710890  1
  H+  H219  1  0.36490000  0.39091551  0.82890975  1
  H+  H220  1  0.89141406  0.77193059  0.84001623  1
  H+  H221  1  0.02293331  0.40268784  0.49127738  1
  H+  H222  1  0.33716897  0.92843974  0.77169186  1
  H+  H223  1  0.36397381  0.89405621  0.16558368  1
  H+  H224  1  0.46556302  0.11928722  0.84028692  1
  H+  H225  1  0.14805883  0.77089571  0.50222334  1
  H+  H226  1  0.15339356  0.87133497  0.65510230  1
  H+  H227  1  0.83118386  0.95474670  0.33926256  1
  H+  H228  1  0.18965396  0.56918037  0.64582879  1
  H+  H229  1  0.89149815  0.52083710  1.00164987  1
  H+  H230  1  0.03849684  0.32155093  0.72624927  1
  H+  H231  1  0.17239314  0.61166338  0.93251839  1
  H+  H232  1  0.36432487  0.39056340  0.50062635  1
  H+  H233  1  0.66809313  0.07924097  0.60831313  1
  H+  H234  1  0.62936093  0.27011468  0.27922132  1
  H+  H235  1  0.75793205  0.13185506  0.34917704  1
  H+  H236  1  0.84695682  0.42192043  0.06949445  1
  H+  H237  1  0.59925687  0.23043368  0.83181089  1
  H+  H238  1  0.88466769  0.61219500  0.50435564  1
  H+  H239  1  0.85840993  0.63029481  0.01108581  1
  H+  H240  1  0.60031089  0.71150319  0.00522309  1
  H+  H241  1  0.38220401  0.54940649  0.25906738  1
  H+  H242  1  1.01282835  0.38870986  0.33769917  1
  H+  H243  1  0.95136894  0.53515343  0.85080902  1
  H+  H244  1  0.64911902  0.51742589  0.33531652  1
  H+  H245  1  0.86110845  0.22637731  0.00021553  1
  H+  H246  1  0.02349729  0.63959278  0.48669502  1
  H+  H247  1  1.02632738  0.12964888  0.82684181  1
  H+  H248  1  0.41045938  0.41199132  0.35503039  1
  H+  H249  1  0.02540355  0.88227400  0.66787605  1
  H+  H250  1  0.88465236  0.01801672  0.65840120  1
  H+  H251  1  0.13633081  0.34262168  0.66251194  1
  H+  H252  1  0.87887175  0.85720011  0.33515993  1
  H+  H253  1  0.61770933  0.83506922  0.83213382  1
  H+  H254  1  0.13262212  0.25445791  -0.00680771  1
  H+  H255  1  0.35528311  0.37764961  0.00514316  1
  H+  H256  1  0.28955660  0.88380126  0.48972094  1
  H+  H257  1  0.63640341  0.85515822  0.51119515  1
  H+  H258  1  0.26452805  0.14452659  0.15990232  1
  H+  H259  1  0.61412790  0.49061606  0.17042529  1
  H+  H260  1  0.12571395  0.01688480  0.99749798  1
  H+  H261  1  0.61052163  0.63260473  0.67780192  1
  H+  H262  1  0.37470785  0.10225511  0.33078093  1
  H+  H263  1  0.28008936  0.14093594  0.48725367  1
  H+  H264  1  0.35678806  0.58566793  0.31679022  1
  H+  H265  1  0.47741903  0.61523096  0.66519128  1
  H+  H266  1  0.05320608  0.15073724  0.35772861  1
  H+  H267  1  0.89860312  0.11383284  0.82969568  1
  H+  H268  1  0.46565601  0.59214502  0.16982228  1
  H+  H269  1  0.37479836  0.26785776  0.99256955  1
  H+  H270  1  0.22388997  0.10891820  0.84061585  1
  H+  H271  1  0.14093739  0.88565385  0.48110675  1
  H+  H272  1  0.35733305  0.23115624  0.82822376  1
  H+  H273  1  0.87324896  0.51487177  0.32632550  1
  H+  H274  1  0.47105303  0.84605911  0.32851886  1
  H+  H275  1  0.88307235  0.27047365  0.65266221  1
  H+  H276  1  0.01345342  0.36524771  0.67556856  1
  H+  H277  1  1.02555395  0.63674381  1.01291069  1
  H+  H278  1  0.76918437  0.38692953  0.50673571  1
  H+  H279  1  0.47853603  0.35482755  0.51383325  1
  H+  H280  1  0.02670482  0.89572396  0.33950862  1
  H+  H281  1  0.85642408  0.23482424  0.15838442  1
  H+  H282  1  0.62785069  0.59657705  0.52013808  1
  H+  H283  1  0.86124170  0.72001346  0.00760140  1
  H+  H284  1  0.35879274  0.45125907  0.16073612  1
  H+  H285  1  1.03806320  0.41829788  0.83019313  1
  H+  H286  1  0.22988053  0.38811893  0.49668402  1
  H+  H287  1  0.23292284  0.63338095  0.99709391  1
  H+  H288  1  0.70005386  0.38960397  0.22765599  1
  H+  H289  1  0.79017476  0.41215098  0.15593367  1
  H+  H290  1  0.14206711  0.82081296  0.24623531  1
  H+  H291  1  0.16396256  0.08750490  0.23074104  1
  H+  H292  1  0.82701222  0.17551321  0.09785734  1
  H+  H293  1  0.91836313  0.82992676  0.93638654  1
  H+  H294  1  0.09583169  0.44668237  0.77155333  1
  H+  H295  1  0.22694920  0.34722462  0.99628299  1
  H+  H296  1  0.08451097  0.66579537  0.07564014  1
  H+  H297  1  0.15776385  0.07296548  0.93556463  1
  H+  H298  1  0.17447994  0.08024424  0.56880955  1
  H+  H299  1  0.95731967  0.11424522  0.17410716  1
  H+  H300  1  0.41319033  0.82225351  0.23085828  1
  H+  H301  1  0.56340533  0.13482699  0.40485018  1
  H+  H302  1  0.08094495  0.67038904  0.42579402  1
  H+  H303  1  0.88916202  0.27808040  0.50509636  1
  H+  H304  1  0.82879402  0.91138440  0.73031116  1
  H+  H305  1  0.92210920  0.58723991  0.56153538  1
  H+  H306  1  0.34150971  0.41002138  0.73284049  1
  H+  H307  1  0.40622774  0.09163284  0.23782111  1
  H+  H308  1  0.46085652  0.88632628  0.57351872  1
  H+  H309  1  0.15438250  0.78381073  0.65574000  1
  H+  H310  1  0.11567035  0.40892444  0.48636116  1
  H+  H311  1  0.06904446  0.15925407  0.10090571  1
  H+  H312  1  0.61581952  0.71697053  0.50533087  1
  H+  H313  1  0.40902401  0.09005406  0.90198337  1
  H+  H314  1  0.32332312  0.39735247  0.06759738  1
  H+  H315  1  0.16532684  0.58531378  0.23058193  1
  H+  H316  1  0.50331447  0.14705184  0.58745665  1
  H+  H317  1  0.32597091  0.66578838  0.06955397  1
  H+  H318  1  0.91428074  0.57595274  0.94136014  1
  H+  H319  1  0.14164609  0.62702357  0.49506295  1
  H+  H320  1  0.17270639  0.31525187  0.92069421  1
  H+  H321  1  0.08425662  0.91267839  0.72712894  1
  H+  H322  1  0.33844365  0.89969644  0.39395110  1
  H+  H323  1  0.44451098  0.82881534  0.66206049  1
  H+  H324  1  0.62246816  0.25914085  0.18938398  1
  H+  H325  1  0.41609366  0.33663591  0.89934997  1
  H+  H326  1  0.87631096  0.06818803  0.25978456  1
  H+  H327  1  0.41132240  0.84103607  0.94414147  1
  H+  H328  1  0.18353830  0.83368606  0.56093210  1
  H+  H329  1  0.07434520  0.42496823  0.39593529  1
  H+  H330  1  0.91409374  0.83239388  0.27640223  1
  H+  H331  1  0.92357136  0.08276075  0.56494078  1
  H+  H332  1  0.35766864  0.73746900  0.84067582  1
  H+  H333  1  0.33768127  0.17956455  0.42693514  1
  H+  H334  1  0.83595633  0.65920664  0.76824021  1
  H+  H335  1  0.32257212  0.16967908  0.06677484  1
  H+  H336  1  0.37298268  0.52004491  0.99818080  1
  H+  H337  1  0.59111879  0.91043918  0.43839993  1
  H+  H338  1  0.58166869  0.90243241  0.09966925  1
  H+  H339  1  0.81466504  0.40584165  0.39883886  1
  H+  H340  1  0.41472073  0.31939843  0.59403624  1
  H+  H341  1  0.60665703  0.95925122  0.34558770  1
  H+  H342  1  0.40729447  0.58634103  0.55860959  1
  H+  H343  1  0.57357126  0.42670602  0.11391352  1
  H+  H344  1  0.90534199  0.32946398  0.26887640  1
  H+  H345  1  0.10149397  0.67821541  0.72233061  1
  H+  H346  1  0.10161489  0.12501353  0.00278224  1
  H+  H347  1  0.77600163  0.13277760  0.67164473  1
  H+  H348  1  0.48209769  0.17412203  0.58877959  1
  H+  H349  1  0.92366405  0.33524533  0.93280682  1
  H+  H350  1  0.65667965  0.81860157  0.89543066  1
  H+  H351  1  0.83461480  0.66860690  0.10683766  1
  H+  H352  1  0.88754934  0.77774143  0.17975613  1
  H+  H353  1  0.65308088  0.29865912  0.58738436  1
  H+  H354  1  0.39138669  0.87343729  1.00662849  1
  H+  H355  1  0.77286019  0.62529501  0.67788949  1
  H+  H356  1  0.65112485  0.81156963  0.27488944  1
  H+  H357  1  0.67190792  0.59007563  0.90349087  1
  H+  H358  1  0.08041511  0.41128694  0.10588255  1
  H+  H359  1  0.33364882  0.17856828  0.73421435  1
  H+  H360  1  0.32379059  0.65672509  0.40854964  1
  H+  H361  1  0.87655819  0.11387140  0.98928391  1
  H+  H362  1  0.10874882  0.18970378  0.44103495  1
  H+  H363  1  0.01487682  0.62777360  0.33655445  1
  H+  H364  1  0.23275345  0.10776758  0.66005326  1
  H+  H365  1  0.10013062  0.92108987  0.38968657  1
  H+  H366  1  0.19165770  0.61413021  0.58340632  1
  H+  H367  1  0.59245021  0.65813983  0.40895900  1
  H+  H368  1  0.62792107  0.84646221  0.98678055  1
  H+  H369  1  0.61811996  0.07626640  0.95698684  1
  H+  H370  1  0.86142957  0.17928804  0.75250259  1
  H+  H371  1  0.67577828  0.36640497  0.92530334  1
  H+  H372  1  0.98680808  0.62057383  0.65619923  1
  H+  H373  1  0.34672332  0.93202588  0.07616297  1
  H+  H374  1  0.14342719  0.78073416  1.01583021  1
  H+  H375  1  0.69413035  0.21408961  0.45021572  1
  H+  H376  1  0.34782624  0.41974193  0.43540848  1
  H+  H377  1  0.15230360  0.32650824  0.27077525  1
  H+  H378  1  0.67462136  0.58893674  0.24279068  1
  H+  H379  1  0.91357484  0.07988873  0.89331651  1
  H+  H380  1  0.85119785  0.71824883  0.49941989  1
  H+  H381  1  0.11324143  0.97631500  0.82542382  1
  H+  H382  1  0.60132124  0.28247519  0.68471007  1
  H+  H383  1  0.59452668  0.66612091  0.76458107  1
  O2-  O384  1  0.06453607  0.15871897  0.14593629  1
  O2-  O385  1  0.09828004  0.18915315  0.48623129  1
  O2-  O386  1  0.08777664  0.16151381  0.81356157  1
  O2-  O387  1  0.07968100  0.41587650  0.15158780  1
  O2-  O388  1  0.08120767  0.43743302  0.47327247  1
  O2-  O389  1  0.09639207  0.45973578  0.81511942  1
  O2-  O390  1  0.08595873  0.67573088  0.14318615  1
  O2-  O391  1  0.08397012  0.67002276  0.47153850  1
  O2-  O392  1  0.10384787  0.69212425  0.80388838  1
  O2-  O393  1  0.08365426  0.92015392  0.14942920  1
  O2-  O394  1  0.11672029  0.92016895  0.46356509  1
  O2-  O395  1  0.08472053  0.91521299  0.80952543  1
  O2-  O396  1  0.32482172  0.18148728  0.14486120  1
  O2-  O397  1  0.33997721  0.17542105  0.47263081  1
  O2-  O398  1  0.32599686  0.17146485  0.81169697  1
  O2-  O399  1  0.32562251  0.38845123  0.14743529  1
  O2-  O400  1  0.34058158  0.42379387  0.48143490  1
  O2-  O401  1  0.32991896  0.41582124  0.81201317  1
  O2-  O402  1  0.33022916  0.65699971  0.14343071  1
  O2-  O403  1  0.32586711  0.65557355  0.46117060  1
  O2-  O404  1  0.32921100  0.67953523  0.82156648  1
  O2-  O405  1  0.33950170  0.92928955  0.15042006  1
  O2-  O406  1  0.34924775  0.91196473  0.47315697  1
  O2-  O407  1  0.32990894  0.92847363  0.81735016  1
  O2-  O408  1  0.59506780  0.20980969  0.21733101  1
  O2-  O409  1  0.64320620  0.18430660  0.47576965  1
  O2-  O410  1  0.57123807  0.17038110  0.81705831  1
  O2-  O411  1  0.58498941  0.42885650  0.15798604  1
  O2-  O412  1  0.58072753  0.40031480  0.49068904  1
  O2-  O413  1  0.58374156  0.43272705  0.80598788  1
  O2-  O414  1  0.57574156  0.65638669  0.15161594  1
  O2-  O415  1  0.58655282  0.65553254  0.49182481  1
  O2-  O416  1  0.59753659  0.66727369  0.81196280  1
  O2-  O417  1  0.57715968  0.90186418  0.14443270  1
  O2-  O418  1  0.59816935  0.91577562  0.48381512  1
  O2-  O419  1  0.53498398  0.84129660  0.79557807  1
  O2-  O420  1  0.82590810  0.17420461  0.14296816  1
  O2-  O421  1  0.84101524  0.17032244  0.48458655  1
  O2-  O422  1  0.86966536  0.18490025  0.79860443  1
  O2-  O423  1  0.85075926  0.43382689  0.14175108  1
  O2-  O424  1  0.82398591  0.41366002  0.48392760  1
  O2-  O425  1  0.80351168  0.36463133  0.79427347  1
  O2-  O426  1  0.83705563  0.67262114  0.15193953  1
  O2-  O427  1  0.82538930  0.65634605  0.48369381  1
  O2-  O428  1  0.83644164  0.66128764  0.81432863  1
  O2-  O429  1  0.82622176  0.91545075  0.15658640  1
  O2-  O430  1  0.82516178  0.91144755  0.48242143  1
  O2-  O431  1  0.83321057  0.90988909  0.81061434  1
  O2-  O432  1  0.15905464  0.08641741  0.18540300  1
  O2-  O433  1  0.17625980  0.08591454  0.52287071  1
  O2-  O434  1  0.16315414  0.07351073  0.85529981  1
  O2-  O435  1  0.15682957  0.32416145  0.19082122  1
  O2-  O436  1  0.16922315  0.36710202  0.50802311  1
  O2-  O437  1  0.17396899  0.31665815  0.86578144  1
  O2-  O438  1  0.16706367  0.58608664  0.18512693  1
  O2-  O439  1  0.17365010  0.59791068  0.51075367  1
  O2-  O440  1  0.17093848  0.61306830  0.85997968  1
  O2-  O441  1  0.16724955  0.83545032  0.15197513  1
  O2-  O442  1  0.18543117  0.83160257  0.51580678  1
  O2-  O443  1  0.17493165  0.85066007  0.84422662  1
  O2-  O444  1  0.41583603  0.10547056  0.19309465  1
  O2-  O445  1  0.42961347  0.08627157  0.47181967  1
  O2-  O446  1  0.40527219  0.08820874  0.85613500  1
  O2-  O447  1  0.37763017  0.35350903  0.17310841  1
  O2-  O448  1  0.41737492  0.32627637  0.52900816  1
  O2-  O449  1  0.41502644  0.33865333  0.85365075  1
  O2-  O450  1  0.40266056  0.55637619  0.17744950  1
  O2-  O451  1  0.41092531  0.58598859  0.51399329  1
  O2-  O452  1  0.41140323  0.58594044  0.85816870  1
  O2-  O453  1  0.40994471  0.82284684  0.18541080  1
  O2-  O454  1  0.44794281  0.86145356  0.53248699  1
  O2-  O455  1  0.40658207  0.84355788  0.86652534  1
  O2-  O456  1  0.68876318  0.04920270  0.20941609  1
  O2-  O457  1  0.67905177  0.07520965  0.52999717  1
  O2-  O458  1  0.56817061  0.04890145  0.89241385  1
  O2-  O459  1  0.69335892  0.37998053  0.18382165  1
  O2-  O460  1  0.66138905  0.31676170  0.54415896  1
  O2-  O461  1  0.65767276  0.34463564  0.85137328  1
  O2-  O462  1  0.67244037  0.59327349  0.19733156  1
  O2-  O463  1  0.65657334  0.56522025  0.53726164  1
  O2-  O464  1  0.67384597  0.59345908  0.85742183  1
  O2-  O465  1  0.65620091  0.82119631  0.19372479  1
  O2-  O466  1  0.66447647  0.82352913  0.52934233  1
  O2-  O467  1  0.65782074  0.81665281  0.84914117  1
  O2-  O468  1  0.89551780  0.08383454  0.18611359  1
  O2-  O469  1  0.92480149  0.08500178  0.51944992  1
  O2-  O470  1  0.91921039  0.07672585  0.84839388  1
  O2-  O471  1  0.91343614  0.33544975  0.19029892  1
  O2-  O472  1  0.91692004  0.33867492  0.52036397  1
  O2-  O473  1  0.93226308  0.34310622  0.85245911  1
  O2-  O474  1  0.92539346  0.59413596  0.18766014  1
  O2-  O475  1  0.91782732  0.58286658  0.51642208  1
  O2-  O476  1  0.90339862  0.54538443  0.85713554  1
  O2-  O477  1  0.91854924  0.83706612  0.19709112  1
  O2-  O478  1  0.89621990  0.81371511  0.52088274  1
  O2-  O479  1  0.92144708  0.83214025  0.85517132  1
  O2-  O480  1  0.17656404  0.09096772  0.31024011  1
  O2-  O481  1  0.17322078  0.07794811  0.64363397  1
  O2-  O482  1  0.15561906  0.07719821  0.98074797  1
  O2-  O483  1  0.15045111  0.32610074  0.31597619  1
  O2-  O484  1  0.16506777  0.31017562  0.65091308  1
  O2-  O485  1  0.16746383  0.31580092  0.97618654  1
  O2-  O486  1  0.16293526  0.58590446  0.31009841  1
  O2-  O487  1  0.20378329  0.62483255  0.62883063  1
  O2-  O488  1  0.17195089  0.60803245  0.97909669  1
  O2-  O489  1  0.11544054  0.80313779  0.28628758  1
  O2-  O490  1  0.18844858  0.84510251  0.64250595  1
  O2-  O491  1  0.16904068  0.84387626  1.01738961  1
  O2-  O492  1  0.39930842  0.06858478  0.31271351  1
  O2-  O493  1  0.43059136  0.10252247  0.70003032  1
  O2-  O494  1  0.41130991  0.09031230  0.97902790  1
  O2-  O495  1  0.44401144  0.32475644  0.27983951  1
  O2-  O496  1  0.41547502  0.31915065  0.64277580  1
  O2-  O497  1  0.40534439  0.32877312  0.97687070  1
  O2-  O498  1  0.36818522  0.54046560  0.30286235  1
  O2-  O499  1  0.41751961  0.58275928  0.64876022  1
  O2-  O500  1  0.40583884  0.57991097  0.98270820  1
  O2-  O501  1  0.41208101  0.81629217  0.31042380  1
  O2-  O502  1  0.47872447  0.89391866  0.65865454  1
  O2-  O503  1  0.41664224  0.83862826  0.98925725  1
  O2-  O504  1  0.65938805  0.06666161  0.32353961  1
  O2-  O505  1  0.66741587  0.08035464  0.65385875  1
  O2-  O506  1  0.65345463  0.09261389  0.99597694  1
  O2-  O507  1  0.64406491  0.30177564  0.31960304  1
  O2-  O508  1  0.64251525  0.26530896  0.67145521  1
  O2-  O509  1  0.68710397  0.38243813  0.96984139  1
  O2-  O510  1  0.67619146  0.57689224  0.31943826  1
  O2-  O511  1  0.65527122  0.57011281  0.65652662  1
  O2-  O512  1  0.66281612  0.57902980  0.97924723  1
  O2-  O513  1  0.65253599  0.81292645  0.32012079  1
  O2-  O514  1  0.65400913  0.82446706  0.64906620  1
  O2-  O515  1  0.65511294  0.81377733  0.96961175  1
  O2-  O516  1  0.87318303  0.06092640  0.30563442  1
  O2-  O517  1  0.91710238  0.07896316  0.64403317  1
  O2-  O518  1  0.90752009  0.08358463  0.97323948  1
  O2-  O519  1  0.90428615  0.33050469  0.31447990  1
  O2-  O520  1  0.91538412  0.33271218  0.64122689  1
  O2-  O521  1  0.91948894  0.32841392  0.97780387  1
  O2-  O522  1  0.90802683  0.57520749  0.31206097  1
  O2-  O523  1  0.92516451  0.59044343  0.64354970  1
  O2-  O524  1  0.91694533  0.58156966  0.98600918  1
  O2-  O525  1  0.91444137  0.83175485  0.32186490  1
  O2-  O526  1  0.91741447  0.82950001  0.64801966  1
  O2-  O527  1  0.91422073  0.82527394  0.98160460  1
  O2-  O528  1  0.07483528  0.15982186  0.01714177  1
  O2-  O529  1  0.11425979  0.18624889  0.36581926  1
  O2-  O530  1  0.08041471  0.15110983  0.69076459  1
  O2-  O531  1  0.08255428  0.40420898  0.03003205  1
  O2-  O532  1  0.07434346  0.42083635  0.35043642  1
  O2-  O533  1  0.06322469  0.37315939  0.70109286  1
  O2-  O534  1  0.08593764  0.66509124  0.02770827  1
  O2-  O535  1  0.07654575  0.66291371  0.34870908  1
  O2-  O536  1  0.09626442  0.67662460  0.67737496  1
  O2-  O537  1  0.07229987  0.91749540  0.02801995  1
  O2-  O538  1  0.09017692  0.92605812  0.34503715  1
  O2-  O539  1  0.08673735  0.91291901  0.68200497  1
  O2-  O540  1  0.32282406  0.16693379  0.02112151  1
  O2-  O541  1  0.33801884  0.17469379  0.35122419  1
  O2-  O542  1  0.34161833  0.17461402  0.68917992  1
  O2-  O543  1  0.32169389  0.40396450  0.02258741  1
  O2-  O544  1  0.35759914  0.41111358  0.36552113  1
  O2-  O545  1  0.34392759  0.40442473  0.68754612  1
  O2-  O546  1  0.32575407  0.66930833  0.02325947  1
  O2-  O547  1  0.32164073  0.66036536  0.35103094  1
  O2-  O548  1  0.37713016  0.72437548  0.66542492  1
  O2-  O549  1  0.34467204  0.92759099  0.02996481  1
  O2-  O550  1  0.33447186  0.89545722  0.34876889  1
  O2-  O551  1  0.34683113  0.92619286  0.69763650  1
  O2-  O552  1  0.57565805  0.20032067  0.01793106  1
  O2-  O553  1  0.56018078  0.13541504  0.36016521  1
  O2-  O554  1  0.60196871  0.17501964  0.69718213  1
  O2-  O555  1  0.56378649  0.41696124  0.02923074  1
  O2-  O556  1  0.58684614  0.40532736  0.36399407  1
  O2-  O557  1  0.61419423  0.48121318  0.68072561  1
  O2-  O558  1  0.57388378  0.65281917  0.02316605  1
  O2-  O559  1  0.59059228  0.65856925  0.36397518  1
  O2-  O560  1  0.58358174  0.66513384  0.69521006  1
  O2-  O561  1  0.58103016  0.90039132  0.01389959  1
  O2-  O562  1  0.57430774  0.89890508  0.36122236  1
  O2-  O563  1  0.56283521  0.91458415  0.68476096  1
  O2-  O564  1  0.82965848  0.16558478  0.01610099  1
  O2-  O565  1  0.82066095  0.16565177  0.36141264  1
  O2-  O566  1  0.83931976  0.16668161  0.68067870  1
  O2-  O567  1  0.84670302  0.41864358  0.02305120  1
  O2-  O568  1  0.81241685  0.40313198  0.35372220  1
  O2-  O569  1  0.83993589  0.41722154  0.68019950  1
  O2-  O570  1  0.82697638  0.66028205  0.02406814  1
  O2-  O571  1  0.83795025  0.66520422  0.36075746  1
  O2-  O572  1  0.83300486  0.65885211  0.69238991  1
  O2-  O573  1  0.79665736  0.84830305  0.03682656  1
  O2-  O574  1  0.81290757  0.89859558  0.35873917  1
  O2-  O575  1  0.82877433  0.91217373  0.68493689  1
