# generated using pymatgen
data_H2O
_symmetry_space_group_name_H-M   'P 1'
_cell_length_a   17.99480971
_cell_length_b   17.99077184
_cell_length_c   22.00015869
_cell_angle_alpha   90.00462438
_cell_angle_beta   89.98433995
_cell_angle_gamma   119.98467530
_symmetry_Int_Tables_number   1
_chemical_formula_structural   H2O
_chemical_formula_sum   'H384 O192'
_cell_volume   6169.08176113
_cell_formula_units_Z   192
loop_
 _symmetry_equiv_pos_site_id
 _symmetry_equiv_pos_as_xyz
  1  'x, y, z'
loop_
 _atom_type_symbol
 _atom_type_oxidation_number
  H+  1.0
  O2-  -2.0
loop_
 _atom_site_type_symbol
 _atom_site_label
 _atom_site_symmetry_multiplicity
 _atom_site_fract_x
 _atom_site_fract_y
 _atom_site_fract_z
 _atom_site_occupancy
  H+  H0  1  0.10605894  0.46758169  0.82244485  1
  H+  H1  1  0.61410489  0.64938735  0.50168963  1
  H+  H2  1  0.77017926  0.37387876  0.15852042  1
  H+  H3  1  0.67678548  0.85659991  0.01965375  1
  H+  H4  1  0.69822926  0.52231179  0.62057161  1
  H+  H5  1  0.34038219  0.66763543  0.76303688  1
  H+  H6  1  0.65610957  0.54409486  0.78946199  1
  H+  H7  1  0.83871819  0.34771563  0.80473781  1
  H+  H8  1  0.14683442  0.14964811  0.77524885  1
  H+  H9  1  0.86412933  0.98840870  0.83749311  1
  H+  H10  1  0.64182880  0.25578439  0.32075084  1
  H+  H11  1  0.85022275  0.96946698  0.16239015  1
  H+  H12  1  0.27497827  0.62000305  0.14346980  1
  H+  H13  1  0.14567377  0.84752565  0.16306315  1
  H+  H14  1  0.38880640  0.61799815  0.98747594  1
  H+  H15  1  0.61159634  0.21401878  0.15540243  1
  H+  H16  1  0.22309647  0.60036352  0.33166240  1
  H+  H17  1  0.53766660  0.22296150  0.37506432  1
  H+  H18  1  0.88943123  0.89813112  0.66762376  1
  H+  H19  1  0.34264573  0.74553099  0.31329275  1
  H+  H20  1  0.35066301  0.48606196  0.16211718  1
  H+  H21  1  0.71339688  0.33383259  0.82069404  1
  H+  H22  1  0.88338151  0.66732546  0.83821789  1
  H+  H23  1  0.26967568  0.38996770  1.00520706  1
  H+  H24  1  0.49041491  0.36393848  0.18920743  1
  H+  H25  1  0.72011804  0.85508430  0.16675349  1
  H+  H26  1  0.64184418  0.10086406  0.32835035  1
  H+  H27  1  0.11372669  0.21278591  0.01453895  1
  H+  H28  1  0.24374963  0.38364752  0.16728717  1
  H+  H29  1  0.33816940  0.21653538  0.01085308  1
  H+  H30  1  0.14048961  0.35997802  0.00216520  1
  H+  H31  1  0.91795604  0.84800168  0.89149237  1
  H+  H32  1  0.35996094  0.46742753  0.49326936  1
  H+  H33  1  1.01258348  0.66314085  0.82344876  1
  H+  H34  1  1.00951597  0.86910035  0.64960554  1
  H+  H35  1  0.09008345  0.93637227  0.19064143  1
  H+  H36  1  0.46649864  0.37124629  0.33802592  1
  H+  H37  1  0.08128241  0.98863445  0.85949399  1
  H+  H38  1  0.96994165  0.10750979  0.83533070  1
  H+  H39  1  0.37345452  0.13770968  0.50199817  1
  H+  H40  1  0.73223298  0.36260050  0.64894206  1
  H+  H41  1  0.38067434  0.25811166  0.66406523  1
  H+  H42  1  0.34461866  0.61781067  0.33681859  1
  H+  H43  1  0.63883844  0.35543574  0.65394466  1
  H+  H44  1  0.14533453  0.51837553  0.66363737  1
  H+  H45  1  0.76957098  0.89038791  0.84289621  1
  H+  H46  1  0.10915897  0.65332628  0.23653683  1
  H+  H47  1  0.83611035  0.15552179  0.07506895  1
  H+  H48  1  0.13887916  0.27677933  0.17806721  1
  H+  H49  1  0.80743918  0.85177626  -0.00905107  1
  H+  H50  1  0.92653668  0.59597552  1.06066821  1
  H+  H51  1  0.85489003  0.37687543  0.00132556  1
  H+  H52  1  0.89269471  0.38977961  0.31815533  1
  H+  H53  1  0.36515437  0.97189302  0.83433498  1
  H+  H54  1  0.13691425  0.78411170  -0.02458473  1
  H+  H55  1  0.78535730  0.65240031  0.49286165  1
  H+  H56  1  0.38025494  0.76673541  0.84461024  1
  H+  H57  1  0.39660646  0.85276273  0.65361342  1
  H+  H58  1  0.64896345  0.37220102  0.97559008  1
  H+  H59  1  0.33515645  0.16762237  0.40310720  1
  H+  H60  1  0.81974645  0.65973354  0.74358489  1
  H+  H61  1  0.20925051  0.35103349  0.65742862  1
  H+  H62  1  0.38124666  0.59761129  0.66163538  1
  H+  H63  1  0.85038365  0.21380396  0.17784782  1
  H+  H64  1  0.61272883  -0.01915996  0.99652148  1
  H+  H65  1  0.35129056  0.89345516  0.01328601  1
  H+  H66  1  0.37609821  -0.03249030  0.66563352  1
  H+  H67  1  0.02249080  0.78802655  0.78133483  1
  H+  H68  1  0.86493623  0.37401142  0.66564931  1
  H+  H69  1  -0.02669967  0.86841586  0.82659475  1
  H+  H70  1  0.88425017  0.10915237  0.18238400  1
  H+  H71  1  0.11007714  -0.00389139  1.03081845  1
  H+  H72  1  0.86839558  0.74611803  0.82847728  1
  H+  H73  1  0.51548191  0.87377973  0.84096524  1
  H+  H74  1  0.15813696  0.54180656  0.98752846  1
  H+  H75  1  0.62824653  0.85023773  0.16630111  1
  H+  H76  1  0.56543920  0.38595958  0.73247656  1
  H+  H77  1  0.34413221  0.35446246  0.83431309  1
  H+  H78  1  0.90223749  0.52802660  0.31474190  1
  H+  H79  1  0.85616535  0.12471030  0.81688098  1
  H+  H80  1  0.77444285  0.24356792  0.95230550  1
  H+  H81  1  0.65944305  0.65766064  0.85872651  1
  H+  H82  1  0.71761337  0.61114601  0.17639572  1
  H+  H83  1  0.11297374  0.68680936  0.04526775  1
  H+  H84  1  0.27510353  0.37343583  0.48946065  1
  H+  H85  1  0.64029474  0.53512266  0.51003259  1
  H+  H86  1  0.62323746  0.13966257  0.66832623  1
  H+  H87  1  0.77602443  0.91856008  0.50778480  1
  H+  H88  1  0.46774930  0.60945467  0.50858192  1
  H+  H89  1  0.07730669  0.14061489  0.66544604  1
  H+  H90  1  0.59574807  0.43245414  0.82275704  1
  H+  H91  1  0.58223140  0.88434370  -0.02292076  1
  H+  H92  1  0.34085011  0.43895818  0.84614494  1
  H+  H93  1  0.51485110  0.91564916  0.28983021  1
  H+  H94  1  0.76913553  0.89637709  0.34598340  1
  H+  H95  1  0.65843810  0.78675240  0.66996229  1
  H+  H96  1  0.62525568  0.24800614  0.83542153  1
  H+  H97  1  0.76717921  0.12406105  0.16607306  1
  H+  H98  1  0.50901307  0.36527760  1.01892369  1
  H+  H99  1  0.26330391  0.88167725  0.34101012  1
  H+  H100  1  0.02748433  0.37994328  0.25246218  1
  H+  H101  1  0.13684227  0.11866932  0.33440019  1
  H+  H102  1  0.38222735  0.85828350  0.50567379  1
  H+  H103  1  0.15505165  0.83153502  0.68775548  1
  H+  H104  1  0.64110734  0.51323148  -0.00023301  1
  H+  H105  1  0.10283734  0.38580402  0.35063541  1
  H+  H106  1  0.38257944  0.35297079  0.49707694  1
  H+  H107  1  0.61062963  0.12011899  0.82327814  1
  H+  H108  1  0.26734888  0.90125572  1.00977528  1
  H+  H109  1  0.85613549  0.76899024  0.32033784  1
  H+  H110  1  0.01307738  0.37772993  0.67431908  1
  H+  H111  1  0.92430208  0.60229071  0.60843704  1
  H+  H112  1  0.67680877  0.35437181  0.31455238  1
  H+  H113  1  0.38000250  1.01423073  0.33467270  1
  H+  H114  1  -0.02115666  0.09950053  -0.00355654  1
  H+  H115  1  0.28113845  0.13885478  0.50580811  1
  H+  H116  1  0.63808054  0.87206176  0.51311975  1
  H+  H117  1  0.78824162  0.15313659  0.32926647  1
  H+  H118  1  0.47749568  0.11248090  0.50339488  1
  H+  H119  1  0.12221349  0.97804909  0.34050602  1
  H+  H120  1  0.41909372  0.55611456  0.80952916  1
  H+  H121  1  0.84051825  0.51593545  0.81085773  1
  H+  H122  1  0.12600854  0.36181566  0.65582714  1
  H+  H123  1  0.86409137  0.65047074  0.00578435  1
  H+  H124  1  0.35105998  0.87600033  0.83664742  1
  H+  H125  1  0.71382355  0.95738160  0.37756888  1
  H+  H126  1  0.13156466  0.60442000  0.81467371  1
  H+  H127  1  0.86834799  -0.02572054  0.66743053  1
  H+  H128  1  0.73145186  0.09966710  0.99493089  1
  H+  H129  1  0.84519654  0.23616771  0.98728172  1
  H+  H130  1  0.11843051  0.86172429  0.98228089  1
  H+  H131  1  0.22875740  0.12227887  0.33395451  1
  H+  H132  1  0.34726364  0.13277015  0.00889247  1
  H+  H133  1  0.49665865  0.13252496  0.34200175  1
  H+  H134  1  0.13229657  0.86881748  0.82061658  1
  H+  H135  1  0.47719417  0.35785691  0.50287675  1
  H+  H136  1  0.08366220  0.16756779  0.40563509  1
  H+  H137  1  0.13982945  0.36014912  0.20925428  1
  H+  H138  1  0.46959596  0.35784068  0.66711931  1
  H+  H139  1  0.01900199  0.13233587  0.34813271  1
  H+  H140  1  0.31646942  0.90508401  0.40346099  1
  H+  H141  1  0.51695542  0.89079552  0.67812964  1
  H+  H142  1  0.34891114  0.37868387  0.33748377  1
  H+  H143  1  0.12556434  0.79035450  0.54600623  1
  H+  H144  1  0.86564222  0.12081978  0.01716356  1
  H+  H145  1  0.62056956  0.47698951  0.16886119  1
  H+  H146  1  0.63896666  0.35518184  0.17263827  1
  H+  H147  1  0.35268255  0.46127293  0.67592639  1
  H+  H148  1  0.49064303  0.11137600  0.65397558  1
  H+  H149  1  0.76092018  0.65684825  0.86053599  1
  H+  H150  1  0.11874167  0.90687207  0.50802558  1
  H+  H151  1  0.60671107  0.24516363  0.00363805  1
  H+  H152  1  0.34814654  0.83659715  0.31488596  1
  H+  H153  1  0.36241180  0.51065882  0.32403465  1
  H+  H154  1  0.20155657  0.08004489  1.04478426  1
  H+  H155  1  0.03350679  0.64303653  0.00206690  1
  H+  H156  1  0.85221571  0.13612660  0.66333310  1
  H+  H157  1  0.11019846  0.39738032  0.51364295  1
  H+  H158  1  0.51874611  0.62917098  1.00810674  1
  H+  H159  1  0.60984035  -0.02234399  0.49640787  1
  H+  H160  1  0.60573333  0.71803817  0.16534968  1
  H+  H161  1  0.84481800  0.11473528  0.48098271  1
  H+  H162  1  0.60855583  0.61262030  0.64940888  1
  H+  H163  1  0.17777901  0.58515445  0.60893104  1
  H+  H164  1  0.60225309  0.45650345  0.67834722  1
  H+  H165  1  0.35803322  0.48227757  0.00426235  1
  H+  H166  1  0.60402102  0.96249795  0.15705679  1
  H+  H167  1  0.38082234  0.24971625  0.50009983  1
  H+  H168  1  0.40365364  0.11401335  0.65261900  1
  H+  H169  1  0.23051289  0.13964609  0.77640864  1
  H+  H170  1  0.61398948  0.49811307  0.34824845  1
  H+  H171  1  0.27354837  0.63266158  0.81825995  1
  H+  H172  1  0.13468631  0.53453662  0.51572746  1
  H+  H173  1  0.59794528  0.40298086  0.35507783  1
  H+  H174  1  -0.00684498  0.38895324  -0.02089295  1
  H+  H175  1  0.46352247  0.13059440  0.99817087  1
  H+  H176  1  0.78146676  0.39802752  0.47012425  1
  H+  H177  1  0.13620242  0.85763445  0.32402057  1
  H+  H178  1  0.15019576  0.03700218  0.51303717  1
  H+  H179  1  0.86114685  0.64743758  0.68248272  1
  H+  H180  1  0.45809134  0.84204029  0.16453649  1
  H+  H181  1  0.13848033  0.76859339  0.31221915  1
  H+  H182  1  0.72378597  0.11235715  0.49958853  1
  H+  H183  1  0.73313274  0.12146103  0.65773896  1
  H+  H184  1  0.84368180  -0.00707964  0.35288297  1
  H+  H185  1  0.97718403  0.36928996  1.01011655  1
  H+  H186  1  0.60333188  0.62137931  0.01558352  1
  H+  H187  1  0.38020159  0.37326825  0.00511976  1
  H+  H188  1  0.84256000  0.66648075  0.39819401  1
  H+  H189  1  0.02756335  0.61904251  0.73759445  1
  H+  H190  1  0.62744185  0.74136393  0.83904644  1
  H+  H191  1  0.03562220  0.91310789  0.49314002  1
  H+  H192  1  0.96061194  0.85379254  0.16209025  1
  H+  H193  1  0.14949964  0.62368110  0.97384733  1
  H+  H194  1  0.24433553  0.89196081  0.83637766  1
  H+  H195  1  0.68944856  0.53366276  0.77854505  1
  H+  H196  1  0.46753080  0.60575595  0.17754491  1
  H+  H197  1  0.09919792  0.01339589  0.83044812  1
  H+  H198  1  0.36207387  0.20382458  0.81205628  1
  H+  H199  1  0.37922448  0.77781186  0.99892889  1
  H+  H200  1  0.78021126  0.39560856  0.00055695  1
  H+  H201  1  0.16239215  0.13194407  0.51833211  1
  H+  H202  1  0.73517285  0.61125848  0.33196956  1
  H+  H203  1  0.87056914  0.63495235  0.33774814  1
  H+  H204  1  0.67374445  0.83471546  0.91440756  1
  H+  H205  1  0.37169590  0.71663653  0.66970271  1
  H+  H206  1  0.85370602  0.73458045  -0.00321304  1
  H+  H207  1  0.65288340  0.81884396  0.26147588  1
  H+  H208  1  0.84416470  0.49953310  0.84150116  1
  H+  H209  1  0.91967795  0.08386842  0.27460159  1
  H+  H210  1  0.54334439  0.64882979  0.83728346  1
  H+  H211  1  0.86408944  0.89331942  0.82815446  1
  H+  H212  1  0.35552501  0.63120496  0.49161042  1
  H+  H213  1  0.16509243  0.06398240  0.18409324  1
  H+  H214  1  0.51694417  0.87627159  0.28202832  1
  H+  H215  1  -0.01296653  0.86718936  -0.00987998  1
  H+  H216  1  0.73304374  0.59586404  0.67138909  1
  H+  H217  1  0.64220612  0.75803035  0.00570833  1
  H+  H218  1  0.87128297  0.35329598  0.20759831  1
  H+  H219  1  0.29422892  0.13105171  0.66213806  1
  H+  H220  1  0.63444416  0.09977514  0.16917724  1
  H+  H221  1  0.11965510  0.15369180  0.17181643  1
  H+  H222  1  0.87174766  0.76567956  0.16504833  1
  H+  H223  1  0.89147064  0.53120083  0.50242131  1
  H+  H224  1  0.26487268  0.88996856  0.51363017  1
  H+  H225  1  0.20876609  0.35986646  0.33627102  1
  H+  H226  1  0.84913737  0.88222963  0.15306981  1
  H+  H227  1  0.55672386  0.31590468  0.03943628  1
  H+  H228  1  0.11582900  0.70546487  0.74998940  1
  H+  H229  1  0.10535588  0.12162514  0.03551012  1
  H+  H230  1  0.38353820  0.10540281  0.14758352  1
  H+  H231  1  0.62680674  0.76454310  0.32453263  1
  H+  H232  1  0.12054896  0.65103641  0.51770548  1
  H+  H233  1  0.28250988  0.64316179  0.99428600  1
  H+  H234  1  0.22551231  0.62071546  0.50953979  1
  H+  H235  1  0.60138542  0.34630151  0.82286219  1
  H+  H236  1  0.37691470  0.10154272  0.32930393  1
  H+  H237  1  0.75536648  0.86246909  0.65840782  1
  H+  H238  1  0.12128798  0.27193200  0.33968247  1
  H+  H239  1  0.89686589  0.12787523  0.32895655  1
  H+  H240  1  0.46810299  0.33048980  0.84184709  1
  H+  H241  1  0.88802401  0.27495298  0.48325136  1
  H+  H242  1  0.61484675  0.39442167  0.49702114  1
  H+  H243  1  0.36433324  0.22956299  0.34498110  1
  H+  H244  1  0.97827615  0.61883662  0.51600127  1
  H+  H245  1  0.18057657  0.09657533  0.68542552  1
  H+  H246  1  0.59919747  0.68094347  0.61189902  1
  H+  H247  1  0.87732559  0.24264905  0.32351778  1
  H+  H248  1  0.89688196  0.79708775  0.49715611  1
  H+  H249  1  0.66534766  0.02626186  0.33217691  1
  H+  H250  1  0.12606305  0.50796344  0.33627278  1
  H+  H251  1  0.28953179  0.15612203  0.17134266  1
  H+  H252  1  0.62003349  0.22676068  0.66921817  1
  H+  H253  1  0.89786661  0.88683193  0.50428441  1
  H+  H254  1  0.14818003  0.72043138  0.18390897  1
  H+  H255  1  0.37191799  0.35279916  0.67086426  1
  H+  H256  1  0.86533710  0.51357294  0.17246038  1
  H+  H257  1  0.90135535  0.00558478  0.98441856  1
  H+  H258  1  0.88030379  0.25546648  0.82738086  1
  H+  H259  1  0.84328025  0.62622366  0.15850520  1
  H+  H260  1  0.95243022  0.11475495  0.64484473  1
  H+  H261  1  0.61325530  0.13544737  0.49398616  1
  H+  H262  1  0.91322687  0.33338267  0.72046726  1
  H+  H263  1  0.38951308  0.62084817  0.83164334  1
  H+  H264  1  0.67732232  0.59739376  0.56605487  1
  H+  H265  1  0.62376645  0.64302909  0.35050544  1
  H+  H266  1  0.86443664  0.23477386  0.67613687  1
  H+  H267  1  0.20341395  0.34017192  0.84531459  1
  H+  H268  1  0.80177331  0.37980622  0.32192831  1
  H+  H269  1  0.87193697  0.64936361  0.49639087  1
  H+  H270  1  0.15211649  0.50230175  0.08704003  1
  H+  H271  1  0.63814415  0.27793464  0.49842282  1
  H+  H272  1  1.01655503  0.37693138  0.82597393  1
  H+  H273  1  0.14236222  0.50443693  0.18506075  1
  H+  H274  1  0.35381389  0.97325171  0.50039542  1
  H+  H275  1  0.47370214  0.86261068  0.49832056  1
  H+  H276  1  0.08807301  0.22179348  0.81991341  1
  H+  H277  1  0.64093547  1.03331312  0.66030026  1
  H+  H278  1  0.36347517  0.11631981  0.81614226  1
  H+  H279  1  0.12165907  0.35401160  0.84414137  1
  H+  H280  1  0.46507633  0.58884719  0.64969822  1
  H+  H281  1  0.38219145  0.61214001  0.16674182  1
  H+  H282  1  0.63771226  0.86447473  0.85578377  1
  H+  H283  1  0.61305407  0.73812771  0.50187776  1
  H+  H284  1  0.16911051  0.86592522  0.89420893  1
  H+  H285  1  0.47710027  0.10291329  0.84092002  1
  H+  H286  1  0.63628501  0.01277261  0.84268913  1
  H+  H287  1  0.97404905  0.11209551  0.18189632  1
  H+  H288  1  0.84877017  0.42899237  0.41455201  1
  H+  H289  1  0.38265990  0.03349176  0.99755917  1
  H+  H290  1  0.34405721  0.95984542  0.10623540  1
  H+  H291  1  0.27997363  0.62762385  0.67438350  1
  H+  H292  1  0.14705041  0.94469624  0.67059435  1
  H+  H293  1  0.36070035  0.72302848  0.48853306  1
  H+  H294  1  0.67129642  0.31354981  0.22382861  1
  H+  H295  1  0.66996294  0.58362943  0.27425574  1
  H+  H296  1  0.15358652  0.32381700  0.93896115  1
  H+  H297  1  0.88511464  0.06314686  0.59053400  1
  H+  H298  1  0.14934770  0.59389807  0.16787333  1
  H+  H299  1  0.41856326  0.58392577  0.93013497  1
  H+  H300  1  0.89375246  0.52470831  1.01126054  1
  H+  H301  1  0.91832242  0.07916594  0.90069493  1
  H+  H302  1  0.52465035  0.12338068  0.14396322  1
  H+  H303  1  0.29978889  0.87792596  0.69170195  1
  H+  H304  1  0.33463556  0.17482789  0.10633315  1
  H+  H305  1  0.08024429  0.86648531  0.73295532  1
  H+  H306  1  0.57706607  0.16286126  0.43569153  1
  H+  H307  1  0.42553420  0.82192269  0.59465615  1
  H+  H308  1  0.07964647  0.17151945  0.11186899  1
  H+  H309  1  0.72505085  0.10180831  0.83187219  1
  H+  H310  1  0.42315688  0.36246462  0.94644308  1
  H+  H311  1  0.90162565  0.58252579  0.22625264  1
  H+  H312  1  0.87332382  0.46931429  0.67354513  1
  H+  H313  1  0.10090540  0.92543268  0.40112088  1
  H+  H314  1  0.58833495  0.67413354  0.40530861  1
  H+  H315  1  0.31899705  0.65252064  0.39798958  1
  H+  H316  1  0.31562078  0.42626579  0.09931538  1
  H+  H317  1  0.40317526  0.82513850  0.90591301  1
  H+  H318  1  0.35434230  0.16288919  0.72104715  1
  H+  H319  1  0.87726745  0.82553643  0.26271425  1
  H+  H320  1  0.89085773  0.30908530  0.88678769  1
  H+  H321  1  0.35886875  0.71801871  0.14761939  1
  H+  H322  1  0.33617407  0.66336377  0.05798714  1
  H+  H323  1  0.13887973  0.86009758  0.59675029  1
  H+  H324  1  0.10256042  0.70435188  0.46840581  1
  H+  H325  1  0.60143647  0.92342608  0.43779714  1
  H+  H326  1  0.39881295  0.26945970  0.89192632  1
  H+  H327  1  0.08710483  0.65945828  0.36516558  1
  H+  H328  1  0.03401550  0.86100617  0.05074658  1
  H+  H329  1  0.40118188  0.56890330  0.56335745  1
  H+  H330  1  0.38222258  0.80771042  0.21398546  1
  H+  H331  1  0.66211014  0.07022338  0.23040000  1
  H+  H332  1  0.82687463  0.15543208  0.75528855  1
  H+  H333  1  0.02120805  0.64556453  0.11536330  1
  H+  H334  1  0.83958991  0.40671953  0.10597789  1
  H+  H335  1  0.96262294  0.62233066  0.88399330  1
  H+  H336  1  0.02020971  0.68684016  0.11418172  1
  H+  H337  1  0.09223360  0.23609618  0.66113176  1
  H+  H338  1  0.08153242  0.40830284  0.72820749  1
  H+  H339  1  0.67448668  0.33917161  0.55518991  1
  H+  H340  1  0.13042148  0.60927655  0.31849371  1
  H+  H341  1  0.14585357  0.09900565  0.93067307  1
  H+  H342  1  0.80842019  0.37777997  0.74361559  1
  H+  H343  1  0.98937968  0.61697060  0.30740564  1
  H+  H344  1  0.67037249  0.08814719  0.56256510  1
  H+  H345  1  0.52343113  0.96323684  0.71908101  1
  H+  H346  1  0.40297707  0.27601299  0.18463253  1
  H+  H347  1  0.58159843  0.43283153  0.44436797  1
  H+  H348  1  0.02832311  0.36961757  0.18387928  1
  H+  H349  1  0.57406019  0.19218702  0.06629730  1
  H+  H350  1  0.88925464  0.36511924  0.47742445  1
  H+  H351  1  0.07624319  0.42324280  0.40729575  1
  H+  H352  1  0.57178692  0.65281229  0.10971191  1
  H+  H353  1  0.58217803  0.15339415  0.76390571  1
  H+  H354  1  0.17598621  0.76037603  0.66242328  1
  H+  H355  1  0.72540553  0.60746616  1.00456721  1
  H+  H356  1  0.10604356  0.96993370  0.12149491  1
  H+  H357  1  0.17947818  0.83698226  0.22660551  1
  H+  H358  1  0.58623327  0.41170856  0.11120544  1
  H+  H359  1  0.41651070  0.08356199  0.90053117  1
  H+  H360  1  0.41852417  0.33214752  0.27436165  1
  H+  H361  1  0.67773333  0.08015889  0.93226647  1
  H+  H362  1  0.02241894  0.39302259  0.49550277  1
  H+  H363  1  0.19021639  0.10686026  0.92391232  1
  H+  H364  1  0.07607214  0.43379621  0.04788848  1
  H+  H365  1  0.42339122  0.08328454  0.56517280  1
  H+  H366  1  0.67569914  0.33539190  0.91817026  1
  H+  H367  1  0.63295340  0.89599177  0.34326599  1
  H+  H368  1  0.62597868  0.60483199  0.18176866  1
  H+  H369  1  0.57573966  0.90792584  0.09596530  1
  H+  H370  1  0.32615242  0.41229253  0.39699744  1
  H+  H371  1  0.94848739  0.85825753  0.59378954  1
  H+  H372  1  0.05064881  0.17290005  0.75529343  1
  H+  H373  1  0.16179572  0.58473523  0.87933952  1
  H+  H374  1  0.18207390  0.11292342  0.24707278  1
  H+  H375  1  0.18286861  0.08078232  0.61163150  1
  H+  H376  1  0.81855731  0.66384152  0.09948110  1
  H+  H377  1  0.83194761  0.16338253  0.42460179  1
  H+  H378  1  0.31902910  0.40091511  0.73614865  1
  H+  H379  1  0.39213674  0.57297934  0.26624928  1
  H+  H380  1  0.57343808  0.90513094  0.78133005  1
  H+  H381  1  0.68556853  0.61149919  0.92029948  1
  H+  H382  1  0.67645970  0.84222996  0.56962654  1
  H+  H383  1  0.46190152  0.87125050  0.99738057  1
  O2-  O384  1  0.08252953  0.17679935  0.15709998  1
  O2-  O385  1  0.13206179  0.20712618  0.48476207  1
  O2-  O386  1  0.05884274  0.16456242  0.79952171  1
  O2-  O387  1  0.06871493  0.39643713  0.21729500  1
  O2-  O388  1  0.08764868  0.43076535  0.49430028  1
  O2-  O389  1  0.07802581  0.40494113  0.81306501  1
  O2-  O390  1  0.12186485  0.65774286  0.19302043  1
  O2-  O391  1  0.08971630  0.68491618  0.51034104  1
  O2-  O392  1  0.07257406  0.65163116  0.77039575  1
  O2-  O393  1  0.08237431  0.91839725  0.14820989  1
  O2-  O394  1  0.09897120  0.94167390  0.48498855  1
  O2-  O395  1  0.05859980  0.85032614  0.78138776  1
  O2-  O396  1  0.34543538  0.17424029  0.15077026  1
  O2-  O397  1  0.34208906  0.16952307  0.48797217  1
  O2-  O398  1  0.33757257  0.14657489  0.79343937  1
  O2-  O399  1  0.31255435  0.42505691  0.14470080  1
  O2-  O400  1  0.33628313  0.40729748  0.47751845  1
  O2-  O401  1  0.31513565  0.38663778  0.82164842  1
  O2-  O402  1  0.33574015  0.65627632  0.12997423  1
  O2-  O403  1  0.32526804  0.66129520  0.47656302  1
  O2-  O404  1  0.33644079  0.66569034  0.80921218  1
  O2-  O405  1  0.35937368  0.98567329  0.14783635  1
  O2-  O406  1  0.31899805  0.91090576  0.49077000  1
  O2-  O407  1  0.32590182  0.91102752  0.82193347  1
  O2-  O408  1  0.58774128  0.15622510  0.13599882  1
  O2-  O409  1  0.58100303  0.16545825  0.48077960  1
  O2-  O410  1  0.57783234  0.14866717  0.80937768  1
  O2-  O411  1  0.59409583  0.41514643  0.15586467  1
  O2-  O412  1  0.58093433  0.42437687  0.48960947  1
  O2-  O413  1  0.56289449  0.37236131  0.81020705  1
  O2-  O414  1  0.57250666  0.65448357  0.15474278  1
  O2-  O415  1  0.57785926  0.67521461  0.49247199  1
  O2-  O416  1  0.60513245  0.67991438  0.82713627  1
  O2-  O417  1  0.57351136  0.90266386  0.14056206  1
  O2-  O418  1  0.58166401  0.91714825  0.48133924  1
  O2-  O419  1  0.57677421  0.90184349  0.82642609  1
  O2-  O420  1  0.82961926  0.15954144  0.15476344  1
  O2-  O421  1  0.82428426  0.15485564  0.46944096  1
  O2-  O422  1  0.82532079  0.15383238  0.80210250  1
  O2-  O423  1  0.83359293  0.40708621  0.15059130  1
  O2-  O424  1  0.84304714  0.43124847  0.45968876  1
  O2-  O425  1  0.79183298  0.35310275  0.78581206  1
  O2-  O426  1  0.81574584  0.66111539  0.14429628  1
  O2-  O427  1  0.84541810  0.68157525  0.47821320  1
  O2-  O428  1  0.83820008  0.68154296  0.82514262  1
  O2-  O429  1  0.81780643  0.91293536  0.14217174  1
  O2-  O430  1  0.84087322  0.95256370  0.50222555  1
  O2-  O431  1  0.82856214  0.92326875  0.82292585  1
  O2-  O432  1  0.18838442  0.12164721  0.20035130  1
  O2-  O433  1  0.18691182  0.09623657  0.53198634  1
  O2-  O434  1  0.19503952  0.15424300  0.75064493  1
  O2-  O435  1  0.17657546  0.33688165  0.19399687  1
  O2-  O436  1  0.16278492  0.28477989  0.50312297  1
  O2-  O437  1  0.14467252  0.31717858  0.86162929  1
  O2-  O438  1  0.16790631  0.55097675  0.15455832  1
  O2-  O439  1  0.16765867  0.59612114  0.52916379  1
  O2-  O440  1  0.16263517  0.57810119  0.83439411  1
  O2-  O441  1  0.18162749  0.82766949  0.18200695  1
  O2-  O442  1  0.15504679  0.85273490  0.55455789  1
  O2-  O443  1  0.18412208  0.88673603  0.85076362  1
  O2-  O444  1  0.41551077  0.07598005  0.13330632  1
  O2-  O445  1  0.41707326  0.08464617  0.51935187  1
  O2-  O446  1  0.41636962  0.07669930  0.85531095  1
  O2-  O447  1  0.43038234  0.33339755  0.20414192  1
  O2-  O448  1  0.41341123  0.32159012  0.51146644  1
  O2-  O449  1  0.40647307  0.30497192  0.85625445  1
  O2-  O450  1  0.40468246  0.57677842  0.18698106  1
  O2-  O451  1  0.40526271  0.57274070  0.51810046  1
  O2-  O452  1  0.42268649  0.59070534  0.84471951  1
  O2-  O453  1  0.39522507  0.80790450  0.16965692  1
  O2-  O454  1  0.41407270  0.82766816  0.51492291  1
  O2-  O455  1  0.40974512  0.82675942  0.86060288  1
  O2-  O456  1  0.66205373  0.06737320  0.18504764  1
  O2-  O457  1  0.66433718  0.08546031  0.51725863  1
  O2-  O458  1  0.66741288  0.07527518  0.85243082  1
  O2-  O459  1  0.66584450  0.31841485  0.17917229  1
  O2-  O460  1  0.66933065  0.33992154  0.50990446  1
  O2-  O461  1  0.65634855  0.31147321  0.84477635  1
  O2-  O462  1  0.65943553  0.57693656  0.19555152  1
  O2-  O463  1  0.67291990  0.59718477  0.52136142  1
  O2-  O464  1  0.70652468  0.65022811  0.88370174  1
  O2-  O465  1  0.65813455  0.81958389  0.18078091  1
  O2-  O466  1  0.67326256  0.84496434  0.52394347  1
  O2-  O467  1  0.67481257  0.84004281  0.86906244  1
  O2-  O468  1  0.91400487  0.07814337  0.19676052  1
  O2-  O469  1  0.87055847  0.03777955  0.51626156  1
  O2-  O470  1  0.91102583  0.07574607  0.85526467  1
  O2-  O471  1  0.86602829  0.30131138  0.22725666  1
  O2-  O472  1  0.92463256  0.33783859  0.48374735  1
  O2-  O473  1  0.90803676  0.31601703  0.84344672  1
  O2-  O474  1  0.88607259  0.57475150  0.18208536  1
  O2-  O475  1  0.91548196  0.58694405  0.52441212  1
  O2-  O476  1  0.97657617  0.66954181  0.85614428  1
  O2-  O477  1  0.90116025  0.82788368  0.17631427  1
  O2-  O478  1  0.93091486  0.85746466  0.51125366  1
  O2-  O479  1  0.91586981  0.84862177  0.84456087  1
  O2-  O480  1  0.17026740  0.09344149  0.31525552  1
  O2-  O481  1  0.19741829  0.06907839  0.65277856  1
  O2-  O482  1  0.14024669  0.04820714  1.05721686  1
  O2-  O483  1  0.14634178  0.33283380  0.32776824  1
  O2-  O484  1  0.15145043  0.32649132  0.64007327  1
  O2-  O485  1  0.16417791  0.32635011  0.98412992  1
  O2-  O486  1  0.16108702  0.56796289  0.31434992  1
  O2-  O487  1  0.18399353  0.58004751  0.65331779  1
  O2-  O488  1  0.17893671  0.59247171  0.95977591  1
  O2-  O489  1  0.16901771  0.83211524  0.30491385  1
  O2-  O490  1  0.18434622  0.79551915  0.69828320  1
  O2-  O491  1  0.16139388  0.84618203  0.96645175  1
  O2-  O492  1  0.41211493  0.07494795  0.31922585  1
  O2-  O493  1  0.43022782  0.08015612  0.63797691  1
  O2-  O494  1  0.40679325  0.09173839  0.97871882  1
  O2-  O495  1  0.40953236  0.33125193  0.32060326  1
  O2-  O496  1  0.40623525  0.32517966  0.65431871  1
  O2-  O497  1  0.41019587  0.34251139  0.98848240  1
  O2-  O498  1  0.38771840  0.57151667  0.31114110  1
  O2-  O499  1  0.40158518  0.55877927  0.64423415  1
  O2-  O500  1  0.41646674  0.58305352  0.97493368  1
  O2-  O501  1  0.35107799  0.79456099  0.28779512  1
  O2-  O502  1  0.42621833  0.82008118  0.63997095  1
  O2-  O503  1  0.40082537  0.83806112  0.98425199  1
  O2-  O504  1  0.67778799  0.08133514  0.30914432  1
  O2-  O505  1  0.67151684  0.09051362  0.64092479  1
  O2-  O506  1  0.67322771  0.07728641  0.97741582  1
  O2-  O507  1  0.68762521  0.30940605  0.30043203  1
  O2-  O508  1  0.67004670  0.32957493  0.63473641  1
  O2-  O509  1  0.68347248  0.34614263  0.96333585  1
  O2-  O510  1  0.67252303  0.58333818  0.31968703  1
  O2-  O511  1  0.67704521  0.55266453  0.64565988  1
  O2-  O512  1  0.66374129  0.57389716  0.98998731  1
  O2-  O513  1  0.65022594  0.82319331  0.30622758  1
  O2-  O514  1  0.69370376  0.83263150  0.64186073  1
  O2-  O515  1  0.68228838  0.81834533  0.99085425  1
  O2-  O516  1  0.92175129  0.09008941  0.31992656  1
  O2-  O517  1  0.89072045  0.07608648  0.63540564  1
  O2-  O518  1  0.92041609  0.06706308  0.97769884  1
  O2-  O519  1  0.92235311  0.33184260  0.28157274  1
  O2-  O520  1  0.91443317  0.32678837  0.67657107  1
  O2-  O521  1  0.83573956  0.27625427  0.96096464  1
  O2-  O522  1  0.92488345  0.58873070  0.30215675  1
  O2-  O523  1  0.93584666  0.62870560  0.64966209  1
  O2-  O524  1  0.92437507  0.58914012  1.01639196  1
  O2-  O525  1  0.85812753  0.82120881  0.30501547  1
  O2-  O526  1  0.95185120  0.85971438  0.63850809  1
  O2-  O527  1  0.90083097  0.83243579  0.96258636  1
  O2-  O528  1  0.07603860  0.15631987  0.03372861  1
  O2-  O529  1  0.08127606  0.16235757  0.36106639  1
  O2-  O530  1  0.05150706  0.17456049  0.67794740  1
  O2-  O531  1  0.13847229  0.46989144  0.04711698  1
  O2-  O532  1  0.07758313  0.42319644  0.36261920  1
  O2-  O533  1  0.07887001  0.41106231  0.68342970  1
  O2-  O534  1  0.09788822  0.67803777  0.00213158  1
  O2-  O535  1  0.09388934  0.65761743  0.32144798  1
  O2-  O536  1  -0.05192968  0.56926408  0.68795049  1
  O2-  O537  1  0.04764449  0.88795570  0.01067714  1
  O2-  O538  1  0.09968103  0.91931452  0.35641582  1
  O2-  O539  1  0.11015862  0.88219903  0.67373231  1
  O2-  O540  1  0.31483426  0.15879942  0.02834859  1
  O2-  O541  1  0.33320374  0.16759284  0.35826158  1
  O2-  O542  1  0.35673768  0.17201290  0.67549143  1
  O2-  O543  1  0.32861211  0.42347158  0.02302044  1
  O2-  O544  1  0.31805850  0.40842702  0.35230756  1
  O2-  O545  1  0.32389647  0.40006306  0.69145327  1
  O2-  O546  1  0.34146438  0.67087539  0.01175355  1
  O2-  O547  1  0.31377218  0.64946528  0.35292024  1
  O2-  O548  1  0.34262160  0.65839176  0.68906098  1
  O2-  O549  1  0.32603354  0.92911992  0.02689690  1
  O2-  O550  1  0.32287741  0.91111464  0.35886901  1
  O2-  O551  1  0.36224157  0.91154038  0.68327111  1
  O2-  O552  1  0.55625690  0.21428385  0.03048847  1
  O2-  O553  1  0.55574800  0.18305394  0.36078963  1
  O2-  O554  1  0.59016213  0.16687267  0.68550672  1
  O2-  O555  1  0.56613070  0.37492660  0.03241061  1
  O2-  O556  1  0.57463064  0.43850040  0.36877163  1
  O2-  O557  1  0.56455175  0.39392468  0.68750287  1
  O2-  O558  1  0.57684754  0.65624463  0.02728584  1
  O2-  O559  1  0.59144251  0.67229453  0.36076736  1
  O2-  O560  1  0.57726201  0.64433204  0.64782893  1
  O2-  O561  1  0.57440283  0.91758126  0.00879043  1
  O2-  O562  1  0.65302090  0.94780443  0.37027884  1
  O2-  O563  1  0.55773517  0.93756149  0.70653092  1
  O2-  O564  1  0.83486796  0.15103266  0.02968945  1
  O2-  O565  1  0.84744375  0.18541256  0.34569207  1
  O2-  O566  1  0.82572364  0.16687844  0.68433613  1
  O2-  O567  1  0.83828069  0.41716301  0.01895751  1
  O2-  O568  1  0.86060345  0.41846337  0.33635739  1
  O2-  O569  1  0.83010870  0.40577690  0.67087524  1
  O2-  O570  1  0.82746906  0.67527353  0.01585756  1
  O2-  O571  1  0.83455983  0.65860744  0.35344696  1
  O2-  O572  1  0.81303847  0.65432364  0.69895110  1
  O2-  O573  1  0.87012542  0.88954740  -0.01247064  1
  O2-  O574  1  0.79415711  0.94534961  0.37425163  1
  O2-  O575  1  0.84903241  0.91619311  0.68401369  1
