# generated using pymatgen
data_H2O
_symmetry_space_group_name_H-M   'P 1'
_cell_length_a   17.98487385
_cell_length_b   17.98357751
_cell_length_c   21.99168875
_cell_angle_alpha   90.00931783
_cell_angle_beta   89.98795499
_cell_angle_gamma   119.98769157
_symmetry_Int_Tables_number   1
_chemical_formula_structural   H2O
_chemical_formula_sum   'H384 O192'
_cell_volume   6160.65004553
_cell_formula_units_Z   192
loop_
 _symmetry_equiv_pos_site_id
 _symmetry_equiv_pos_as_xyz
  1  'x, y, z'
loop_
 _atom_type_symbol
 _atom_type_oxidation_number
  H+  1.0
  O2-  -2.0
loop_
 _atom_site_type_symbol
 _atom_site_label
 _atom_site_symmetry_multiplicity
 _atom_site_fract_x
 _atom_site_fract_y
 _atom_site_fract_z
 _atom_site_occupancy
  H+  H0  1  0.65246551  0.78084213  0.14148622  1
  H+  H1  1  0.84113774  0.17331985  0.73701277  1
  H+  H2  1  0.38453059  0.59597219  0.48845425  1
  H+  H3  1  0.74843739  0.12457175  0.66212655  1
  H+  H4  1  0.38688358  0.52598292  0.83497050  1
  H+  H5  1  0.38715487  0.02859368  0.50539228  1
  H+  H6  1  0.87002509  0.72353538  0.81790033  1
  H+  H7  1  0.35964667  0.48065630  0.00258356  1
  H+  H8  1  0.73156257  0.36755974  0.49915738  1
  H+  H9  1  0.13151896  0.47479585  0.67936625  1
  H+  H10  1  0.97296862  0.60151566  0.83535940  1
  H+  H11  1  0.51317191  0.61889555  0.99678927  1
  H+  H12  1  0.65479915  0.40013863  0.32249977  1
  H+  H13  1  0.27535327  0.38285212  0.83671090  1
  H+  H14  1  0.37458847  0.34358616  0.67957959  1
  H+  H15  1  0.13733930  0.97260741  0.83471089  1
  H+  H16  1  0.52536670  0.39061420  0.99932341  1
  H+  H17  1  0.18741805  0.97374608  0.04741517  1
  H+  H18  1  0.85802125  0.97544945  0.49686721  1
  H+  H19  1  0.59332679  0.36977566  0.15933974  1
  H+  H20  1  0.07413805  0.40917821  -0.05031793  1
  H+  H21  1  0.43535273  0.13671778  0.99686375  1
  H+  H22  1  0.21709416  0.10155021  0.17649848  1
  H+  H23  1  0.46374621  0.33878414  0.16309025  1
  H+  H24  1  0.61724962  0.14610006  0.49918882  1
  H+  H25  1  0.61565140  0.39145021  0.49212336  1
  H+  H26  1  0.10448592  0.62871723  0.82762046  1
  H+  H27  1  0.15394067  0.39693082  0.49660094  1
  H+  H28  1  0.22098164  0.35981556  -0.00615242  1
  H+  H29  1  0.72622205  0.60001709  0.32574476  1
  H+  H30  1  1.02183515  0.13672603  0.34064673  1
  H+  H31  1  0.52355052  0.38994619  0.81689583  1
  H+  H32  1  0.63862644  0.23318895  0.02511538  1
  H+  H33  1  0.07895348  0.67161312  0.40128413  1
  H+  H34  1  0.61238986  0.12584575  0.66699488  1
  H+  H35  1  0.11033090  0.21720662  0.49316861  1
  H+  H36  1  0.46823410  0.85639436  0.32206315  1
  H+  H37  1  0.87942762  0.27163030  0.32374604  1
  H+  H38  1  0.37270270  0.01830015  0.82758640  1
  H+  H39  1  0.35934167  0.62937636  0.15955218  1
  H+  H40  1  0.57704456  0.56879686  0.14455828  1
  H+  H41  1  0.67578498  0.23783663  0.30075832  1
  H+  H42  1  0.32109298  0.49443401  0.30339017  1
  H+  H43  1  0.36242459  0.72524342  0.53090999  1
  H+  H44  1  0.88215667  0.86670776  0.50752453  1
  H+  H45  1  0.64053423  0.27989913  0.50012834  1
  H+  H46  1  0.08260542  0.66903137  0.09799033  1
  H+  H47  1  0.38597096  0.01881171  0.66074700  1
  H+  H48  1  0.72116212  0.86577446  0.50461719  1
  H+  H49  1  0.10900079  0.72762924  0.33970535  1
  H+  H50  1  0.88742974  0.11175208  0.32397767  1
  H+  H51  1  0.47262568  0.35748179  0.49858397  1
  H+  H52  1  0.88739838  0.51444452  0.49636218  1
  H+  H53  1  0.86773658  0.38719052  0.00763646  1
  H+  H54  1  0.35363363  0.21374087  0.67839412  1
  H+  H55  1  0.63773671  0.52113921  0.82841876  1
  H+  H56  1  0.23195152  0.36164274  0.17427420  1
  H+  H57  1  0.10652605  0.21439693  0.66889677  1
  H+  H58  1  0.72009243  0.35761844  0.82910974  1
  H+  H59  1  0.86188632  0.72309150  0.15791863  1
  H+  H60  1  0.87673055  1.01472018  0.66145000  1
  H+  H61  1  0.48798870  0.59843478  0.34184105  1
  H+  H62  1  0.10657931  0.88344095  0.33885053  1
  H+  H63  1  0.11549656  0.76662709  0.98080659  1
  H+  H64  1  0.38937030  0.73163356  0.75253415  1
  H+  H65  1  0.38613566  0.11992263  0.82894581  1
  H+  H66  1  0.86562677  0.38322004  0.33563404  1
  H+  H67  1  0.61676888  0.89490705  0.49188491  1
  H+  H68  1  0.52263715  0.12617142  0.66704299  1
  H+  H69  1  0.39120063  0.54328464  0.64732387  1
  H+  H70  1  0.89717574  0.27946743  0.65974568  1
  H+  H71  1  0.27355393  0.88365431  0.67116443  1
  H+  H72  1  0.25742894  0.09087946  1.00439462  1
  H+  H73  1  0.10566884  0.72926765  0.15668928  1
  H+  H74  1  0.86950858  0.47782543  1.00167427  1
  H+  H75  1  0.36099125  0.07078708  0.17139836  1
  H+  H76  1  0.13822979  0.85631091  0.66095789  1
  H+  H77  1  0.38270389  0.26753558  0.49568598  1
  H+  H78  1  0.13019192  0.36373767  -0.01132924  1
  H+  H79  1  0.63638061  0.26238766  0.65092851  1
  H+  H80  1  0.88032887  -0.01417945  0.83837042  1
  H+  H81  1  0.28603957  0.72537205  0.56089935  1
  H+  H82  1  0.62368469  0.85517688  0.66154364  1
  H+  H83  1  0.68519644  0.67385714  0.19490885  1
  H+  H84  1  0.63577011  0.63055428  0.66570044  1
  H+  H85  1  0.23630787  0.63414018  0.84478735  1
  H+  H86  1  0.11403549  0.12957288  0.82453334  1
  H+  H87  1  0.11452773  0.48683526  0.46469484  1
  H+  H88  1  0.22845539  0.61030452  0.65888997  1
  H+  H89  1  0.65517957  0.12999069  1.00570264  1
  H+  H90  1  0.33762980  0.91218128  0.18111184  1
  H+  H91  1  0.86613455  0.88648060  0.15816634  1
  H+  H92  1  0.20665475  0.60446367  0.33531903  1
  H+  H93  1  0.88384434  0.86171771  0.32989195  1
  H+  H94  1  0.63969305  0.77024267  0.83850660  1
  H+  H95  1  0.35135606  0.88825111  0.48964787  1
  H+  H96  1  0.63042108  0.61021585  0.50995228  1
  H+  H97  1  0.11460879  0.86436367  0.17731376  1
  H+  H98  1  -0.01721758  0.35427346  0.16758062  1
  H+  H99  1  0.83689813  0.87808113  -0.00352039  1
  H+  H100  1  0.87379203  0.47738433  0.33783584  1
  H+  H101  1  0.36726816  0.22697361  0.82434034  1
  H+  H102  1  0.91866500  0.33297369  0.26703618  1
  H+  H103  1  0.62643141  0.90906223  0.17032582  1
  H+  H104  1  0.30471022  0.59030179  0.65583330  1
  H+  H105  1  0.96811817  0.85984897  0.17368945  1
  H+  H106  1  0.77199461  0.12959990  0.16092177  1
  H+  H107  1  0.42351795  0.22426857  0.04859625  1
  H+  H108  1  0.63912627  0.35559019  1.00008989  1
  H+  H109  1  0.88780457  0.61008036  0.32462996  1
  H+  H110  1  0.26768357  0.12035848  0.67742565  1
  H+  H111  1  0.13134549  0.09898980  0.66224019  1
  H+  H112  1  0.66354658  0.78610584  0.33464456  1
  H+  H113  1  0.42204434  0.04437119  0.99922051  1
  H+  H114  1  0.39874094  0.84483598  0.15126136  1
  H+  H115  1  0.26782081  0.12859148  0.49462739  1
  H+  H116  1  0.85994567  0.13349293  0.82821261  1
  H+  H117  1  0.36781789  0.37451373  0.48651840  1
  H+  H118  1  0.34997522  0.90483574  0.01226722  1
  H+  H119  1  0.13540433  0.77715328  0.50498369  1
  H+  H120  1  0.97869988  0.61529555  0.32562396  1
  H+  H121  1  0.16191657  0.58855702  0.23889744  1
  H+  H122  1  0.75332794  0.38670425  0.67130350  1
  H+  H123  1  0.62174577  0.73329305  0.13968060  1
  H+  H124  1  0.76730439  0.62264743  0.00334176  1
  H+  H125  1  0.76812810  0.12454347  0.33544782  1
  H+  H126  1  0.38616756  0.36121229  0.83275038  1
  H+  H127  1  0.78139753  0.89642377  0.34465597  1
  H+  H128  1  0.33274380  0.89238717  0.82898484  1
  H+  H129  1  0.89481391  0.36571367  0.65307619  1
  H+  H130  1  0.37890094  0.45914292  0.15360784  1
  H+  H131  1  0.53377236  0.90469861  0.49218837  1
  H+  H132  1  0.50479010  0.09125726  0.35332113  1
  H+  H133  1  0.51064411  0.90001987  -0.01439962  1
  H+  H134  1  0.87463007  0.22862371  0.48590683  1
  H+  H135  1  0.25239847  0.38826058  0.67868981  1
  H+  H136  1  0.32306601  0.91999651  0.73379836  1
  H+  H137  1  0.66840554  0.57596099  0.92599861  1
  H+  H138  1  0.38438578  0.11216140  0.33171153  1
  H+  H139  1  0.61719160  0.63252517  0.82269710  1
  H+  H140  1  0.86142965  0.63318511  0.15931413  1
  H+  H141  1  0.32502185  0.61907481  0.31800145  1
  H+  H142  1  0.64789740  0.03793311  0.50338387  1
  H+  H143  1  0.72547467  0.85957554  0.84589561  1
  H+  H144  1  0.87018785  0.63574387  0.65897697  1
  H+  H145  1  0.13245108  1.01529514  0.50644106  1
  H+  H146  1  0.26439968  0.60829412  0.47940941  1
  H+  H147  1  0.21802118  0.85982220  0.32365261  1
  H+  H148  1  0.86733295  0.38662914  0.48588763  1
  H+  H149  1  0.40354096  0.46928482  0.34734392  1
  H+  H150  1  -0.00220045  0.91735496  0.02898828  1
  H+  H151  1  0.62817680  0.51799087  0.50935414  1
  H+  H152  1  0.72813442  0.61007559  0.83061475  1
  H+  H153  1  0.88701356  0.61156649  -0.00930862  1
  H+  H154  1  0.90858337  0.07494088  0.60243942  1
  H+  H155  1  0.14447317  0.39903352  0.83248141  1
  H+  H156  1  0.23106181  0.11130481  0.83952359  1
  H+  H157  1  0.62220102  0.08282226  0.33192795  1
  H+  H158  1  0.52814549  0.63453355  0.82175014  1
  H+  H159  1  0.52484653  0.63468179  0.49010788  1
  H+  H160  1  0.73205002  0.62102135  0.65562718  1
  H+  H161  1  0.97721952  0.35713242  0.99870778  1
  H+  H162  1  0.63130793  0.59956359  0.98476432  1
  H+  H163  1  0.07946989  0.16087796  0.43306154  1
  H+  H164  1  0.35435772  0.88130408  0.33224281  1
  H+  H165  1  0.36976320  0.78277504  0.83601963  1
  H+  H166  1  0.02994408  0.63059378  0.66850717  1
  H+  H167  1  0.11210144  0.47929039  0.36861261  1
  H+  H168  1  0.26825948  0.63413634  0.00697721  1
  H+  H169  1  0.71342848  0.85665815  0.65439356  1
  H+  H170  1  0.88655907  0.11282814  0.50684352  1
  H+  H171  1  0.34981097  0.71851277  0.33047807  1
  H+  H172  1  0.45706285  0.86792255  0.84628338  1
  H+  H173  1  0.78161715  0.46018696  0.71872832  1
  H+  H174  1  0.89056778  0.11080976  0.17199921  1
  H+  H175  1  0.65256201  0.65547603  0.34615789  1
  H+  H176  1  0.83613474  0.66281467  0.56494186  1
  H+  H177  1  0.47697079  0.10874781  0.82603230  1
  H+  H178  1  0.62636477  0.02515033  0.16941218  1
  H+  H179  1  0.52832999  0.88290250  0.16517390  1
  H+  H180  1  0.74569467  0.40374203  0.31845240  1
  H+  H181  1  0.86517676  0.13457953  0.00947415  1
  H+  H182  1  0.88405388  0.60276519  0.83512845  1
  H+  H183  1  0.97254565  0.10764533  0.50921440  1
  H+  H184  1  0.47785543  0.63400911  0.33758373  1
  H+  H185  1  0.11164484  0.64156553  0.49240244  1
  H+  H186  1  0.12983845  0.10836859  0.32792575  1
  H+  H187  1  0.55556847  0.14416155  0.02453092  1
  H+  H188  1  0.40120003  0.58595223  0.58343247  1
  H+  H189  1  0.28463255  0.47728359  0.70804786  1
  H+  H190  1  0.12464912  0.88836266  0.01033557  1
  H+  H191  1  0.35248480  0.19739262  0.16079053  1
  H+  H192  1  0.28440632  0.39108899  0.48921325  1
  H+  H193  1  0.37981776  0.34555485  0.32054656  1
  H+  H194  1  0.63198632  0.02335456  0.84696982  1
  H+  H195  1  1.01866932  0.88570717  0.49173708  1
  H+  H196  1  0.59403088  0.36572378  0.66284879  1
  H+  H197  1  0.38633355  0.10799438  0.66294800  1
  H+  H198  1  0.89691584  0.26517931  0.17583715  1
  H+  H199  1  0.36363054  0.77751919  0.99703992  1
  H+  H200  1  0.82749545  0.65847796  0.06268443  1
  H+  H201  1  0.85660144  0.87125778  0.66953116  1
  H+  H202  1  0.12458884  0.35177794  0.66160460  1
  H+  H203  1  0.59953852  0.47308707  0.33941875  1
  H+  H204  1  0.68322020  0.03007462  0.64140674  1
  H+  H205  1  0.13559604  0.11290510  0.99116879  1
  H+  H206  1  0.65723470  0.83543926  0.56239347  1
  H+  H207  1  0.11211789  0.96564256  0.67872312  1
  H+  H208  1  0.13357896  0.11398099  0.17346649  1
  H+  H209  1  0.97860155  0.11101682  0.99628455  1
  H+  H210  1  0.78277925  0.14387344  0.48962676  1
  H+  H211  1  0.37689379  0.84879391  0.68542977  1
  H+  H212  1  0.88259088  0.60151035  0.50570431  1
  H+  H213  1  0.32367934  0.41685532  0.77361746  1
  H+  H214  1  0.61680320  0.47403965  0.00161987  1
  H+  H215  1  0.61145274  0.38822472  0.81100686  1
  H+  H216  1  0.11210580  0.63457658  1.00668013  1
  H+  H217  1  1.02150735  0.63794401  0.49300176  1
  H+  H218  1  0.22781157  0.36156839  0.33150300  1
  H+  H219  1  0.11201790  0.22521235  0.34366736  1
  H+  H220  1  0.98391767  0.36614510  0.49117197  1
  H+  H221  1  0.38122520  0.61713654  0.98870350  1
  H+  H222  1  0.88149794  0.77717199  0.51445986  1
  H+  H223  1  0.95306667  0.88683927  1.01814994  1
  H+  H224  1  0.38142800  0.75239846  0.16789212  1
  H+  H225  1  0.66037666  0.58418144  0.59992508  1
  H+  H226  1  0.16139462  0.53687998  0.84310763  1
  H+  H227  1  0.27058824  0.63377983  0.16610455  1
  H+  H228  1  0.48325268  0.66540978  0.20925766  1
  H+  H229  1  0.79156259  0.91013703  0.16366208  1
  H+  H230  1  0.47876914  0.59451650  0.16265428  1
  H+  H231  1  0.02845703  0.14123199  0.16037535  1
  H+  H232  1  0.84320166  0.75202318  0.98265738  1
  H+  H233  1  0.63810361  0.86241480  0.33363674  1
  H+  H234  1  0.59803621  0.88178083  0.84431368  1
  H+  H235  1  0.91057997  0.86783543  0.83488882  1
  H+  H236  1  0.63673139  0.11904570  0.16624386  1
  H+  H237  1  0.97295192  0.61343450  0.16838297  1
  H+  H238  1  0.48202879  0.15221447  0.24729818  1
  H+  H239  1  0.97965372  0.86270689  0.66421969  1
  H+  H240  1  0.14292124  0.62852368  0.17980880  1
  H+  H241  1  0.13322321  0.86510257  0.50448602  1
  H+  H242  1  0.73070841  0.36282590  -0.00231244  1
  H+  H243  1  0.60541365  0.12735384  0.82520496  1
  H+  H244  1  0.38574971  0.37554714  0.98656798  1
  H+  H245  1  0.70246133  0.35108527  0.16645637  1
  H+  H246  1  0.11861655  0.22965885  0.16091703  1
  H+  H247  1  0.38108788  0.02343967  0.32062562  1
  H+  H248  1  0.88671028  0.26851940  0.00651456  1
  H+  H249  1  0.87793749  0.34653703  0.85120458  1
  H+  H250  1  0.14144472  0.26789234  0.84349988  1
  H+  H251  1  0.26334126  0.12735758  0.33786552  1
  H+  H252  1  0.60431838  0.97849249  -0.01588441  1
  H+  H253  1  0.13274988  0.02207187  0.99183356  1
  H+  H254  1  0.51471541  0.37892702  0.33830381  1
  H+  H255  1  0.11399300  0.22706529  0.00555811  1
  H+  H256  1  0.11353724  0.38048798  0.14029847  1
  H+  H257  1  0.01845190  0.12539259  0.67203603  1
  H+  H258  1  0.11732055  0.71740447  0.67257274  1
  H+  H259  1  0.86238316  0.72709126  0.33979043  1
  H+  H260  1  0.39524105  0.61827259  0.82378439  1
  H+  H261  1  0.70991870  0.84381830  1.00124448  1
  H+  H262  1  0.60730980  0.96555871  0.33102828  1
  H+  H263  1  1.02233550  0.63321718  1.00397520  1
  H+  H264  1  0.61304177  0.72302700  0.67120662  1
  H+  H265  1  0.57203970  0.40548496  0.71990145  1
  H+  H266  1  0.47092958  0.25255344  1.05410853  1
  H+  H267  1  0.37994275  0.25746748  0.32316483  1
  H+  H268  1  0.62939153  0.27103563  0.82380300  1
  H+  H269  1  0.61139481  0.72675237  0.49698891  1
  H+  H270  1  0.86312496  0.46838539  0.83277828  1
  H+  H271  1  0.64566041  0.24135088  0.32268128  1
  H+  H272  1  0.73435427  0.62756330  0.17223645  1
  H+  H273  1  0.11730572  0.60223425  0.33801287  1
  H+  H274  1  0.97146737  0.85950970  0.32766049  1
  H+  H275  1  0.13755657  0.51701394  -0.00644064  1
  H+  H276  1  0.30988732  0.04044527  0.01772992  1
  H+  H277  1  0.87089492  0.14187276  0.67756738  1
  H+  H278  1  0.77573528  0.13628660  0.00892314  1
  H+  H279  1  0.35944278  0.36351075  0.15374332  1
  H+  H280  1  0.39621281  0.51390701  0.49552474  1
  H+  H281  1  0.58331797  0.96013194  0.69172158  1
  H+  H282  1  0.66856352  0.58365414  0.26716982  1
  H+  H283  1  0.09985212  0.97687409  0.16525348  1
  H+  H284  1  0.03378977  0.39809392  0.67345538  1
  H+  H285  1  0.31018585  0.64290647  0.75017669  1
  H+  H286  1  0.88135568  0.52302477  0.65452752  1
  H+  H287  1  0.35924785  0.13335292  0.49289312  1
  H+  H288  1  0.90354777  0.31364988  0.91050538  1
  H+  H289  1  0.92496624  0.84216855  0.60123974  1
  H+  H290  1  0.83754750  0.66421740  0.75873196  1
  H+  H291  1  -0.01945171  0.11591788  0.84355420  1
  H+  H292  1  0.83090944  0.91761138  0.06096169  1
  H+  H293  1  0.91600529  0.58385043  0.22890336  1
  H+  H294  1  0.67687424  0.10255086  0.93973660  1
  H+  H295  1  0.24798635  0.90796033  0.82412529  1
  H+  H296  1  0.33050579  0.66468956  0.06421805  1
  H+  H297  1  0.17048482  0.58656908  0.94001827  1
  H+  H298  1  0.07844867  0.39989317  0.08023765  1
  H+  H299  1  0.14302549  0.36513197  0.34182162  1
  H+  H300  1  0.79632288  0.86612674  0.72383327  1
  H+  H301  1  0.68347125  0.09759350  0.56259187  1
  H+  H302  1  0.38690050  0.78669004  0.63953439  1
  H+  H303  1  0.66795571  0.35709024  0.23083249  1
  H+  H304  1  0.83474365  0.66618691  0.39777153  1
  H+  H305  1  0.60559401  0.70253367  0.00692176  1
  H+  H306  1  0.84030825  0.47035242  0.15541909  1
  H+  H307  1  0.83253163  0.91851861  0.43624605  1
  H+  H308  1  0.08232488  0.91863187  0.10557499  1
  H+  H309  1  0.26523928  0.89093076  0.48989797  1
  H+  H310  1  0.92329392  0.08418233  0.26603886  1
  H+  H311  1  0.07444108  0.65129367  0.76557255  1
  H+  H312  1  0.83165659  0.15567209  0.10151413  1
  H+  H313  1  0.33227535  0.16126553  0.76643468  1
  H+  H314  1  0.40884671  0.58684290  0.92784424  1
  H+  H315  1  0.33582516  0.41709906  0.06090211  1
  H+  H316  1  0.32527331  0.91411509  0.39026100  1
  H+  H317  1  0.20829906  0.87835758  0.17763856  1
  H+  H318  1  0.08781445  0.16788624  0.06526318  1
  H+  H319  1  0.76259526  0.63038198  0.51720850  1
  H+  H320  1  0.07742943  0.91388084  0.43147514  1
  H+  H321  1  0.41539244  0.08367123  0.56694695  1
  H+  H322  1  0.87136341  0.72772746  0.66274021  1
  H+  H323  1  0.65007744  0.81120632  0.94414460  1
  H+  H324  1  0.38949896  0.28941031  0.98946248  1
  H+  H325  1  0.81699265  0.41558021  0.09519123  1
  H+  H326  1  0.50347387  0.86541186  0.68925166  1
  H+  H327  1  0.58036882  0.41965011  0.43449316  1
  H+  H328  1  0.41024502  0.82731435  0.26210362  1
  H+  H329  1  0.16772303  0.32370988  0.90604452  1
  H+  H330  1  0.57757795  0.15277285  0.76198022  1
  H+  H331  1  0.32193863  0.15773976  0.39831285  1
  H+  H332  1  0.93436996  0.33969995  0.55507071  1
  H+  H333  1  0.57760375  0.91521037  0.39351478  1
  H+  H334  1  0.31302951  0.12540517  0.10799957  1
  H+  H335  1  0.52586570  0.14289240  0.49910492  1
  H+  H336  1  0.15671067  0.07795540  0.26704941  1
  H+  H337  1  0.22517545  0.45140784  0.54299602  1
  H+  H338  1  0.83845067  0.41615473  0.42512127  1
  H+  H339  1  0.69977028  0.88075790  0.25006531  1
  H+  H340  1  0.87810148  0.94793087  0.77498195  1
  H+  H341  1  0.54596086  0.59374414  0.08352400  1
  H+  H342  1  0.56790904  0.40191624  0.09887139  1
  H+  H343  1  0.08280797  0.16029204  0.76669496  1
  H+  H344  1  0.16686185  0.07991334  0.89687715  1
  H+  H345  1  0.55252800  0.22655275  0.20482837  1
  H+  H346  1  0.40416782  0.30915766  0.22299316  1
  H+  H347  1  0.56929530  0.12458683  0.40912506  1
  H+  H348  1  0.90838253  0.82780855  0.23320595  1
  H+  H349  1  0.34108828  0.41412591  0.40043057  1
  H+  H350  1  0.91725007  0.58217198  0.93084318  1
  H+  H351  1  0.72189821  0.11068987  0.83787327  1
  H+  H352  1  0.13366868  0.10435318  0.50900555  1
  H+  H353  1  0.83611387  0.40698587  0.77530958  1
  H+  H354  1  0.10563666  0.97260419  0.33805059  1
  H+  H355  1  0.87291001  0.98234870  0.34243227  1
  H+  H356  1  0.41834573  0.33463898  0.89121848  1
  H+  H357  1  0.83134884  0.15862175  0.39345039  1
  H+  H358  1  0.57168931  0.90374654  0.78156299  1
  H+  H359  1  0.16910982  0.83312899  0.59935621  1
  H+  H360  1  0.32296390  0.64438681  0.42003242  1
  H+  H361  1  0.65933402  0.07810638  0.26520916  1
  H+  H362  1  0.99269335  0.85534701  0.84147515  1
  H+  H363  1  0.92198701  0.08807989  0.90440422  1
  H+  H364  1  0.90094641  0.02713315  0.16939229  1
  H+  H365  1  0.62575898  0.68617903  0.40715322  1
  H+  H366  1  0.88609166  0.02275799  0.99349920  1
  H+  H367  1  0.09062141  0.90415535  0.73682545  1
  H+  H368  1  0.11011009  0.42767089  0.77524229  1
  H+  H369  1  0.85717041  0.22099379  0.83332728  1
  H+  H370  1  0.36557563  0.55597624  0.24696343  1
  H+  H371  1  0.91930302  0.57519324  0.59204345  1
  H+  H372  1  0.88022541  0.80991510  0.92373658  1
  H+  H373  1  0.15231038  0.83030378  0.26731394  1
  H+  H374  1  0.38285616  0.83535407  0.93818300  1
  H+  H375  1  0.16895781  0.33789371  0.23149582  1
  H+  H376  1  0.16149925  0.33488812  0.60080471  1
  H+  H377  1  0.74248025  0.97386712  0.22228088  1
  H+  H378  1  0.46027559  0.34221391  0.66447070  1
  H+  H379  1  0.59241677  0.66490679  0.73342497  1
  H+  H380  1  0.66770535  0.32687050  0.59248116  1
  H+  H381  1  0.13436898  0.83354044  0.92414319  1
  H+  H382  1  0.33999585  0.94735227  0.07331975  1
  H+  H383  1  0.16134320  0.06817485  0.60381249  1
  O2-  O384  1  0.08894439  0.16938779  0.14475125  1
  O2-  O385  1  0.07860260  0.15783574  0.47927359  1
  O2-  O386  1  0.08395562  0.16115877  0.81202145  1
  O2-  O387  1  0.07829058  0.40407656  0.12462133  1
  O2-  O388  1  0.09086891  0.42440199  0.45324616  1
  O2-  O389  1  0.13094073  0.44297992  0.81723171  1
  O2-  O390  1  0.07981600  0.66860526  0.14362031  1
  O2-  O391  1  0.08264675  0.67366684  0.47926793  1
  O2-  O392  1  0.06666841  0.64869146  0.81061574  1
  O2-  O393  1  0.06885849  0.91565466  0.15033324  1
  O2-  O394  1  0.07933065  0.91429827  0.47723472  1
  O2-  O395  1  0.10934913  0.91157082  0.81933907  1
  O2-  O396  1  0.31591694  0.13405435  0.15269058  1
  O2-  O397  1  0.32608031  0.15944263  0.47573825  1
  O2-  O398  1  0.33702242  0.16433536  0.81251211  1
  O2-  O399  1  0.33523480  0.40175260  0.14077659  1
  O2-  O400  1  0.34099800  0.41109280  0.47000446  1
  O2-  O401  1  0.33457906  0.41663201  0.81807233  1
  O2-  O402  1  0.32837071  0.65828820  0.14451408  1
  O2-  O403  1  0.32451938  0.63492618  0.46497876  1
  O2-  O404  1  0.35370908  0.68321905  0.77988223  1
  O2-  O405  1  0.31933362  0.94629782  0.15732650  1
  O2-  O406  1  0.32626677  0.92147481  0.47382989  1
  O2-  O407  1  0.31220890  0.92920056  0.81017359  1
  O2-  O408  1  0.49514273  0.17438202  0.20560007  1
  O2-  O409  1  0.58584699  0.17434373  0.48298089  1
  O2-  O410  1  0.57072693  0.15216525  0.80702271  1
  O2-  O411  1  0.55748834  0.39434265  0.14332364  1
  O2-  O412  1  0.58310562  0.42083821  0.48022837  1
  O2-  O413  1  0.58245787  0.42226859  0.79949208  1
  O2-  O414  1  0.52572865  0.56300241  0.12368303  1
  O2-  O415  1  0.58850491  0.66689035  0.48222998  1
  O2-  O416  1  0.58873637  0.66487262  0.80665785  1
  O2-  O417  1  0.58665838  0.92534266  0.15147322  1
  O2-  O418  1  0.59207172  0.93114966  0.47626245  1
  O2-  O419  1  0.56836610  0.91039870  0.82594113  1
  O2-  O420  1  0.83206387  0.15194834  0.14743856  1
  O2-  O421  1  0.84250988  0.16668600  0.47407415  1
  O2-  O422  1  0.82947633  0.16235319  0.81140409  1
  O2-  O423  1  0.80373961  0.41207174  0.13933483  1
  O2-  O424  1  0.83673095  0.41665240  0.47191859  1
  O2-  O425  1  0.83313841  0.40610572  0.81992676  1
  O2-  O426  1  0.82960468  0.66248808  0.14314782  1
  O2-  O427  1  0.82757728  0.66308079  0.52093807  1
  O2-  O428  1  0.83512319  0.66273822  0.80353623  1
  O2-  O429  1  0.84509267  0.92439588  0.14108801  1
  O2-  O430  1  0.82705379  0.91470311  0.48194145  1
  O2-  O431  1  0.85887145  0.92865777  0.81647224  1
  O2-  O432  1  0.15600837  0.07727833  0.19101165  1
  O2-  O433  1  0.16359547  0.07446258  0.52462965  1
  O2-  O434  1  0.16924543  0.07748586  0.85123573  1
  O2-  O435  1  0.17063799  0.33284591  0.18688992  1
  O2-  O436  1  0.19433180  0.39322580  0.52632443  1
  O2-  O437  1  0.17463681  0.32719250  0.86000735  1
  O2-  O438  1  0.18402009  0.61382305  0.19870469  1
  O2-  O439  1  0.15877186  0.57607882  0.51191934  1
  O2-  O440  1  0.17843800  0.59594936  0.85987748  1
  O2-  O441  1  0.14921293  0.83690408  0.19074689  1
  O2-  O442  1  0.16713339  0.83825950  0.51929661  1
  O2-  O443  1  0.15931707  0.87549957  0.84741400  1
  O2-  O444  1  0.38507915  0.03187959  0.18060711  1
  O2-  O445  1  0.41812672  0.08821583  0.52148900  1
  O2-  O446  1  0.41361879  0.08270836  0.84012142  1
  O2-  O447  1  0.40042783  0.30582947  0.17788791  1
  O2-  O448  1  0.41031947  0.32886611  0.50814540  1
  O2-  O449  1  0.41684450  0.33012331  0.84594591  1
  O2-  O450  1  0.44223198  0.61135528  0.19019077  1
  O2-  O451  1  0.42098565  0.57516318  0.50876746  1
  O2-  O452  1  0.42069272  0.58844060  0.84585456  1
  O2-  O453  1  0.41434167  0.81564569  0.18159371  1
  O2-  O454  1  0.34857795  0.75960966  0.55884747  1
  O2-  O455  1  0.39380219  0.84047293  0.85352063  1
  O2-  O456  1  0.66071471  0.08653885  0.18507721  1
  O2-  O457  1  0.67927641  0.09874505  0.51760393  1
  O2-  O458  1  0.66237808  0.08642502  0.85419461  1
  O2-  O459  1  0.64764417  0.32779124  0.19026798  1
  O2-  O460  1  0.67195330  0.34035352  0.51604111  1
  O2-  O461  1  0.65729306  0.33403371  0.82565496  1
  O2-  O462  1  0.67845664  0.61674963  0.19173819  1
  O2-  O463  1  0.65811962  0.57799387  0.52747559  1
  O2-  O464  1  0.66785558  0.58117783  0.84582465  1
  O2-  O465  1  0.71543907  0.91374374  0.21017955  1
  O2-  O466  1  0.65912365  0.83738762  0.51702413  1
  O2-  O467  1  0.66414631  0.82901234  0.85596188  1
  O2-  O468  1  0.92618614  0.08577046  0.18793038  1
  O2-  O469  1  0.91257692  0.07949373  0.52494633  1
  O2-  O470  1  0.91991934  0.08524232  0.85845390  1
  O2-  O471  1  0.93001175  0.32349165  0.19284187  1
  O2-  O472  1  0.92647322  0.33485818  0.51037459  1
  O2-  O473  1  0.90154545  0.31005366  0.86512803  1
  O2-  O474  1  0.91263957  0.58603275  0.18372452  1
  O2-  O475  1  0.91787048  0.57469445  0.51439103  1
  O2-  O476  1  0.91150256  0.57146755  0.85235820  1
  O2-  O477  1  0.90670598  0.82678950  0.18780138  1
  O2-  O478  1  0.91565988  0.83966624  0.52344679  1
  O2-  O479  1  0.92959163  0.82668439  0.84696431  1
  O2-  O480  1  0.15784523  0.07601706  0.31280631  1
  O2-  O481  1  0.16071359  0.06686656  0.64933373  1
  O2-  O482  1  0.16213048  0.08029531  0.97282570  1
  O2-  O483  1  0.16688456  0.33348533  0.31989217  1
  O2-  O484  1  0.15412693  0.32109054  0.64469824  1
  O2-  O485  1  0.16093244  0.32614224  0.97929818  1
  O2-  O486  1  0.14384521  0.56633380  0.32774438  1
  O2-  O487  1  0.15381409  0.55765218  0.57103175  1
  O2-  O488  1  0.16736696  0.58171799  0.98518326  1
  O2-  O489  1  0.15536853  0.82972736  0.31289263  1
  O2-  O490  1  0.17191387  0.83050976  0.64453979  1
  O2-  O491  1  0.13092382  0.82584776  0.96890701  1
  O2-  O492  1  0.41938920  0.08644505  0.31784003  1
  O2-  O493  1  0.41764690  0.07953937  0.64561267  1
  O2-  O494  1  0.46073910  0.10294535  0.98264156  1
  O2-  O495  1  0.41121863  0.31718109  0.30561449  1
  O2-  O496  1  0.39529574  0.30952475  0.65923047  1
  O2-  O497  1  0.41620913  0.34524828  0.96953986  1
  O2-  O498  1  0.31915826  0.53774875  0.27748432  1
  O2-  O499  1  0.39099774  0.59189091  0.62745069  1
  O2-  O500  1  0.40765403  0.58305664  0.97295890  1
  O2-  O501  1  0.40747544  0.82761523  0.30724071  1
  O2-  O502  1  0.40327877  0.81112096  0.68105661  1
  O2-  O503  1  0.38243988  0.83711402  0.98314599  1
  O2-  O504  1  0.66248931  0.06772362  0.30940500  1
  O2-  O505  1  0.68938184  0.08708808  0.64268574  1
  O2-  O506  1  0.68203688  0.09786438  0.98403349  1
  O2-  O507  1  0.70185312  0.40956689  0.29486056  1
  O2-  O508  1  0.66485529  0.32361744  0.63814191  1
  O2-  O509  1  0.66889842  0.32431721  0.98795493  1
  O2-  O510  1  0.66578172  0.57589934  0.31224144  1
  O2-  O511  1  0.66912739  0.59466403  0.64569519  1
  O2-  O512  1  0.66714928  0.57399740  0.97131759  1
  O2-  O513  1  0.67989871  0.84543817  0.31817345  1
  O2-  O514  1  0.65223649  0.82619627  0.64147202  1
  O2-  O515  1  0.65243704  0.79876471  0.98744787  1
  O2-  O516  1  0.92186502  0.08383555  0.31168234  1
  O2-  O517  1  0.90900290  0.07512086  0.64821514  1
  O2-  O518  1  0.91913105  0.08418564  0.97932808  1
  O2-  O519  1  0.90919402  0.33272199  0.31216274  1
  O2-  O520  1  0.92779326  0.33835796  0.64119223  1
  O2-  O521  1  0.91411048  0.32781139  0.98895505  1
  O2-  O522  1  0.91916229  0.58206570  0.30849403  1
  O2-  O523  1  0.91743466  0.58162386  0.63723720  1
  O2-  O524  1  0.92010233  0.58375776  0.97626762  1
  O2-  O525  1  0.91017340  0.82814170  0.31341994  1
  O2-  O526  1  0.91997892  0.83518012  0.64664106  1
  O2-  O527  1  0.84363534  0.79979199  0.95961173  1
  O2-  O528  1  0.08600455  0.16528922  0.01984412  1
  O2-  O529  1  0.08148220  0.16453784  0.35839329  1
  O2-  O530  1  0.07934637  0.15494596  0.68578684  1
  O2-  O531  1  0.08714316  0.41182410  -0.00696045  1
  O2-  O532  1  0.09836547  0.42092088  0.38652584  1
  O2-  O533  1  0.09091337  0.41528628  0.69136551  1
  O2-  O534  1  0.08276392  0.66686210  0.01946528  1
  O2-  O535  1  0.07766563  0.66744579  0.35592955  1
  O2-  O536  1  0.08762746  0.65719664  0.68694894  1
  O2-  O537  1  0.12659558  0.93691159  0.03708667  1
  O2-  O538  1  0.07469718  0.91232007  0.35431514  1
  O2-  O539  1  0.08103584  0.90402590  0.69230612  1
  O2-  O540  1  0.29706648  0.08440574  0.03280814  1
  O2-  O541  1  0.32400817  0.15845575  0.35278283  1
  O2-  O542  1  0.32794775  0.15126449  0.69270934  1
  O2-  O543  1  0.33387828  0.41924089  0.01563453  1
  O2-  O544  1  0.34626390  0.41990885  0.35351570  1
  O2-  O545  1  0.30327989  0.43556861  0.70007775  1
  O2-  O546  1  0.33087893  0.66876585  0.01906827  1
  O2-  O547  1  0.31584726  0.65839774  0.34562622  1
  O2-  O548  1  0.25603855  0.58454271  0.68243646  1
  O2-  O549  1  0.34005838  0.95114784  0.02869340  1
  O2-  O550  1  0.32247346  0.91094640  0.34522352  1
  O2-  O551  1  0.33282604  0.91471554  0.68952541  1
  O2-  O552  1  0.61454796  0.17323479  0.04199270  1
  O2-  O553  1  0.55106831  0.08522155  0.37387589  1
  O2-  O554  1  0.58376571  0.15680638  0.68199639  1
  O2-  O555  1  0.58247914  0.41456404  0.01845428  1
  O2-  O556  1  0.57140084  0.41487191  0.35845752  1
  O2-  O557  1  0.56126864  0.39363060  0.67561908  1
  O2-  O558  1  0.57086287  0.63772131  0.01466352  1
  O2-  O559  1  0.65602351  0.70579501  0.36762636  1
  O2-  O560  1  0.59469181  0.66434829  0.68713056  1
  O2-  O561  1  0.56880372  0.91823134  -0.02888970  1
  O2-  O562  1  0.57444373  0.90580041  0.34899194  1
  O2-  O563  1  0.56822363  0.90052247  0.69794054  1
  O2-  O564  1  0.83577988  0.16374643  0.02763978  1
  O2-  O565  1  0.82976769  0.15562400  0.34826600  1
  O2-  O566  1  0.84375658  0.17599089  0.69066805  1
  O2-  O567  1  0.83664679  0.41852165  0.01824851  1
  O2-  O568  1  0.83968558  0.41786084  0.35409750  1
  O2-  O569  1  0.80581148  0.43183970  0.69452376  1
  O2-  O570  1  0.82831889  0.65707897  0.01737671  1
  O2-  O571  1  0.83455986  0.66524431  0.35352193  1
  O2-  O572  1  0.83583861  0.66440939  0.67018231  1
  O2-  O573  1  0.82283908  0.91996304  0.01640003  1
  O2-  O574  1  0.84213398  0.92268611  0.35972902  1
  O2-  O575  1  0.81843781  0.89421542  0.68458272  1
