# generated using pymatgen
data_H2O
_symmetry_space_group_name_H-M   'P 1'
_cell_length_a   17.98992055
_cell_length_b   17.98668244
_cell_length_c   22.00682687
_cell_angle_alpha   89.96481419
_cell_angle_beta   89.99803921
_cell_angle_gamma   120.00866180
_symmetry_Int_Tables_number   1
_chemical_formula_structural   H2O
_chemical_formula_sum   'H384 O192'
_cell_volume   6166.38082687
_cell_formula_units_Z   192
loop_
 _symmetry_equiv_pos_site_id
 _symmetry_equiv_pos_as_xyz
  1  'x, y, z'
loop_
 _atom_type_symbol
 _atom_type_oxidation_number
  H+  1.0
  O2-  -2.0
loop_
 _atom_site_type_symbol
 _atom_site_label
 _atom_site_symmetry_multiplicity
 _atom_site_fract_x
 _atom_site_fract_y
 _atom_site_fract_z
 _atom_site_occupancy
  H+  H0  1  0.12561857  0.64169383  0.02121213  1
  H+  H1  1  0.86420771  0.35989073  0.81782240  1
  H+  H2  1  0.86683771  0.61356138  0.48099009  1
  H+  H3  1  0.91332083  0.57365682  0.81207536  1
  H+  H4  1  0.35846851  0.71192365  0.35194715  1
  H+  H5  1  0.12794495  0.13575499  0.83547830  1
  H+  H6  1  0.84505039  0.62531734  0.99789935  1
  H+  H7  1  0.13007550  0.75986020  0.30625195  1
  H+  H8  1  0.36629861  0.13475213  0.01419863  1
  H+  H9  1  0.48101362  0.60684787  0.65844653  1
  H+  H10  1  0.87257096  0.87614412  0.82655382  1
  H+  H11  1  0.57974146  0.65033763  0.10412741  1
  H+  H12  1  0.16838526  0.83029527  0.93472799  1
  H+  H13  1  0.87170862  0.51312341  0.16809304  1
  H+  H14  1  1.02486875  0.13400758  0.16657854  1
  H+  H15  1  0.96448398  0.60369852  0.31810915  1
  H+  H16  1  0.36437723  -0.01652815  0.81941327  1
  H+  H17  1  0.97802498  0.90691564  0.34031252  1
  H+  H18  1  0.14196950  0.17174239  0.35953179  1
  H+  H19  1  0.87538540  0.58478537  0.71697136  1
  H+  H20  1  0.88738260  0.10341694  0.98964610  1
  H+  H21  1  0.95261655  0.56474815  0.71835540  1
  H+  H22  1  0.79886632  0.88972108  0.38495496  1
  H+  H23  1  0.09349327  0.22221066  0.49987451  1
  H+  H24  1  0.87438661  0.27430408  -0.02517481  1
  H+  H25  1  0.63430451  0.85026414  0.16798042  1
  H+  H26  1  0.26031772  0.12958956  0.81054335  1
  H+  H27  1  0.08525018  0.35869598  0.99562807  1
  H+  H28  1  0.70376166  0.11178286  0.83720951  1
  H+  H29  1  0.11768871  0.77985455  0.99635398  1
  H+  H30  1  0.72441665  0.85183499  0.17284333  1
  H+  H31  1  0.16961072  0.95208654  0.37826685  1
  H+  H32  1  0.37821064  0.38924765  0.16243277  1
  H+  H33  1  0.39903347  0.16271738  0.33362855  1
  H+  H34  1  0.49259249  0.86574079  0.51523485  1
  H+  H35  1  0.63717985  0.27546733  0.85252659  1
  H+  H36  1  0.36346299  0.46983686  0.34119631  1
  H+  H37  1  0.47009229  0.10354461  0.67207449  1
  H+  H38  1  0.63456223  0.60146010  0.17565986  1
  H+  H39  1  0.19600240  0.97651780  0.68099243  1
  H+  H40  1  0.35028660  0.72049934  0.81877161  1
  H+  H41  1  0.36313958  0.72362041  0.18064235  1
  H+  H42  1  0.35135626  0.88065148  0.01795789  1
  H+  H43  1  0.48231409  0.36150784  0.16963857  1
  H+  H44  1  0.25449303  0.88847012  0.15717950  1
  H+  H45  1  -0.00472385  0.63566527  0.84724807  1
  H+  H46  1  0.70807243  0.74691617  0.89961199  1
  H+  H47  1  0.96782456  0.20429883  0.83016310  1
  H+  H48  1  0.75688094  0.37153393  0.33243271  1
  H+  H49  1  0.11302233  0.97651176  0.00492680  1
  H+  H50  1  0.75500023  0.13755918  0.33978467  1
  H+  H51  1  0.97562265  0.36491020  0.16538856  1
  H+  H52  1  0.82451138  0.90695042  0.10245689  1
  H+  H53  1  0.10565042  0.38491116  0.33990365  1
  H+  H54  1  0.57875617  0.16756018  0.77664872  1
  H+  H55  1  0.65781814  0.31669776  0.23578473  1
  H+  H56  1  0.41296047  0.26800228  0.33352944  1
  H+  H57  1  0.60102904  0.69430602  0.33828240  1
  H+  H58  1  0.52217472  0.62896155  0.00878773  1
  H+  H59  1  0.14987714  0.77055278  0.84069529  1
  H+  H60  1  0.40063244  0.36564662  0.84225184  1
  H+  H61  1  0.61988943  0.09948084  0.18253345  1
  H+  H62  1  0.48241574  0.68966019  0.87232420  1
  H+  H63  1  0.88495038  0.28251239  0.48953607  1
  H+  H64  1  0.10439991  0.71755506  0.15588450  1
  H+  H65  1  0.66123549  0.55800410  0.23196026  1
  H+  H66  1  0.86211459  0.96759808  0.16112799  1
  H+  H67  1  0.61681105  0.47126333  0.83520361  1
  H+  H68  1  0.85388122  0.50632605  0.98055505  1
  H+  H69  1  0.13102394  0.28263378  0.33892692  1
  H+  H70  1  0.63383400  0.36586370  0.47190553  1
  H+  H71  1  0.74125689  0.66031480  -0.02501167  1
  H+  H72  1  0.86578949  1.02797596  0.48364684  1
  H+  H73  1  0.28136772  0.61997668  -0.02932835  1
  H+  H74  1  0.72289950  0.36279574  0.83897650  1
  H+  H75  1  0.73552440  0.61376599  0.65398202  1
  H+  H76  1  0.21751195  0.37118175  0.33449506  1
  H+  H77  1  0.95712236  0.35130874  0.64898276  1
  H+  H78  1  0.09181014  0.13317541  0.50162395  1
  H+  H79  1  0.23392032  0.86456869  0.83916938  1
  H+  H80  1  0.15299668  0.58418531  0.97433023  1
  H+  H81  1  0.29850405  0.87682139  0.66918854  1
  H+  H82  1  0.36071283  0.47817587  0.67630553  1
  H+  H83  1  0.86167675  0.85613960  0.48788930  1
  H+  H84  1  0.38758899  0.38623962  1.01690114  1
  H+  H85  1  0.27677206  0.14623805  0.17070902  1
  H+  H86  1  0.60607479  0.12883391  0.68565746  1
  H+  H87  1  0.52784524  0.89468239  1.01517025  1
  H+  H88  1  0.39889615  0.63710039  0.83430383  1
  H+  H89  1  0.36095699  0.13699312  0.16675947  1
  H+  H90  1  0.64553279  0.02642634  0.99620252  1
  H+  H91  1  0.64755895  0.77008558  0.65308258  1
  H+  H92  1  -0.01567935  0.65541566  0.00818495  1
  H+  H93  1  0.70185012  0.34335276  -0.05666501  1
  H+  H94  1  0.07934838  0.33886379  0.67527742  1
  H+  H95  1  -0.05149508  0.84062200  0.61429026  1
  H+  H96  1  0.12625194  0.52021434  0.32796421  1
  H+  H97  1  0.10348393  0.62838558  0.32412436  1
  H+  H98  1  0.65241207  0.86106867  0.65973133  1
  H+  H99  1  0.38674672  0.11810072  0.52085607  1
  H+  H100  1  0.63260687  0.59669870  0.82558673  1
  H+  H101  1  0.21699744  0.36043392  0.66229569  1
  H+  H102  1  0.78264203  0.86762744  0.83110774  1
  H+  H103  1  0.86668395  0.64657263  0.83389173  1
  H+  H104  1  0.16509356  0.82919942  0.21827725  1
  H+  H105  1  0.87432134  0.71232264  0.67935637  1
  H+  H106  1  0.62387211  0.97152215  0.67107357  1
  H+  H107  1  0.13263366  0.15207269  0.68348112  1
  H+  H108  1  0.82944131  0.44705718  0.76698137  1
  H+  H109  1  0.46646789  0.59942406  0.33493296  1
  H+  H110  1  0.36080386  0.89010932  0.35241194  1
  H+  H111  1  0.85853772  0.23117891  0.66480290  1
  H+  H112  1  0.39156837  0.60074160  0.97987210  1
  H+  H113  1  0.49043929  0.61853994  0.51407107  1
  H+  H114  1  0.59590204  0.93365518  0.45306203  1
  H+  H115  1  0.64666555  0.04155494  0.51545837  1
  H+  H116  1  0.58925827  0.40609513  0.06348195  1
  H+  H117  1  0.51956269  0.36469048  0.44941506  1
  H+  H118  1  0.22606747  0.60750373  0.65708600  1
  H+  H119  1  0.62619434  0.15703544  0.50037422  1
  H+  H120  1  0.47608035  0.85774469  0.14796744  1
  H+  H121  1  0.61047415  0.37239125  0.16161806  1
  H+  H122  1  0.01249655  0.37566578  0.82621312  1
  H+  H123  1  0.22764823  0.10953000  0.99970704  1
  H+  H124  1  0.14988540  0.85875091  0.30686644  1
  H+  H125  1  0.22465150  0.35941628  0.85084855  1
  H+  H126  1  0.86426118  0.27352449  0.82752361  1
  H+  H127  1  0.39812610  0.37491549  0.32481571  1
  H+  H128  1  0.51932877  0.88519552  0.81787455  1
  H+  H129  1  0.11192141  0.22333030  0.14615257  1
  H+  H130  1  0.95789750  0.83782067  0.16112097  1
  H+  H131  1  0.98054171  0.85533042  0.85175845  1
  H+  H132  1  0.37924850  0.86455656  0.83248928  1
  H+  H133  1  0.90582559  -0.00124031  0.84903482  1
  H+  H134  1  0.11631912  0.87723192  0.83874817  1
  H+  H135  1  0.50958613  0.07283811  0.39633721  1
  H+  H136  1  0.22808382  0.36145236  0.13332206  1
  H+  H137  1  0.47522950  0.12656741  0.83059397  1
  H+  H138  1  0.06621826  0.67975579  0.47917834  1
  H+  H139  1  0.84795608  0.22249266  0.32980666  1
  H+  H140  1  0.89680818  0.85413051  0.66719849  1
  H+  H141  1  0.15134009  0.54046244  0.50909461  1
  H+  H142  1  0.75530651  0.61770381  0.16677470  1
  H+  H143  1  0.72104485  0.85572267  0.49256958  1
  H+  H144  1  0.14634387  0.05635901  0.21888833  1
  H+  H145  1  0.53331550  0.63773725  0.81090977  1
  H+  H146  1  0.08739979  0.90283070  0.55051243  1
  H+  H147  1  0.85784048  0.72928858  0.83479570  1
  H+  H148  1  0.71401098  0.85811465  0.99992367  1
  H+  H149  1  0.18367809  0.78920622  0.64980080  1
  H+  H150  1  0.29561467  0.64155658  0.50237972  1
  H+  H151  1  0.13463263  0.60677869  0.17224843  1
  H+  H152  1  0.86038309  0.39337587  0.48097499  1
  H+  H153  1  0.15721620  0.31232787  0.95172919  1
  H+  H154  1  0.13991780  0.01501698  0.84906281  1
  H+  H155  1  -0.03103532  0.86988748  0.36128371  1
  H+  H156  1  0.31738399  0.18004032  0.34771839  1
  H+  H157  1  0.40286201  0.82650140  0.42166332  1
  H+  H158  1  0.62052461  0.65550076  0.00239094  1
  H+  H159  1  1.00828010  0.10525718  1.01496111  1
  H+  H160  1  0.47134298  0.10571049  0.17375059  1
  H+  H161  1  0.85166592  0.71609601  0.15937567  1
  H+  H162  1  0.08580505  0.43258037  0.56597180  1
  H+  H163  1  0.49454960  0.85391560  0.66232927  1
  H+  H164  1  0.61454117  0.46334683  0.15850172  1
  H+  H165  1  0.38159366  0.97219443  0.67071147  1
  H+  H166  1  0.13032221  0.35650661  0.51316562  1
  H+  H167  1  0.62944940  0.38518205  0.00717554  1
  H+  H168  1  0.73378801  0.13185752  0.50767226  1
  H+  H169  1  0.53968479  0.14530336  0.01353152  1
  H+  H170  1  0.61107360  0.33004458  0.34060424  1
  H+  H171  1  0.85599042  0.78762988  0.25708884  1
  H+  H172  1  0.97067008  0.86242846  0.99833284  1
  H+  H173  1  0.36130092  0.63694748  0.19676206  1
  H+  H174  1  0.29966566  1.02999366  0.66456558  1
  H+  H175  1  0.37146114  0.71935383  0.66930254  1
  H+  H176  1  0.57264144  0.79524553  0.30517611  1
  H+  H177  1  0.27074229  0.62903720  0.33366469  1
  H+  H178  1  0.96767399  0.18873565  0.79851359  1
  H+  H179  1  0.60271770  -0.02455723  0.82501086  1
  H+  H180  1  0.07210293  0.67221025  0.67326575  1
  H+  H181  1  0.37791648  0.60168737  0.32688907  1
  H+  H182  1  0.69661100  0.59930044  0.58782186  1
  H+  H183  1  0.48115660  0.13148081  0.52119889  1
  H+  H184  1  0.08289020  0.95248763  0.14713484  1
  H+  H185  1  0.14429088  0.13638502  0.18990132  1
  H+  H186  1  0.02108108  0.39897726  0.51125004  1
  H+  H187  1  0.83365574  0.13538848  0.82146642  1
  H+  H188  1  0.12358130  0.63116367  0.82930512  1
  H+  H189  1  0.10717552  0.38354174  0.14221164  1
  H+  H190  1  0.22649976  1.09500001  0.65003588  1
  H+  H191  1  0.39152495  0.60943775  0.66047182  1
  H+  H192  1  0.09942017  0.36986328  0.83255694  1
  H+  H193  1  0.84813328  0.96406678  0.01139176  1
  H+  H194  1  0.13564963  0.26615046  0.66631903  1
  H+  H195  1  0.11066698  0.47023769  0.16488661  1
  H+  H196  1  0.08689669  0.59741969  1.02625234  1
  H+  H197  1  0.33546825  0.41043928  0.76894843  1
  H+  H198  1  0.71963546  0.34905323  0.17629482  1
  H+  H199  1  0.34825241  0.13767397  0.78857461  1
  H+  H200  1  0.85861573  0.48306651  0.47156873  1
  H+  H201  1  0.84762101  0.87507972  1.01078114  1
  H+  H202  1  0.84674482  0.00241984  0.31155517  1
  H+  H203  1  0.85293114  0.61897472  0.16413069  1
  H+  H204  1  0.26118425  0.12787492  0.50227263  1
  H+  H205  1  0.16950863  0.32872630  0.07450798  1
  H+  H206  1  0.61383931  0.24504041  0.33617956  1
  H+  H207  1  0.70469538  0.09851035  0.20345763  1
  H+  H208  1  0.92002397  0.61006750  0.42696306  1
  H+  H209  1  0.85778258  0.14530015  0.48425888  1
  H+  H210  1  0.64924730  0.11689605  -0.00126410  1
  H+  H211  1  -0.00377007  0.89353170  0.53144453  1
  H+  H212  1  0.63122151  0.90522753  0.36429111  1
  H+  H213  1  0.72444350  0.60396362  0.83517396  1
  H+  H214  1  0.89483598  0.11035457  0.16129025  1
  H+  H215  1  0.90266525  0.10549769  0.66542184  1
  H+  H216  1  0.81538728  0.81773474  0.30976018  1
  H+  H217  1  0.61230865  0.71142480  0.16177840  1
  H+  H218  1  0.23442876  0.88006529  0.48701413  1
  H+  H219  1  0.16311779  0.63246903  0.49296840  1
  H+  H220  1  0.61372110  0.88915950  0.00743685  1
  H+  H221  1  0.62680218  0.90030034  0.50885147  1
  H+  H222  1  0.59973664  0.13713717  0.83905790  1
  H+  H223  1  0.47954956  0.60277044  0.18020224  1
  H+  H224  1  0.71263758  0.56159654  0.32352373  1
  H+  H225  1  0.61340897  0.98353720  0.35457222  1
  H+  H226  1  0.38263644  0.47424627  0.01105046  1
  H+  H227  1  0.59296926  0.66052984  0.71678878  1
  H+  H228  1  0.51428355  0.37687900  0.84301847  1
  H+  H229  1  0.40756840  0.85763516  0.66473852  1
  H+  H230  1  0.26891358  0.62329345  0.81758091  1
  H+  H231  1  0.39544333  0.27214903  0.99723358  1
  H+  H232  1  0.85646937  0.38037490  0.15111913  1
  H+  H233  1  0.60767001  0.21339136  0.16691814  1
  H+  H234  1  0.10950605  0.23861983  0.00182622  1
  H+  H235  1  0.61555158  0.37849435  0.84467145  1
  H+  H236  1  0.34634759  0.21471201  0.49062982  1
  H+  H237  1  0.62913313  0.71061263  0.82015019  1
  H+  H238  1  0.11002563  0.88586078  0.00037448  1
  H+  H239  1  0.16537796  0.81086389  0.66971598  1
  H+  H240  1  0.40989088  0.82446461  1.06279439  1
  H+  H241  1  0.08043949  0.17597565  0.40829939  1
  H+  H242  1  0.37735082  0.03268335  0.32534299  1
  H+  H243  1  0.22560596  0.61332637  0.18987367  1
  H+  H244  1  0.53878411  0.45227951  0.32552940  1
  H+  H245  1  0.96551564  0.35762485  0.31833880  1
  H+  H246  1  0.09471193  0.16646308  0.77822776  1
  H+  H247  1  0.08915831  0.93524706  0.34163551  1
  H+  H248  1  0.41893727  0.56910750  0.24093137  1
  H+  H249  1  0.27571647  0.87928236  0.32148997  1
  H+  H250  1  0.33063574  0.64884539  0.03122934  1
  H+  H251  1  0.85367453  0.09539360  0.31451261  1
  H+  H252  1  0.62064865  0.63447470  0.65484302  1
  H+  H253  1  0.63914631  0.27719326  0.49343776  1
  H+  H254  1  0.60565341  0.09845859  0.34498710  1
  H+  H255  1  0.38969977  0.27545951  0.17417807  1
  H+  H256  1  0.75877117  0.80184133  0.43989126  1
  H+  H257  1  0.79477544  0.15184608  0.12975347  1
  H+  H258  1  0.73786501  0.86831911  0.32629342  1
  H+  H259  1  0.26224379  0.88314039  1.00924806  1
  H+  H260  1  0.81093160  0.69176219  0.33051955  1
  H+  H261  1  0.61904484  0.73225627  0.49871659  1
  H+  H262  1  0.19505269  0.07532232  0.33864598  1
  H+  H263  1  0.36710716  0.47041952  0.82621334  1
  H+  H264  1  0.87124755  0.84427263  0.16292377  1
  H+  H265  1  0.39227053  0.63168081  0.51086058  1
  H+  H266  1  0.35633565  -0.01350985  0.16224948  1
  H+  H267  1  0.78470069  0.87761056  0.67099199  1
  H+  H268  1  0.72861901  0.10992774  0.66418568  1
  H+  H269  1  0.87341982  0.51361321  0.32020325  1
  H+  H270  1  0.87919510  0.23974821  0.14639984  1
  H+  H271  1  1.03250428  0.13034875  0.68320919  1
  H+  H272  1  0.14079052  0.26826280  0.85108854  1
  H+  H273  1  0.02729702  0.89125696  0.68805240  1
  H+  H274  1  0.37864809  0.48355591  0.16590286  1
  H+  H275  1  0.60737676  0.96350949  0.16710993  1
  H+  H276  1  0.84361481  0.62280024  0.33830599  1
  H+  H277  1  0.58613083  0.59942571  0.35374766  1
  H+  H278  1  0.82532748  0.36323268  0.99002912  1
  H+  H279  1  0.69881194  0.38913707  0.63098558  1
  H+  H280  1  0.48950002  0.35746891  0.99522606  1
  H+  H281  1  0.11433539  0.03199259  0.54313708  1
  H+  H282  1  0.90009471  1.01569260  0.66937591  1
  H+  H283  1  0.13123653  0.85991026  0.15888200  1
  H+  H284  1  0.39105452  0.01872885  1.00511128  1
  H+  H285  1  0.13317521  0.50656477  0.82299125  1
  H+  H286  1  0.90406621  0.33872099  0.54957125  1
  H+  H287  1  0.67489355  0.63754305  0.49414268  1
  H+  H288  1  0.34121044  0.32096727  0.66490917  1
  H+  H289  1  0.33394225  0.16568276  0.07125536  1
  H+  H290  1  0.08346938  0.66976799  0.38015981  1
  H+  H291  1  0.82199753  0.40876417  0.38755053  1
  H+  H292  1  0.04168351  0.68206001  0.06738870  1
  H+  H293  1  0.27109356  0.87938139  0.41980095  1
  H+  H294  1  0.59278056  0.91837739  0.10153266  1
  H+  H295  1  0.28491713  0.60657173  0.09781097  1
  H+  H296  1  0.42491906  0.58149078  0.57198626  1
  H+  H297  1  0.04673022  0.36580160  0.73459649  1
  H+  H298  1  0.59486811  0.91514923  0.73188895  1
  H+  H299  1  0.78409650  0.14005800  0.99530185  1
  H+  H300  1  0.33418126  0.65769209  0.72687838  1
  H+  H301  1  0.17424247  0.84770333  0.57622135  1
  H+  H302  1  0.17674754  0.08131647  0.90409453  1
  H+  H303  1  0.09142897  0.97220884  0.44249953  1
  H+  H304  1  0.63885946  0.80030074  0.25573680  1
  H+  H305  1  0.67623948  0.61757123  0.91920913  1
  H+  H306  1  0.25731513  0.62618769  0.09028025  1
  H+  H307  1  0.86304391  0.54369996  0.59932129  1
  H+  H308  1  0.63480059  0.06829098  0.28318468  1
  H+  H309  1  0.67284007  0.80840609  0.90669138  1
  H+  H310  1  0.15869606  0.32040789  0.56740289  1
  H+  H311  1  0.89267566  0.33642719  0.91737783  1
  H+  H312  1  0.67441253  0.09252000  0.60407597  1
  H+  H313  1  0.06398321  0.41183224  0.39427916  1
  H+  H314  1  0.36147291  0.42617603  0.09065098  1
  H+  H315  1  0.17678916  0.12340360  0.57283174  1
  H+  H316  1  0.89785670  0.57286971  0.92508119  1
  H+  H317  1  0.82561441  0.17572638  0.42617628  1
  H+  H318  1  0.17101062  0.55917599  0.88391310  1
  H+  H319  1  0.42761958  0.33708475  0.90501015  1
  H+  H320  1  0.10189250  0.93727495  0.44880480  1
  H+  H321  1  0.75025292  0.35687952  0.74856415  1
  H+  H322  1  0.17409147  0.59551204  0.59692189  1
  H+  H323  1  0.58404559  0.15625569  0.10695587  1
  H+  H324  1  0.38926592  0.73302670  0.50801654  1
  H+  H325  1  0.99619510  0.08895804  0.85375510  1
  H+  H326  1  0.62285136  0.77218452  1.00255557  1
  H+  H327  1  0.13896429  0.49009006  0.97252022  1
  H+  H328  1  0.32336856  0.92573404  0.09556521  1
  H+  H329  1  0.78562676  0.64795760  0.43068915  1
  H+  H330  1  0.01511315  0.62981890  0.16174610  1
  H+  H331  1  0.83870196  0.90318326  0.73319016  1
  H+  H332  1  0.58568919  0.66537721  0.44248763  1
  H+  H333  1  0.41413156  0.08050266  0.23501543  1
  H+  H334  1  0.90246013  0.07335939  0.22604808  1
  H+  H335  1  0.43367080  0.35179979  0.26369065  1
  H+  H336  1  0.82125663  0.17151579  0.76000962  1
  H+  H337  1  0.67982394  0.83868628  0.56288419  1
  H+  H338  1  0.81722606  0.37017859  0.64237674  1
  H+  H339  1  0.41917178  0.07851020  0.60764787  1
  H+  H340  1  0.85644321  0.18246343  0.04686807  1
  H+  H341  1  0.30502241  0.19374591  0.71703026  1
  H+  H342  1  0.07202803  0.13712056  0.07336708  1
  H+  H343  1  0.43193965  0.57433544  0.92809186  1
  H+  H344  1  0.90902957  0.32887277  0.22115960  1
  H+  H345  1  0.47437606  0.86142083  0.37206424  1
  H+  H346  1  0.21276601  0.14317175  0.28759640  1
  H+  H347  1  0.73148845  0.37629406  0.48659806  1
  H+  H348  1  0.86663190  0.77276052  0.50198768  1
  H+  H349  1  0.09088100  0.65833603  0.77205397  1
  H+  H350  1  0.34093738  0.91869270  0.76309570  1
  H+  H351  1  0.43318328  0.07666104  0.94805946  1
  H+  H352  1  0.10430034  0.60470587  0.67574881  1
  H+  H353  1  0.61495849  0.22171519  0.69580797  1
  H+  H354  1  0.63299171  0.23116900  0.01725940  1
  H+  H355  1  0.83665182  0.49691976  0.59156711  1
  H+  H356  1  0.88347336  0.77055692  0.99863279  1
  H+  H357  1  0.40793095  0.83079646  0.88920127  1
  H+  H358  1  0.08216302  0.91177911  0.78395515  1
  H+  H359  1  0.82938939  0.66425267  0.74028016  1
  H+  H360  1  0.38606363  0.77389074  0.99996189  1
  H+  H361  1  0.58255381  0.17125188  0.43990044  1
  H+  H362  1  0.13395119  0.10197562  0.99900765  1
  H+  H363  1  0.92163729  0.05808257  0.94194853  1
  H+  H364  1  0.65794311  0.08154941  0.90195323  1
  H+  H365  1  0.81268859  0.40226421  0.09553311  1
  H+  H366  1  0.59285869  0.43417449  0.40844143  1
  H+  H367  1  0.15680317  0.57568449  0.26698451  1
  H+  H368  1  0.87664377  0.35767491  0.31526667  1
  H+  H369  1  0.39316351  0.11524604  0.86865035  1
  H+  H370  1  0.42726620  0.82812987  0.56991390  1
  H+  H371  1  1.01058124  0.38224845  0.98320072  1
  H+  H372  1  0.47547819  0.11007323  0.33292991  1
  H+  H373  1  0.34462314  0.40520067  0.39686357  1
  H+  H374  1  0.93277984  0.23599748  0.69993054  1
  H+  H375  1  0.06902901  0.89987795  0.08675910  1
  H+  H376  1  0.91450574  0.83030119  0.90801741  1
  H+  H377  1  0.81620838  0.65120035  0.05935430  1
  H+  H378  1  0.38789373  0.86030570  0.15311186  1
  H+  H379  1  0.21848042  0.94687034  0.58457088  1
  H+  H380  1  0.07680476  0.98698577  0.70946719  1
  H+  H381  1  0.16218324  0.74872648  0.45665722  1
  H+  H382  1  0.95550008  0.10992667  0.49850542  1
  H+  H383  1  0.89880436  0.57048476  0.23001699  1
  O2-  O384  1  0.08591833  0.15982554  0.15156300  1
  O2-  O385  1  0.06042114  0.16088386  0.48442217  1
  O2-  O386  1  0.09648716  0.16632339  0.82369012  1
  O2-  O387  1  0.07241493  0.41088421  0.15008432  1
  O2-  O388  1  0.08407579  0.43073496  0.52160572  1
  O2-  O389  1  0.07181895  0.39836485  0.81050728  1
  O2-  O390  1  0.07272391  0.65705831  0.14273213  1
  O2-  O391  1  0.11505977  0.68560900  0.45579283  1
  O2-  O392  1  0.09918796  0.66818559  0.81685662  1
  O2-  O393  1  0.06415726  0.89409322  0.13368416  1
  O2-  O394  1  0.04850547  0.92555812  0.55805087  1
  O2-  O395  1  0.08365655  0.90752243  0.82922044  1
  O2-  O396  1  0.33414508  0.17007859  0.15095908  1
  O2-  O397  1  0.32111878  0.15214083  0.48800074  1
  O2-  O398  1  0.30957535  0.16067025  0.78214458  1
  O2-  O399  1  0.35214111  0.42349472  0.14425515  1
  O2-  O400  1  0.38003289  0.38656367  0.47418483  1
  O2-  O401  1  0.33818581  0.41004134  0.81474222  1
  O2-  O402  1  0.33115217  0.66928574  0.20327056  1
  O2-  O403  1  0.35897647  0.66945533  0.49429599  1
  O2-  O404  1  0.33114032  0.66058280  0.80543876  1
  O2-  O405  1  0.32183737  0.92533651  0.14303673  1
  O2-  O406  1  0.24114990  0.84427006  0.45588821  1
  O2-  O407  1  0.33652439  0.92144343  0.80848058  1
  O2-  O408  1  0.57599156  0.15216512  0.15223983  1
  O2-  O409  1  0.59638047  0.18787119  0.48428031  1
  O2-  O410  1  0.57541142  0.17270372  0.82240968  1
  O2-  O411  1  0.58158421  0.40292982  0.14427516  1
  O2-  O412  1  0.57473373  0.37916965  0.42952285  1
  O2-  O413  1  0.58327522  0.40659163  0.82692729  1
  O2-  O414  1  0.58240208  0.64940911  0.14977530  1
  O2-  O415  1  0.59581951  0.67008189  0.48717281  1
  O2-  O416  1  0.59248727  0.65686036  0.79651640  1
  O2-  O417  1  0.58319876  0.90680927  0.14650574  1
  O2-  O418  1  0.59736566  0.93448313  0.49817309  1
  O2-  O419  1  0.58052483  0.91761230  0.80681307  1
  O2-  O420  1  0.85696179  0.18086519  0.12615604  1
  O2-  O421  1  0.83099930  0.18145832  0.47156142  1
  O2-  O422  1  0.80426203  0.16365268  0.80418097  1
  O2-  O423  1  0.82075446  0.40746537  0.14019332  1
  O2-  O424  1  0.82613458  0.41950053  0.46427982  1
  O2-  O425  1  0.79333853  0.38815296  0.78344047  1
  O2-  O426  1  0.81916013  0.64939574  0.14893526  1
  O2-  O427  1  0.79264997  0.65695263  0.47599107  1
  O2-  O428  1  0.82858302  0.66850923  0.81928830  1
  O2-  O429  1  0.82899727  0.90579544  0.14810066  1
  O2-  O430  1  0.78840737  0.86293475  0.44986277  1
  O2-  O431  1  0.83894977  0.90298600  0.81084293  1
  O2-  O432  1  0.18298966  0.11776586  0.21189164  1
  O2-  O433  1  0.15510422  0.09416784  0.53351066  1
  O2-  O434  1  0.17390875  0.07764854  0.85881070  1
  O2-  O435  1  0.16807827  0.32862079  0.11961959  1
  O2-  O436  1  0.15414934  0.31912771  0.52239548  1
  O2-  O437  1  0.16546951  0.32855386  0.86700958  1
  O2-  O438  1  0.16119288  0.57607095  0.19170104  1
  O2-  O439  1  0.18972523  0.60335410  0.51519142  1
  O2-  O440  1  0.16802170  0.56674594  0.83882814  1
  O2-  O441  1  0.16908835  0.83641161  0.17201416  1
  O2-  O442  1  0.19128292  0.90039738  0.55347850  1
  O2-  O443  1  0.17538674  0.83047144  0.85727393  1
  O2-  O444  1  0.41029457  0.07673940  0.18897410  1
  O2-  O445  1  0.42271420  0.09436576  0.53676145  1
  O2-  O446  1  0.40945137  0.09274617  0.83412216  1
  O2-  O447  1  0.42226809  0.33739912  0.18660291  1
  O2-  O448  1  0.41383927  0.33961621  0.48216277  1
  O2-  O449  1  0.43443699  0.34057242  0.85972093  1
  O2-  O450  1  0.41871482  0.56964163  0.19468760  1
  O2-  O451  1  0.42852368  0.59036841  0.52644253  1
  O2-  O452  1  0.44730484  0.63246960  0.85491001  1
  O2-  O453  1  0.41258794  0.82578916  0.13853425  1
  O2-  O454  1  0.43001640  0.82761830  0.52451774  1
  O2-  O455  1  0.40308882  0.82647813  0.84511954  1
  O2-  O456  1  0.64234361  0.06344162  0.20219855  1
  O2-  O457  1  0.67531094  0.10381678  0.52720672  1
  O2-  O458  1  0.64660163  0.08047242  0.85737447  1
  O2-  O459  1  0.65864616  0.31685706  0.19073068  1
  O2-  O460  1  0.66775046  0.34567452  0.49868716  1
  O2-  O461  1  0.67194436  0.33602313  0.86772187  1
  O2-  O462  1  0.66784407  0.57173864  0.18722493  1
  O2-  O463  1  0.70547963  0.60412270  0.50142467  1
  O2-  O464  1  0.66235217  0.57025683  0.84798221  1
  O2-  O465  1  0.66173482  0.81738920  0.18333501  1
  O2-  O466  1  0.66548049  0.83714200  0.51897544  1
  O2-  O467  1  0.69402206  0.78442276  0.87469217  1
  O2-  O468  1  0.91853768  0.07706754  0.18071377  1
  O2-  O469  1  0.89171485  0.08306289  0.50454357  1
  O2-  O470  1  0.94510343  0.04573974  0.87659972  1
  O2-  O471  1  0.91124326  0.33158967  0.17570873  1
  O2-  O472  1  0.91301872  0.34427795  0.50456858  1
  O2-  O473  1  0.89643223  0.33526454  0.83890061  1
  O2-  O474  1  0.89887163  0.57342310  0.18416550  1
  O2-  O475  1  0.90811408  0.59435166  0.46973433  1
  O2-  O476  1  0.93165331  0.60469230  0.85202516  1
  O2-  O477  1  0.89664050  0.80689221  0.17430967  1
  O2-  O478  1  0.89702052  0.83467650  0.51020737  1
  O2-  O479  1  0.91806336  0.82750039  0.86266932  1
  O2-  O480  1  0.22241655  0.13792838  0.33172921  1
  O2-  O481  1  0.21883982  0.14692767  0.65117283  1
  O2-  O482  1  0.16858990  0.07639927  0.98263301  1
  O2-  O483  1  0.15686582  0.34298820  0.32224110  1
  O2-  O484  1  0.15726593  0.32448247  0.64766664  1
  O2-  O485  1  0.13823396  0.30195227  0.99481533  1
  O2-  O486  1  0.15685154  0.58065874  0.31255441  1
  O2-  O487  1  0.16658525  0.58042505  0.64072515  1
  O2-  O488  1  0.18029808  0.55320313  0.95744630  1
  O2-  O489  1  0.16780569  0.81977173  0.28892563  1
  O2-  O490  1  0.24025711  1.00971902  0.65005321  1
  O2-  O491  1  0.16597599  0.83578730  0.97999149  1
  O2-  O492  1  0.41609288  0.09203174  0.30988249  1
  O2-  O493  1  0.41266360  0.06495528  0.65322013  1
  O2-  O494  1  0.42782406  0.08003060  0.99198053  1
  O2-  O495  1  0.44118291  0.35776155  0.30886914  1
  O2-  O496  1  0.37914204  0.38457875  0.66246765  1
  O2-  O497  1  0.42714786  0.33284759  0.98280426  1
  O2-  O498  1  0.40945061  0.56992596  0.31426338  1
  O2-  O499  1  0.41851551  0.57504478  0.64661531  1
  O2-  O500  1  0.42302997  0.56870912  0.97260321  1
  O2-  O501  1  0.41111781  0.83219248  0.37752719  1
  O2-  O502  1  0.43295915  0.82361214  0.64833965  1
  O2-  O503  1  0.41132006  0.83262966  1.01728322  1
  O2-  O504  1  0.64472344  0.07551419  0.32752718  1
  O2-  O505  1  0.66973745  0.08168935  0.64921992  1
  O2-  O506  1  0.67659332  0.08634937  0.97958874  1
  O2-  O507  1  0.64045548  0.30381759  0.31977831  1
  O2-  O508  1  0.71333713  0.34408622  0.63779899  1
  O2-  O509  1  0.70217864  0.33930922  0.98940396  1
  O2-  O510  1  0.65959297  0.51603028  0.30096432  1
  O2-  O511  1  0.68138918  0.59434037  0.63119889  1
  O2-  O512  1  0.69386904  0.66137365  0.95213479  1
  O2-  O513  1  0.62464659  0.79172825  0.30064084  1
  O2-  O514  1  0.68321354  0.83246715  0.64254665  1
  O2-  O515  1  0.65356998  0.83062796  0.98373767  1
  O2-  O516  1  0.87397280  0.06065844  0.29291130  1
  O2-  O517  1  0.93650783  0.07737881  0.65827934  1
  O2-  O518  1  0.91027320  0.06325557  0.98689855  1
  O2-  O519  1  0.90639821  0.32699306  0.30046420  1
  O2-  O520  1  0.90168179  0.33373910  0.62650582  1
  O2-  O521  1  0.89185331  0.33475965  0.96293592  1
  O2-  O522  1  0.90212153  0.57514522  0.30670172  1
  O2-  O523  1  0.89686325  0.54943859  0.73737620  1
  O2-  O524  1  0.88620858  0.56791932  0.96971353  1
  O2-  O525  1  0.81570099  0.76669895  0.29128727  1
  O2-  O526  1  0.93280425  0.82688483  0.65741870  1
  O2-  O527  1  0.90925983  0.83164460  0.98528321  1
  O2-  O528  1  0.07045294  0.13542876  0.02806485  1
  O2-  O529  1  0.09560619  0.18493140  0.36406841  1
  O2-  O530  1  0.09245948  0.16940827  0.70026792  1
  O2-  O531  1  0.07100476  0.40563713  -0.00457474  1
  O2-  O532  1  0.06866465  0.41341630  0.35016470  1
  O2-  O533  1  0.02823011  0.33913093  0.69363284  1
  O2-  O534  1  0.02796353  0.70547990  0.03114393  1
  O2-  O535  1  0.07320327  0.66188725  0.33532997  1
  O2-  O536  1  0.06618887  0.62407145  0.69732562  1
  O2-  O537  1  0.07862798  0.91405852  0.01763723  1
  O2-  O538  1  0.15099244  0.95595003  0.33715712  1
  O2-  O539  1  0.08208594  0.93558649  0.70918535  1
  O2-  O540  1  0.33518338  0.16500176  0.02586335  1
  O2-  O541  1  0.38310607  0.20627224  0.35176510  1
  O2-  O542  1  0.30409255  0.21212861  0.67290003  1
  O2-  O543  1  0.36134923  0.41990954  0.03489304  1
  O2-  O544  1  0.33777992  0.40746087  0.35249015  1
  O2-  O545  1  0.32726626  0.41674772  0.69219160  1
  O2-  O546  1  0.34128225  0.65919089  -0.01264683  1
  O2-  O547  1  0.32916340  0.64896034  0.34968143  1
  O2-  O548  1  0.33608560  0.65742138  0.68158638  1
  O2-  O549  1  0.32234641  0.91481517  0.02767694  1
  O2-  O550  1  0.32559943  0.91850476  0.34685907  1
  O2-  O551  1  0.35489669  0.91032225  0.68809305  1
  O2-  O552  1  0.59855393  0.17015875  0.03045241  1
  O2-  O553  1  0.54621041  0.12448024  0.37248149  1
  O2-  O554  1  0.57402830  0.15563890  0.70231362  1
  O2-  O555  1  0.58972408  0.40566901  0.01840187  1
  O2-  O556  1  0.59088609  0.50235997  0.34430832  1
  O2-  O557  1  0.67892147  0.31545428  0.69929281  1
  O2-  O558  1  0.57960738  0.66517621  0.02775051  1
  O2-  O559  1  0.56921979  0.64258334  0.36418603  1
  O2-  O560  1  0.58768928  0.66176728  0.67187947  1
  O2-  O561  1  0.58996603  0.92509879  0.02521184  1
  O2-  O562  1  0.59001622  0.92379433  0.37347949  1
  O2-  O563  1  0.59755018  0.91142016  0.68621193  1
  O2-  O564  1  0.84767424  0.17481710  0.00205789  1
  O2-  O565  1  0.81740409  0.16449579  0.34917693  1
  O2-  O566  1  0.87056358  0.19436063  0.69205221  1
  O2-  O567  1  0.79309268  0.39186383  0.00868301  1
  O2-  O568  1  0.81889943  0.40703513  0.34200278  1
  O2-  O569  1  0.88094920  0.39756895  0.64947695  1
  O2-  O570  1  0.82388612  0.66311005  0.01559760  1
  O2-  O571  1  0.80038412  0.63755747  0.35325927  1
  O2-  O572  1  0.83673861  0.65416265  0.69661238  1
  O2-  O573  1  0.81510489  0.90278857  0.02649541  1
  O2-  O574  1  0.79893879  0.89644772  0.33723420  1
  O2-  O575  1  0.84459016  0.90548831  0.68787898  1
