# generated using pymatgen
data_H2O
_symmetry_space_group_name_H-M   'P 1'
_cell_length_a   17.98188035
_cell_length_b   17.98472564
_cell_length_c   21.98923251
_cell_angle_alpha   90.00718515
_cell_angle_beta   89.98674495
_cell_angle_gamma   119.97731983
_symmetry_Int_Tables_number   1
_chemical_formula_structural   H2O
_chemical_formula_sum   'H384 O192'
_cell_volume   6159.97316990
_cell_formula_units_Z   192
loop_
 _symmetry_equiv_pos_site_id
 _symmetry_equiv_pos_as_xyz
  1  'x, y, z'
loop_
 _atom_type_symbol
 _atom_type_oxidation_number
  H+  1.0
  O2-  -2.0
loop_
 _atom_site_type_symbol
 _atom_site_label
 _atom_site_symmetry_multiplicity
 _atom_site_fract_x
 _atom_site_fract_y
 _atom_site_fract_z
 _atom_site_occupancy
  H+  H0  1  0.20923787  0.60964092  0.17782878  1
  H+  H1  1  0.34114478  0.17291980  0.39717422  1
  H+  H2  1  0.89562934  0.02906603  0.66174262  1
  H+  H3  1  0.69014972  0.34435372  0.23475424  1
  H+  H4  1  0.62102002  0.73219697  0.33458341  1
  H+  H5  1  0.55703768  0.16765041  0.34271030  1
  H+  H6  1  0.39662841  0.62404694  0.33811358  1
  H+  H7  1  0.38019475  0.01501327  0.65219722  1
  H+  H8  1  0.36335297  0.89685929  -0.00176369  1
  H+  H9  1  0.86558460  0.97790706  0.00174068  1
  H+  H10  1  -0.01807252  0.38116999  0.83782331  1
  H+  H11  1  0.78298385  0.64187335  0.48628604  1
  H+  H12  1  0.63136771  0.89660849  0.33288473  1
  H+  H13  1  0.77327956  0.89029335  0.00278342  1
  H+  H14  1  0.47568888  0.78440166  0.14738555  1
  H+  H15  1  0.63011208  0.61215166  0.83897465  1
  H+  H16  1  0.63466737  0.10365094  0.49289177  1
  H+  H17  1  0.77464436  0.12471816  1.00867448  1
  H+  H18  1  0.45981807  0.40417636  0.50428553  1
  H+  H19  1  0.61576209  0.37278420  1.01082859  1
  H+  H20  1  0.39279253  0.35614915  0.85216371  1
  H+  H21  1  0.97881366  0.38412079  0.99793747  1
  H+  H22  1  0.08451752  0.89068259  0.16679173  1
  H+  H23  1  0.85391616  0.64595841  0.16906820  1
  H+  H24  1  0.67864724  0.09737221  0.26868042  1
  H+  H25  1  0.84522664  0.47428949  0.01188372  1
  H+  H26  1  0.38126716  0.76161813  0.16647344  1
  H+  H27  1  0.12106308  0.97884528  0.48600934  1
  H+  H28  1  0.38694362  0.26788340  1.00314865  1
  H+  H29  1  -0.01291894  0.87065498  0.48602703  1
  H+  H30  1  0.60827778  0.88697896  0.01154881  1
  H+  H31  1  0.11925152  0.48046149  0.82444133  1
  H+  H32  1  0.02513196  0.13353639  0.49280538  1
  H+  H33  1  0.49532110  0.62752071  0.33475644  1
  H+  H34  1  0.63992463  0.36575305  0.84072229  1
  H+  H35  1  0.13350600  0.61238579  0.83997087  1
  H+  H36  1  0.14026989  1.02616528  0.83711846  1
  H+  H37  1  0.22962188  0.85473994  0.50354208  1
  H+  H38  1  0.57951605  0.67753769  0.73596463  1
  H+  H39  1  0.27845697  0.13781933  0.82516349  1
  H+  H40  1  0.12563206  0.85386707  1.00227662  1
  H+  H41  1  0.90060980  0.28639288  0.32316007  1
  H+  H42  1  0.87400742  0.78013698  0.17112659  1
  H+  H43  1  0.13304085  0.52618011  -0.00030170  1
  H+  H44  1  0.39541224  0.36810669  0.17522039  1
  H+  H45  1  0.89834607  0.15176003  0.84776073  1
  H+  H46  1  0.22569068  0.36896909  0.65250368  1
  H+  H47  1  0.27777925  0.36942878  0.36265709  1
  H+  H48  1  0.16580609  0.33406442  0.94066561  1
  H+  H49  1  0.43840181  0.63975473  0.56057747  1
  H+  H50  1  0.72674166  0.87114671  0.16711258  1
  H+  H51  1  0.73431001  0.86569100  0.32385027  1
  H+  H52  1  0.41800427  0.33892806  0.59874792  1
  H+  H53  1  0.88816425  0.03267236  0.16963253  1
  H+  H54  1  0.75289787  0.51802922  0.72203167  1
  H+  H55  1  0.12122911  0.89036452  0.47842325  1
  H+  H56  1  0.63165006  0.86254818  0.84137342  1
  H+  H57  1  0.36805972  0.46693075  0.84709497  1
  H+  H58  1  0.62975537  0.99956988  0.16415110  1
  H+  H59  1  0.85420262  0.89480345  0.15648399  1
  H+  H60  1  0.74015205  0.12636264  0.17347422  1
  H+  H61  1  0.66536794  0.29648096  0.33270134  1
  H+  H62  1  0.36991964  0.37945278  0.35451659  1
  H+  H63  1  0.88596065  0.62414315  0.29452208  1
  H+  H64  1  0.91901313  0.82688320  0.89511996  1
  H+  H65  1  0.85929503  0.70269219  0.63715515  1
  H+  H66  1  0.13290602  0.76822646  0.65740981  1
  H+  H67  1  0.60705413  0.11111145  0.67260995  1
  H+  H68  1  0.90746053  0.38007937  0.31946162  1
  H+  H69  1  0.37093257  0.44081504  0.59175759  1
  H+  H70  1  0.60304628  -0.03838285  0.48197131  1
  H+  H71  1  0.72783909  0.87713027  0.66382910  1
  H+  H72  1  0.10607203  0.62623908  0.01060649  1
  H+  H73  1  0.10699847  0.72092605  1.01767665  1
  H+  H74  1  0.64098079  0.88081948  0.66342738  1
  H+  H75  1  0.96271719  0.60728680  0.99694761  1
  H+  H76  1  0.61454906  0.72945334  0.16535822  1
  H+  H77  1  0.13782424  0.11367077  0.18355015  1
  H+  H78  1  0.36062513  0.11444367  0.49218918  1
  H+  H79  1  0.12233788  0.72983581  0.49265261  1
  H+  H80  1  0.39387214  0.11019526  0.65362185  1
  H+  H81  1  0.61763671  0.47648399  0.15911922  1
  H+  H82  1  0.27068254  0.13470379  0.01014912  1
  H+  H83  1  0.13746505  0.10847332  0.50298768  1
  H+  H84  1  0.34813796  0.75130247  1.01312828  1
  H+  H85  1  -0.06884194  0.57577382  0.19192446  1
  H+  H86  1  0.89128436  0.71556168  0.66311532  1
  H+  H87  1  0.61013658  0.24945603  0.51757565  1
  H+  H88  1  0.63645821  0.52865318  0.50416329  1
  H+  H89  1  0.88653093  0.86553685  0.98794153  1
  H+  H90  1  0.73073910  0.36909817  0.00105387  1
  H+  H91  1  0.76628709  0.63293317  0.83353563  1
  H+  H92  1  0.87110131  0.73119199  0.48270354  1
  H+  H93  1  0.52220233  0.38148148  0.66842949  1
  H+  H94  1  0.64322873  0.62040657  0.50351693  1
  H+  H95  1  0.38662458  0.63238252  0.66674996  1
  H+  H96  1  0.77864829  0.89184131  0.49120887  1
  H+  H97  1  0.86760457  0.73474780  0.32942619  1
  H+  H98  1  0.23788243  0.61420301  0.32950609  1
  H+  H99  1  0.27721844  0.38393262  1.01092701  1
  H+  H100  1  0.63154996  1.02303534  -0.00508728  1
  H+  H101  1  0.39213164  0.35982146  1.00227695  1
  H+  H102  1  0.77353482  0.15472134  0.83479233  1
  H+  H103  1  0.12590697  0.38498572  0.33868479  1
  H+  H104  1  0.90703275  0.58124813  0.93635621  1
  H+  H105  1  0.13491610  0.85882090  0.65492221  1
  H+  H106  1  0.87010586  0.39696821  0.48213686  1
  H+  H107  1  0.88898156  0.76302958  0.83713033  1
  H+  H108  1  0.42942302  0.05943438  0.32720114  1
  H+  H109  1  0.48618955  0.61616791  0.18486010  1
  H+  H110  1  0.08689311  0.92039158  0.72392234  1
  H+  H111  1  1.03042324  0.14731139  0.82574955  1
  H+  H112  1  0.53806748  0.92277492  0.17499768  1
  H+  H113  1  0.51621802  0.86688338  0.47569919  1
  H+  H114  1  0.72582106  0.36748771  0.66423671  1
  H+  H115  1  0.51005194  0.08329292  0.67903219  1
  H+  H116  1  0.38297419  0.72565876  0.33120754  1
  H+  H117  1  0.26785921  0.65152792  0.82684011  1
  H+  H118  1  0.61424972  0.74318279  0.67776044  1
  H+  H119  1  0.26871722  0.63027072  0.66732254  1
  H+  H120  1  0.60667223  0.47502454  0.66772079  1
  H+  H121  1  0.17480896  0.32703953  0.27446428  1
  H+  H122  1  0.48667261  0.61533879  1.00692968  1
  H+  H123  1  0.49089348  0.64955051  0.50099562  1
  H+  H124  1  0.86728200  0.14164587  0.48865329  1
  H+  H125  1  0.23294335  0.96795658  0.35751869  1
  H+  H126  1  0.38505712  1.00118866  0.50350324  1
  H+  H127  1  0.51403738  0.63196356  0.83084496  1
  H+  H128  1  0.37177861  0.67808773  0.09332264  1
  H+  H129  1  0.38588452  0.15889927  0.34045764  1
  H+  H130  1  0.63960396  0.15732361  0.34611863  1
  H+  H131  1  0.11429598  0.88546401  0.82327980  1
  H+  H132  1  0.52989359  0.14996923  0.83745555  1
  H+  H133  1  0.02931565  0.13799059  0.01188519  1
  H+  H134  1  0.07902998  0.69052889  0.16081277  1
  H+  H135  1  0.62697848  0.73716875  0.49131544  1
  H+  H136  1  0.36331496  0.20384534  0.49771326  1
  H+  H137  1  0.51766020  0.37024628  1.01521488  1
  H+  H138  1  0.40422522  0.54757592  0.64802868  1
  H+  H139  1  0.26889369  0.87991750  0.66700005  1
  H+  H140  1  0.60000368  0.72355897  0.83105787  1
  H+  H141  1  0.21637052  0.83053323  0.85907863  1
  H+  H142  1  0.39372573  0.77729356  0.65442873  1
  H+  H143  1  0.17202332  0.08509497  0.59668588  1
  H+  H144  1  0.33865978  0.95569844  0.13535020  1
  H+  H145  1  0.74222952  0.11364092  0.64052367  1
  H+  H146  1  0.10183022  0.71523046  0.82769888  1
  H+  H147  1  0.63786944  0.11529211  -0.00392598  1
  H+  H148  1  0.34073440  0.17035617  0.72660840  1
  H+  H149  1  0.13970211  0.27666344  1.00066480  1
  H+  H150  1  0.88737090  0.02896332  0.32494215  1
  H+  H151  1  1.12435177  0.98364644  0.66637889  1
  H+  H152  1  0.88121191  0.61077885  0.84323250  1
  H+  H153  1  0.87203663  0.14681179  0.16333266  1
  H+  H154  1  0.10881878  0.46986258  0.16684058  1
  H+  H155  1  0.65311455  1.02715726  0.64202669  1
  H+  H156  1  0.36112266  0.57321386  0.86986085  1
  H+  H157  1  0.13834018  0.11326149  0.99583318  1
  H+  H158  1  0.22883660  0.36282084  0.17763861  1
  H+  H159  1  0.38246193  -0.04195509  0.13221760  1
  H+  H160  1  0.86469960  0.39665084  0.82351554  1
  H+  H161  1  0.99253362  0.89459458  0.64726861  1
  H+  H162  1  0.86256095  0.26999311  0.50168706  1
  H+  H163  1  0.36936957  0.14693958  0.16656362  1
  H+  H164  1  0.86851362  0.89253647  0.48415688  1
  H+  H165  1  0.11776824  0.22808383  0.67096475  1
  H+  H166  1  0.21241095  0.62453022  0.00023484  1
  H+  H167  1  0.86822972  0.90129615  0.66729302  1
  H+  H168  1  0.38915839  1.03524904  -0.01477504  1
  H+  H169  1  0.13826560  0.35973860  0.17862158  1
  H+  H170  1  0.15485381  0.62353782  0.50774611  1
  H+  H171  1  0.52566013  0.38279797  0.83148935  1
  H+  H172  1  0.62204586  0.14289790  0.84040220  1
  H+  H173  1  0.11380171  0.63245875  0.67169439  1
  H+  H174  1  0.39041360  0.88694557  0.84177259  1
  H+  H175  1  0.59778224  0.18224141  0.10234519  1
  H+  H176  1  0.85763711  0.64085929  0.00980871  1
  H+  H177  1  0.40080924  0.28355366  0.33036633  1
  H+  H178  1  0.39045638  0.86328224  0.65299287  1
  H+  H179  1  0.49403919  0.64440331  0.66868403  1
  H+  H180  1  0.97751796  0.88059102  0.31813291  1
  H+  H181  1  0.14052360  0.26359501  0.33104364  1
  H+  H182  1  0.12293602  0.62023259  0.34963436  1
  H+  H183  1  0.71336389  0.84841117  0.84100044  1
  H+  H184  1  1.03246339  0.64040162  0.49693184  1
  H+  H185  1  0.53345777  0.39445572  0.33940762  1
  H+  H186  1  0.36007705  0.85692417  0.35803447  1
  H+  H187  1  0.28463808  0.92588002  0.33315888  1
  H+  H188  1  0.63853191  0.03195732  0.84230360  1
  H+  H189  1  0.39108838  0.27750525  0.17555123  1
  H+  H190  1  0.86537999  0.89421390  0.33608017  1
  H+  H191  1  0.38061527  0.79444098  0.83896649  1
  H+  H192  1  0.33570622  0.91942193  0.72287879  1
  H+  H193  1  0.86712862  0.23403106  0.15896588  1
  H+  H194  1  0.65024558  1.03494408  0.32622273  1
  H+  H195  1  0.16581746  0.58675721  0.90005209  1
  H+  H196  1  0.41786853  0.84574710  0.93507909  1
  H+  H197  1  0.15063338  0.52081860  0.32940081  1
  H+  H198  1  0.02582058  0.88360074  0.82161324  1
  H+  H199  1  0.23424111  0.33767228  0.51231925  1
  H+  H200  1  0.13627793  0.36495980  0.84160020  1
  H+  H201  1  0.72432916  0.62542088  -0.00233574  1
  H+  H202  1  0.87574933  0.35581505  0.66277728  1
  H+  H203  1  0.85567651  0.85735139  0.82498750  1
  H+  H204  1  0.38317375  0.00658232  0.82217643  1
  H+  H205  1  0.32680745  0.84278700  0.13698346  1
  H+  H206  1  0.58149181  0.38034940  0.49685049  1
  H+  H207  1  0.90468932  0.53826741  0.49876676  1
  H+  H208  1  0.13741863  0.52089855  0.65588893  1
  H+  H209  1  0.97573743  0.86557442  0.98999160  1
  H+  H210  1  0.15405284  0.48846659  0.49115644  1
  H+  H211  1  0.85451668  0.39130671  0.01047289  1
  H+  H212  1  0.33679545  0.41729266  0.10624910  1
  H+  H213  1  0.28803231  0.93653110  0.81123759  1
  H+  H214  1  1.01865117  0.38518943  0.67099685  1
  H+  H215  1  0.85117771  0.93938610  0.83773081  1
  H+  H216  1  0.63668921  0.24470470  0.16194163  1
  H+  H217  1  0.85851229  0.46787193  0.66727604  1
  H+  H218  1  0.09351650  0.69895455  0.34513861  1
  H+  H219  1  0.63895026  0.87169410  0.17461810  1
  H+  H220  1  0.87685813  0.58670268  0.65950764  1
  H+  H221  1  0.35241944  0.68890320  0.39860872  1
  H+  H222  1  0.12122837  0.39727338  0.01015534  1
  H+  H223  1  0.78786632  0.15158627  0.33519052  1
  H+  H224  1  0.02952635  0.13838913  0.16459668  1
  H+  H225  1  0.17071060  0.83774704  0.18096357  1
  H+  H226  1  0.36586455  0.47681035  0.16605398  1
  H+  H227  1  0.87937156  0.27001222  0.66057906  1
  H+  H228  1  0.66762932  0.37413280  0.17340986  1
  H+  H229  1  0.20851178  0.77718589  0.18607497  1
  H+  H230  1  0.04034942  0.39223448  0.33662385  1
  H+  H231  1  0.09477282  0.95126127  0.38668759  1
  H+  H232  1  0.14995111  0.82716866  0.33896666  1
  H+  H233  1  0.75052245  0.38757724  0.32365278  1
  H+  H234  1  0.62601713  0.39992042  0.34269469  1
  H+  H235  1  0.72079688  0.61477380  0.17118607  1
  H+  H236  1  0.38915553  0.12296416  -0.00576848  1
  H+  H237  1  -0.03958970  0.87252534  0.16850044  1
  H+  H238  1  0.50311097  0.85222216  0.31101627  1
  H+  H239  1  0.11434362  0.97580522  0.00447469  1
  H+  H240  1  0.14108343  0.11537930  0.83799638  1
  H+  H241  1  0.83421993  0.15800610  0.06749708  1
  H+  H242  1  0.51627348  0.12137893  0.49146600  1
  H+  H243  1  0.10711257  0.38414656  0.66883417  1
  H+  H244  1  0.02115301  0.38337938  0.16114083  1
  H+  H245  1  0.10434998  0.98640793  0.16389649  1
  H+  H246  1  0.11984971  0.23163147  0.82717683  1
  H+  H247  1  0.50474957  0.14571351  0.17405278  1
  H+  H248  1  0.36497948  0.67165894  0.82028281  1
  H+  H249  1  0.58786982  0.17162825  0.43818818  1
  H+  H250  1  0.27498039  0.13632246  0.16950283  1
  H+  H251  1  0.64080557  0.52940445  0.32782116  1
  H+  H252  1  0.36830618  0.47142205  0.01365531  1
  H+  H253  1  0.83096404  0.67254187  0.10411287  1
  H+  H254  1  0.88737572  0.49900316  0.31434156  1
  H+  H255  1  0.22578522  0.10529220  0.50350641  1
  H+  H256  1  0.92127514  0.34357199  0.23474738  1
  H+  H257  1  0.52591266  0.89774388  0.83247615  1
  H+  H258  1  0.89068434  0.29611683  0.84425579  1
  H+  H259  1  0.09028617  0.16703543  0.07076160  1
  H+  H260  1  0.22376968  0.36182901  0.84733683  1
  H+  H261  1  0.69456929  0.33922114  0.51906742  1
  H+  H262  1  0.88967159  0.10889310  1.00045206  1
  H+  H263  1  0.28142568  0.14006445  0.66732724  1
  H+  H264  1  0.53149569  0.38515411  0.16296605  1
  H+  H265  1  0.52921608  0.14491485  0.00845595  1
  H+  H266  1  0.39156677  0.27213380  0.65524759  1
  H+  H267  1  0.40390329  0.89311243  0.36649843  1
  H+  H268  1  0.88903081  0.02711001  0.50345699  1
  H+  H269  1  0.88706068  0.06274711  0.83500595  1
  H+  H270  1  0.73149544  0.36909257  0.84032639  1
  H+  H271  1  0.63210165  0.52411783  0.84167334  1
  H+  H272  1  0.02298830  0.62826026  0.67099722  1
  H+  H273  1  0.89490454  0.12226486  0.32435828  1
  H+  H274  1  0.65142481  0.12891403  0.17290316  1
  H+  H275  1  -0.01356938  0.11781171  0.66020845  1
  H+  H276  1  0.85785252  0.48124637  0.82474275  1
  H+  H277  1  0.39351481  0.69605088  0.49105737  1
  H+  H278  1  0.61909771  0.23233840  0.00759100  1
  H+  H279  1  0.63084365  0.37243676  0.66490063  1
  H+  H280  1  0.86295130  0.73225777  1.00873182  1
  H+  H281  1  0.63239710  0.61489904  0.65647234  1
  H+  H282  1  0.96955384  0.60794105  0.84091660  1
  H+  H283  1  0.63355514  0.77703712  1.00026140  1
  H+  H284  1  0.89848297  0.62387550  0.50251813  1
  H+  H285  1  0.39942057  0.13106510  0.83698895  1
  H+  H286  1  0.61789146  0.64018228  0.33589992  1
  H+  H287  1  0.02404545  0.12863086  0.33919466  1
  H+  H288  1  0.66920718  0.84248344  0.56367176  1
  H+  H289  1  0.59064918  0.91751677  0.38997296  1
  H+  H290  1  0.58494501  0.67134380  0.07203123  1
  H+  H291  1  0.06696626  0.64686007  0.08201716  1
  H+  H292  1  0.66640402  0.08705348  0.90466838  1
  H+  H293  1  0.11991504  0.77817734  0.27592166  1
  H+  H294  1  0.66252061  0.58120953  0.23085808  1
  H+  H295  1  0.42653902  0.59008076  0.27500324  1
  H+  H296  1  0.78706025  0.08805475  0.71676927  1
  H+  H297  1  0.15986193  0.58133008  0.24064151  1
  H+  H298  1  0.84202284  0.66935900  0.38475555  1
  H+  H299  1  0.42079460  0.57286060  0.92136198  1
  H+  H300  1  0.29086980  0.75308679  0.10351744  1
  H+  H301  1  0.87452593  0.45334583  0.37981340  1
  H+  H302  1  0.83406575  0.92316791  0.39574259  1
  H+  H303  1  0.63859278  0.86450953  0.50098491  1
  H+  H304  1  0.91179778  0.84316611  0.26233345  1
  H+  H305  1  0.32039964  0.90006719  0.43562786  1
  H+  H306  1  0.62783729  0.24328265  0.84026045  1
  H+  H307  1  0.33623653  0.93713209  0.05227941  1
  H+  H308  1  0.67441148  0.83574675  0.26369976  1
  H+  H309  1  0.15002986  0.81676830  0.90975396  1
  H+  H310  1  0.66833892  0.33972445  0.93985189  1
  H+  H311  1  0.61318262  0.63828073  0.16525678  1
  H+  H312  1  0.42698080  0.10231953  0.89926248  1
  H+  H313  1  0.38534571  0.41456934  0.65469937  1
  H+  H314  1  0.66460131  0.59543614  0.93884531  1
  H+  H315  1  0.34160941  0.41355232  0.78571755  1
  H+  H316  1  0.92054830  0.08845061  0.23130679  1
  H+  H317  1  0.82632592  0.41618135  0.73148018  1
  H+  H318  1  0.58259846  0.92645790  0.77228642  1
  H+  H319  1  0.16145948  0.36593560  0.50306412  1
  H+  H320  1  0.16539196  0.82968443  0.56005551  1
  H+  H321  1  0.80353906  0.42397607  0.45780521  1
  H+  H322  1  0.16432978  0.32884684  0.59658616  1
  H+  H323  1  0.81735196  0.64089859  0.77316354  1
  H+  H324  1  0.77435342  0.13198851  0.47988774  1
  H+  H325  1  0.32602633  0.67209293  0.72809376  1
  H+  H326  1  0.58001974  0.41372291  0.76948924  1
  H+  H327  1  0.56355537  0.99124469  0.70157596  1
  H+  H328  1  0.58488630  0.40523434  0.07747582  1
  H+  H329  1  0.88988814  0.32897847  0.56115427  1
  H+  H330  1  0.42806095  0.34273952  0.27069874  1
  H+  H331  1  0.11667960  0.42727177  0.43380690  1
  H+  H332  1  0.59427295  0.67668746  0.43217263  1
  H+  H333  1  0.58069829  0.92260048  0.06970771  1
  H+  H334  1  0.87197820  0.12743634  0.67832204  1
  H+  H335  1  0.66142010  0.58470392  0.59581107  1
  H+  H336  1  0.45105544  0.11683100  0.26761589  1
  H+  H337  1  0.82431237  0.36833508  0.17518046  1
  H+  H338  1  0.39348020  0.60782954  1.00957843  1
  H+  H339  1  0.40462760  0.62600424  0.18930240  1
  H+  H340  1  0.41792582  0.05660299  0.17857905  1
  H+  H341  1  0.11574243  0.22060615  0.49269419  1
  H+  H342  1  0.08348121  0.60540820  0.15928769  1
  H+  H343  1  0.07719775  0.65847987  0.76641897  1
  H+  H344  1  0.16848288  0.08471060  0.93539395  1
  H+  H345  1  0.83615135  0.18606358  0.77685920  1
  H+  H346  1  0.07813687  0.92026434  0.06498390  1
  H+  H347  1  0.09036634  0.16974386  0.73103803  1
  H+  H348  1  0.25182357  0.64601850  0.50927024  1
  H+  H349  1  0.36720103  0.22706172  0.82825762  1
  H+  H350  1  0.42551119  0.32557888  0.90889274  1
  H+  H351  1  0.11422776  0.07625806  0.33809930  1
  H+  H352  1  0.14515932  0.11704341  0.65700019  1
  H+  H353  1  0.32856194  0.16299796  0.07134520  1
  H+  H354  1  0.51863967  0.89634322  0.67660486  1
  H+  H355  1  0.72905850  0.61925334  0.32117429  1
  H+  H356  1  0.17613124  0.58662487  0.59846194  1
  H+  H357  1  0.15832169  0.06940273  0.24060552  1
  H+  H358  1  0.92483532  0.36321468  0.93723061  1
  H+  H359  1  0.08602516  0.41954721  0.76543818  1
  H+  H360  1  0.08268677  0.15465002  0.39943539  1
  H+  H361  1  0.90402714  0.81086690  0.63831369  1
  H+  H362  1  0.65163903  0.32274516  0.60638456  1
  H+  H363  1  0.35973581  0.85709035  0.48166657  1
  H+  H364  1  0.92739165  0.09316674  0.93924642  1
  H+  H365  1  0.57415831  0.41981755  0.43381988  1
  H+  H366  1  0.91966738  0.08652285  0.56312957  1
  H+  H367  1  0.93314119  0.85334845  0.54682820  1
  H+  H368  1  0.82982785  0.92515587  0.09509102  1
  H+  H369  1  0.33988080  0.36455683  0.44836632  1
  H+  H370  1  0.08981095  0.65101144  0.41400648  1
  H+  H371  1  0.11963775  0.22603503  0.16651644  1
  H+  H372  1  0.84741743  0.17989463  0.39400595  1
  H+  H373  1  0.21511957  0.85460597  0.99815648  1
  H+  H374  1  0.83452460  0.91340255  0.73220112  1
  H+  H375  1  0.47584688  0.87119374  -0.00338406  1
  H+  H376  1  0.41531223  0.06590911  0.56107128  1
  H+  H377  1  0.09081740  0.42441649  0.07017796  1
  H+  H378  1  0.67347825  0.07493179  0.54596799  1
  H+  H379  1  0.65764054  0.83258860  0.93924948  1
  H+  H380  1  0.61666141  0.64504725  1.01028542  1
  H+  H381  1  0.46437685  0.78891617  0.25407330  1
  H+  H382  1  0.91818941  0.57854147  0.59661899  1
  H+  H383  1  0.74090564  0.58289403  0.68113079  1
  O2-  O384  1  0.09111007  0.16518296  0.15159871  1
  O2-  O385  1  0.08545704  0.16004136  0.47744575  1
  O2-  O386  1  0.09015200  0.17155775  0.81064973  1
  O2-  O387  1  0.08301496  0.41163320  0.14907399  1
  O2-  O388  1  0.12637768  0.42800260  0.47816752  1
  O2-  O389  1  0.08720429  0.41955813  0.81099225  1
  O2-  O390  1  0.05249625  0.63332195  0.14027172  1
  O2-  O391  1  0.09276586  0.66662502  0.48086528  1
  O2-  O392  1  0.07454553  0.65543718  0.81212340  1
  O2-  O393  1  0.06779740  0.92705846  0.14487190  1
  O2-  O394  1  0.09355152  0.92283537  0.46316351  1
  O2-  O395  1  0.08647806  0.91648197  0.80676248  1
  O2-  O396  1  0.33286301  0.16951444  0.15035092  1
  O2-  O397  1  0.33136119  0.14722838  0.47906201  1
  O2-  O398  1  0.33904676  0.16837806  0.80979855  1
  O2-  O399  1  0.33631776  0.41660922  0.15179202  1
  O2-  O400  1  0.33351674  0.33596049  0.49103826  1
  O2-  O401  1  0.33629128  0.40709420  0.82980650  1
  O2-  O402  1  0.33777766  0.64893462  0.05624039  1
  O2-  O403  1  0.35765658  0.71906953  0.47206515  1
  O2-  O404  1  0.32556881  0.69060242  0.80663349  1
  O2-  O405  1  0.29604579  0.78055334  0.14447534  1
  O2-  O406  1  0.33027422  0.89596407  0.47887407  1
  O2-  O407  1  0.34607252  0.94586757  0.80675957  1
  O2-  O408  1  0.59919946  0.18297758  0.14788011  1
  O2-  O409  1  0.57921413  0.16114609  0.48317089  1
  O2-  O410  1  0.59437165  0.17893970  0.82711975  1
  O2-  O411  1  0.59122106  0.41502280  0.14562724  1
  O2-  O412  1  0.56494168  0.42014905  0.47913827  1
  O2-  O413  1  0.58542336  0.41554108  0.81438483  1
  O2-  O414  1  0.58068459  0.66798016  0.15245721  1
  O2-  O415  1  0.59449642  0.67587388  0.47743644  1
  O2-  O416  1  0.57188825  0.66437664  0.81250041  1
  O2-  O417  1  0.59032082  0.93612927  0.15287058  1
  O2-  O418  1  0.58021096  0.90178825  0.46675252  1
  O2-  O419  1  0.58634597  0.92472488  0.81789578  1
  O2-  O420  1  0.83759565  0.17254580  0.14718844  1
  O2-  O421  1  0.83681212  0.17021066  0.47090424  1
  O2-  O422  1  0.83505321  0.18970150  0.82167504  1
  O2-  O423  1  0.88765832  0.40214231  0.17230651  1
  O2-  O424  1  0.86493986  0.44472549  0.45965919  1
  O2-  O425  1  0.82872263  0.42134722  0.80739101  1
  O2-  O426  1  0.82639619  0.67584663  0.14957404  1
  O2-  O427  1  0.84247091  0.66958980  0.46997835  1
  O2-  O428  1  0.82622959  0.65844618  0.81661384  1
  O2-  O429  1  0.82669704  0.92754422  0.14051614  1
  O2-  O430  1  0.83783938  0.92440290  0.47375713  1
  O2-  O431  1  0.82255180  0.88762117  0.81298109  1
  O2-  O432  1  0.16490866  0.07836965  0.19585954  1
  O2-  O433  1  0.16573201  0.07645673  0.51943264  1
  O2-  O434  1  0.17197032  0.08576689  0.85331161  1
  O2-  O435  1  0.16901573  0.33006349  0.19366524  1
  O2-  O436  1  0.17486621  0.32303056  0.52317274  1
  O2-  O437  1  0.16247094  0.33201180  0.85940476  1
  O2-  O438  1  0.15156034  0.57946796  0.19501385  1
  O2-  O439  1  0.19336054  0.60261343  0.52300163  1
  O2-  O440  1  0.17090067  0.58921987  0.85493078  1
  O2-  O441  1  0.15743940  0.78206514  0.19742421  1
  O2-  O442  1  0.16707639  0.82920229  0.51470741  1
  O2-  O443  1  0.15746172  0.81831814  0.86441066  1
  O2-  O444  1  0.44413383  0.11624534  0.19232177  1
  O2-  O445  1  0.41367261  0.06341662  0.51536398  1
  O2-  O446  1  0.43314302  0.10396940  0.85352081  1
  O2-  O447  1  0.42685261  0.33834583  0.18897414  1
  O2-  O448  1  0.40847096  0.39573387  0.52790335  1
  O2-  O449  1  0.42537490  0.32676849  0.86333221  1
  O2-  O450  1  0.42574056  0.58770443  0.20254903  1
  O2-  O451  1  0.43338816  0.63635291  0.51633580  1
  O2-  O452  1  0.41146600  0.56679782  0.87499437  1
  O2-  O453  1  0.42155608  0.73868327  0.16385959  1
  O2-  O454  1  0.40925458  0.81238525  0.48605692  1
  O2-  O455  1  0.41520362  0.85225735  0.85769100  1
  O2-  O456  1  0.67856847  0.09580686  0.18858886  1
  O2-  O457  1  0.66574157  0.07171039  0.50083545  1
  O2-  O458  1  0.66734199  0.09225468  0.85845289  1
  O2-  O459  1  0.69397886  0.34132267  0.18946634  1
  O2-  O460  1  0.63661335  0.31019448  0.53580566  1
  O2-  O461  1  0.67114541  0.33688849  0.85732575  1
  O2-  O462  1  0.65973670  0.58029477  0.18529543  1
  O2-  O463  1  0.67149605  0.58840079  0.51985782  1
  O2-  O464  1  0.66248961  0.58506884  0.85531592  1
  O2-  O465  1  0.66718990  0.83818887  0.18528824  1
  O2-  O466  1  0.67355928  0.84008980  0.51897131  1
  O2-  O467  1  0.65425753  0.82532056  0.85706513  1
  O2-  O468  1  0.92245301  0.09246302  0.18570461  1
  O2-  O469  1  0.91965539  0.08809323  0.51800673  1
  O2-  O470  1  0.92610371  0.11605050  0.85574513  1
  O2-  O471  1  0.91552893  0.34005148  0.18798026  1
  O2-  O472  1  0.86749491  0.32330671  0.51946916  1
  O2-  O473  1  0.92241610  0.35855285  0.85370481  1
  O2-  O474  1  0.88461583  0.57972899  0.21248607  1
  O2-  O475  1  0.92920635  0.59501549  0.52005722  1
  O2-  O476  1  0.91004646  0.57863677  0.85789197  1
  O2-  O477  1  0.90130354  0.84123878  0.18565390  1
  O2-  O478  1  0.92688640  0.84175390  0.50247819  1
  O2-  O479  1  0.91959615  0.82506095  0.84938450  1
  O2-  O480  1  0.14321350  0.04350299  0.32315396  1
  O2-  O481  1  0.17595141  0.08707812  0.64238568  1
  O2-  O482  1  0.16781646  0.08172649  0.98071591  1
  O2-  O483  1  0.17272218  0.32555016  0.31979809  1
  O2-  O484  1  0.16441571  0.33351738  0.64271199  1
  O2-  O485  1  0.17084110  0.33747397  0.98584228  1
  O2-  O486  1  0.17646212  0.58344285  0.31623598  1
  O2-  O487  1  0.17091321  0.58298125  0.64418497  1
  O2-  O488  1  0.15403039  0.58690970  0.98306976  1
  O2-  O489  1  0.10343218  0.77474913  0.31905905  1
  O2-  O490  1  0.16493281  0.82787663  0.64091835  1
  O2-  O491  1  0.15251830  0.81852954  0.98908341  1
  O2-  O492  1  0.45442888  0.11862336  0.31343896  1
  O2-  O493  1  0.41907727  0.07558970  0.63829835  1
  O2-  O494  1  0.42227770  0.09737231  0.97522500  1
  O2-  O495  1  0.43242530  0.34531873  0.31584078  1
  O2-  O496  1  0.42518984  0.33463447  0.64304160  1
  O2-  O497  1  0.42280033  0.32885796  0.98845549  1
  O2-  O498  1  0.43057154  0.59523280  0.32155171  1
  O2-  O499  1  0.43039244  0.61303318  0.64994622  1
  O2-  O500  1  0.42428797  0.58006991  0.99218002  1
  O2-  O501  1  0.44860393  0.80851914  0.29060395  1
  O2-  O502  1  0.42823748  0.83879393  0.64503097  1
  O2-  O503  1  0.41523381  0.84480026  0.98069583  1
  O2-  O504  1  0.68003846  0.09693843  0.31406521  1
  O2-  O505  1  0.68453266  0.08403947  0.62202129  1
  O2-  O506  1  0.66415058  0.08251052  0.97835116  1
  O2-  O507  1  0.68798845  0.35427033  0.31372838  1
  O2-  O508  1  0.66154252  0.33794458  0.65188937  1
  O2-  O509  1  0.66555622  0.33629003  0.98492924  1
  O2-  O510  1  0.66683293  0.58846113  0.30963066  1
  O2-  O511  1  0.65507063  0.57825102  0.64165544  1
  O2-  O512  1  0.66387510  0.59935539  0.98363441  1
  O2-  O513  1  0.67288775  0.83302411  0.30913942  1
  O2-  O514  1  0.66634499  0.84606275  0.65022418  1
  O2-  O515  1  0.66151519  0.83751434  0.98434407  1
  O2-  O516  1  0.92215148  0.08895187  0.30909674  1
  O2-  O517  1  0.92489136  0.08927209  0.64606345  1
  O2-  O518  1  0.92527168  0.08319910  0.98345825  1
  O2-  O519  1  0.93493263  0.34608185  0.30612311  1
  O2-  O520  1  0.90924389  0.32959912  0.64657324  1
  O2-  O521  1  0.92023661  0.36142271  0.98200240  1
  O2-  O522  1  0.91845830  0.59810720  0.27550212  1
  O2-  O523  1  0.91625109  0.56894350  0.64187359  1
  O2-  O524  1  0.90378285  0.58338468  0.98177328  1
  O2-  O525  1  0.91608494  0.84268589  0.30787155  1
  O2-  O526  1  0.93352123  0.87246089  0.62877606  1
  O2-  O527  1  0.91642097  0.83443757  0.97301244  1
  O2-  O528  1  0.09088304  0.16875068  0.02527720  1
  O2-  O529  1  0.08414774  0.15062637  0.35400213  1
  O2-  O530  1  0.08895179  0.16729061  0.68553034  1
  O2-  O531  1  0.09474602  0.43124841  0.02496077  1
  O2-  O532  1  0.10100830  0.42184565  0.35118652  1
  O2-  O533  1  0.07943402  0.41621368  0.68532115  1
  O2-  O534  1  0.07640273  0.65804330  0.03075630  1
  O2-  O535  1  0.08396315  0.64138632  0.36706495  1
  O2-  O536  1  0.08238541  0.66116723  0.68778625  1
  O2-  O537  1  0.08239426  0.91518470  0.02015050  1
  O2-  O538  1  0.08643173  0.95319442  0.34154876  1
  O2-  O539  1  0.08786688  0.92163380  0.67865007  1
  O2-  O540  1  0.33129546  0.16465048  0.02579729  1
  O2-  O541  1  0.34994788  0.18340829  0.35294874  1
  O2-  O542  1  0.34275489  0.17107208  0.68136982  1
  O2-  O543  1  0.33743506  0.41022596  0.02696474  1
  O2-  O544  1  0.33460928  0.39304925  0.38241612  1
  O2-  O545  1  0.36151352  0.44788543  0.63525857  1
  O2-  O546  1  0.30135564  0.70402868  0.03935924  1
  O2-  O547  1  0.34783751  0.67025103  0.35470045  1
  O2-  O548  1  0.33013176  0.66307729  0.68378795  1
  O2-  O549  1  0.32763305  0.92434774  0.00859673  1
  O2-  O550  1  0.24333189  0.92017285  0.36424597  1
  O2-  O551  1  0.33130237  0.91321626  0.67823705  1
  O2-  O552  1  0.58927168  0.17187130  0.02360964  1
  O2-  O553  1  0.61431114  0.19193251  0.36259119  1
  O2-  O554  1  0.55830403  0.08286225  0.70081391  1
  O2-  O555  1  0.57985404  0.39882102  0.03022142  1
  O2-  O556  1  0.59290304  0.42715105  0.35782250  1
  O2-  O557  1  0.58352596  0.41532243  0.68427219  1
  O2-  O558  1  0.58320469  0.67348397  0.02673599  1
  O2-  O559  1  0.58806556  0.67171573  0.35118679  1
  O2-  O560  1  0.58023245  0.68090493  0.69012478  1
  O2-  O561  1  0.57634348  0.91705840  0.02478152  1
  O2-  O562  1  0.59828607  0.92555613  0.34469205  1
  O2-  O563  1  0.57496759  0.94176878  0.69615902  1
  O2-  O564  1  0.83378876  0.14653754  0.02337108  1
  O2-  O565  1  0.84933041  0.18270226  0.34835374  1
  O2-  O566  1  0.82924379  0.14227464  0.69808522  1
  O2-  O567  1  0.81588408  0.41356205  0.02500107  1
  O2-  O568  1  0.86325927  0.44253733  0.33551523  1
  O2-  O569  1  0.82048935  0.40924182  0.68566756  1
  O2-  O570  1  0.83130146  0.67374509  0.02711968  1
  O2-  O571  1  0.83831590  0.67224630  0.33979653  1
  O2-  O572  1  0.78410208  0.57606858  0.70565978  1
  O2-  O573  1  0.83414953  0.91671076  0.01649991  1
  O2-  O574  1  0.83346646  0.92360385  0.35013049  1
  O2-  O575  1  0.83413568  0.92432581  0.68790001  1
