# generated using pymatgen
data_H2O
_symmetry_space_group_name_H-M   'P 1'
_cell_length_a   17.99209421
_cell_length_b   17.99274485
_cell_length_c   21.99952488
_cell_angle_alpha   90.01091700
_cell_angle_beta   89.99215507
_cell_angle_gamma   119.98956006
_symmetry_Int_Tables_number   1
_chemical_formula_structural   H2O
_chemical_formula_sum   'H384 O192'
_cell_volume   6168.34620186
_cell_formula_units_Z   192
loop_
 _symmetry_equiv_pos_site_id
 _symmetry_equiv_pos_as_xyz
  1  'x, y, z'
loop_
 _atom_type_symbol
 _atom_type_oxidation_number
  H+  1.0
  O2-  -2.0
loop_
 _atom_site_type_symbol
 _atom_site_label
 _atom_site_symmetry_multiplicity
 _atom_site_fract_x
 _atom_site_fract_y
 _atom_site_fract_z
 _atom_site_occupancy
  H+  H0  1  0.36639335  0.39866502  0.66814216  1
  H+  H1  1  0.63373021  0.89317568  0.68303337  1
  H+  H2  1  0.39064120  0.27094729  0.50694428  1
  H+  H3  1  0.28475980  0.40527542  0.81918227  1
  H+  H4  1  0.87285728  0.62885269  0.16682102  1
  H+  H5  1  0.23099299  0.37146097  0.66064289  1
  H+  H6  1  0.76096385  0.90490349  0.49816907  1
  H+  H7  1  0.15012054  0.54781371  0.65161061  1
  H+  H8  1  0.98566021  0.35955296  0.99752913  1
  H+  H9  1  0.36316398  0.97902527  0.15159153  1
  H+  H10  1  0.38763344  0.62361326  0.49520778  1
  H+  H11  1  0.11793602  0.22842601  0.34544834  1
  H+  H12  1  0.55260777  0.14681630  0.03609393  1
  H+  H13  1  0.71696519  0.60948002  0.54744704  1
  H+  H14  1  0.22145992  0.36068604  0.33424527  1
  H+  H15  1  0.83059347  0.71536109  0.49789696  1
  H+  H16  1  0.86814075  0.24223874  0.83067682  1
  H+  H17  1  0.13759714  0.77200590  0.34554533  1
  H+  H18  1  0.34714028  0.24912069  0.15576006  1
  H+  H19  1  0.11989172  0.73018148  1.00801776  1
  H+  H20  1  0.16356291  0.58072737  0.26399364  1
  H+  H21  1  0.11358805  0.63679738  0.15903560  1
  H+  H22  1  0.88865427  0.12035784  0.33390096  1
  H+  H23  1  0.61746026  0.47974445  0.49213890  1
  H+  H24  1  0.44033314  0.07310558  0.97686932  1
  H+  H25  1  0.11013721  0.47225790  0.00957917  1
  H+  H26  1  0.64202781  0.54069386  0.17828036  1
  H+  H27  1  0.86064806  0.22380920  0.34854336  1
  H+  H28  1  0.65125823  0.01271394  0.16280055  1
  H+  H29  1  0.47886487  0.37085615  0.65570967  1
  H+  H30  1  0.84559943  0.93181171  0.13990677  1
  H+  H31  1  0.22409110  0.61067615  0.17670287  1
  H+  H32  1  0.63754741  0.35435112  0.34086266  1
  H+  H33  1  0.36569394  0.50067287  0.82257135  1
  H+  H34  1  0.40197380  0.39371819  0.82985845  1
  H+  H35  1  0.52684409  0.38930771  0.80908693  1
  H+  H36  1  0.10711794  -0.03389152  0.50372664  1
  H+  H37  1  0.66287297  0.04505662  0.68643994  1
  H+  H38  1  0.11749090  0.65243494  0.82656687  1
  H+  H39  1  0.38770751  0.11230619  0.51232095  1
  H+  H40  1  0.97258078  0.36016437  0.33173279  1
  H+  H41  1  0.38442079  0.51402882  0.17727265  1
  H+  H42  1  0.21068170  0.09928447  0.99509204  1
  H+  H43  1  0.46209460  0.14115619  0.17263305  1
  H+  H44  1  0.55301794  0.86046154  0.27402806  1
  H+  H45  1  0.75534094  0.62571566  0.64998828  1
  H+  H46  1  0.24763474  0.12344966  0.16139207  1
  H+  H47  1  0.14391780  0.27219031  0.99967852  1
  H+  H48  1  0.01322750  0.13744344  0.82362396  1
  H+  H49  1  0.89152126  0.37518148  0.84416114  1
  H+  H50  1  0.85452575  0.73570958  0.34391452  1
  H+  H51  1  0.59831749  0.41006383  -0.04231711  1
  H+  H52  1  0.69761479  0.42239647  0.21120984  1
  H+  H53  1  0.02849722  0.14141060  0.34562886  1
  H+  H54  1  0.59879353  0.74259925  0.82567434  1
  H+  H55  1  0.26748807  0.38899233  0.16169424  1
  H+  H56  1  0.89304660  0.54940891  0.50291425  1
  H+  H57  1  0.90345174  0.52591057  0.17633030  1
  H+  H58  1  0.11590123  0.72815958  0.15759557  1
  H+  H59  1  0.61101450  0.22612003  0.48620856  1
  H+  H60  1  1.02493014  0.87929167  0.34890225  1
  H+  H61  1  0.40676905  0.57700827  0.40997326  1
  H+  H62  1  0.08100800  0.90694975  0.44391945  1
  H+  H63  1  0.11390836  0.63568099  0.33845502  1
  H+  H64  1  0.63283871  0.60902827  0.33188544  1
  H+  H65  1  0.27364794  0.13063873  0.49983415  1
  H+  H66  1  0.64496982  0.27937869  0.65876014  1
  H+  H67  1  0.78429838  0.89289640  0.34538230  1
  H+  H68  1  0.11943597  0.12599670  0.01508076  1
  H+  H69  1  0.14266847  0.37329787  0.65968576  1
  H+  H70  1  0.45632462  0.37722026  0.97899269  1
  H+  H71  1  0.12507777  0.54806502  0.49957286  1
  H+  H72  1  1.01960380  0.16967109  0.18728290  1
  H+  H73  1  0.39327472  0.01966182  0.66675528  1
  H+  H74  1  0.33775432  0.89561226  0.73495434  1
  H+  H75  1  0.09614719  0.16920823  0.11127466  1
  H+  H76  1  0.67576359  0.33761705  0.56345534  1
  H+  H77  1  0.88942563  0.86238196  0.32646316  1
  H+  H78  1  0.58970693  0.93168194  0.08319857  1
  H+  H79  1  0.13615200  0.87109633  0.52357484  1
  H+  H80  1  0.63582221  0.65353964  0.49602339  1
  H+  H81  1  0.02207225  0.64133192  0.82408502  1
  H+  H82  1  0.89156967  0.03086984  0.50639874  1
  H+  H83  1  0.77423202  0.13202031  0.34693856  1
  H+  H84  1  0.11742644  0.22933100  0.67727496  1
  H+  H85  1  0.88125690  0.03797470  0.69553725  1
  H+  H86  1  0.86570420  0.22157318  0.50506339  1
  H+  H87  1  0.57218784  0.91489836  0.47534206  1
  H+  H88  1  0.89044829  0.86249734  0.50972076  1
  H+  H89  1  0.39445423  0.34117123  0.92555813  1
  H+  H90  1  -0.00331603  0.11693166  0.50355549  1
  H+  H91  1  0.32574913  0.67450732  0.42989005  1
  H+  H92  1  0.69335605  0.84407057  0.98187549  1
  H+  H93  1  0.47278097  0.35074129  0.33214526  1
  H+  H94  1  0.23172407  0.68659221  0.88328449  1
  H+  H95  1  0.79224315  0.12745972  0.15773431  1
  H+  H96  1  0.57026111  0.59906000  0.69804176  1
  H+  H97  1  0.52526489  0.14164230  0.67644063  1
  H+  H98  1  0.11896050  0.14071901  0.67571775  1
  H+  H99  1  0.64925853  0.77825493  0.51552032  1
  H+  H100  1  0.33648580  0.61024904  0.81175946  1
  H+  H101  1  0.12320049  0.00944351  0.17316398  1
  H+  H102  1  0.52656863  0.39046361  0.49700684  1
  H+  H103  1  0.46759086  0.63018554  0.84339151  1
  H+  H104  1  0.36296342  0.47321081  0.49298117  1
  H+  H105  1  0.63380436  0.55004145  0.98229422  1
  H+  H106  1  0.89763826  0.37512805  0.66465956  1
  H+  H107  1  0.12216144  1.00320762  0.00137600  1
  H+  H108  1  0.36752753  0.22738652  0.67691414  1
  H+  H109  1  0.15046500  0.07806204  0.90781890  1
  H+  H110  1  0.64031642  0.62674330  0.17364129  1
  H+  H111  1  0.04154814  0.14620755  0.02471727  1
  H+  H112  1  0.02277443  0.87955807  0.15417845  1
  H+  H113  1  0.61164166  0.72011870  0.35291269  1
  H+  H114  1  0.98821230  0.61867893  0.17432554  1
  H+  H115  1  0.64146436  0.36751558  0.50645224  1
  H+  H116  1  0.11235557  0.64855917  0.66877907  1
  H+  H117  1  0.27099273  0.64034875  0.33160993  1
  H+  H118  1  0.69203178  0.29056279  0.96612894  1
  H+  H119  1  0.37323869  0.77008074  0.50760506  1
  H+  H120  1  0.10695769  0.38455226  0.34633087  1
  H+  H121  1  0.60352642  0.72080830  0.15700197  1
  H+  H122  1  0.11402013  0.13123227  0.17280822  1
  H+  H123  1  0.92308264  0.16881072  0.18101374  1
  H+  H124  1  0.79300970  0.39458747  0.16392368  1
  H+  H125  1  0.51953262  0.63185125  0.35652199  1
  H+  H126  1  0.34355756  0.81419943  -0.00525181  1
  H+  H127  1  0.39446603  0.87081537  0.16079421  1
  H+  H128  1  0.91812914  1.02514749  0.17317272  1
  H+  H129  1  0.67208182  0.63098923  0.63158757  1
  H+  H130  1  0.22535419  0.85772519  0.16589428  1
  H+  H131  1  0.03716793  0.40598668  0.66960451  1
  H+  H132  1  0.04328461  0.88606214  -0.00568442  1
  H+  H133  1  0.37715852  0.68459627  0.00764195  1
  H+  H134  1  0.63930342  0.09770568  0.32126520  1
  H+  H135  1  0.61070314  0.22979745  0.82829356  1
  H+  H136  1  0.38504036  0.11481551  0.32733810  1
  H+  H137  1  0.62334164  0.39432183  0.65536471  1
  H+  H138  1  0.45631399  0.62536456  0.99344096  1
  H+  H139  1  0.35534438  0.46549511  0.35067076  1
  H+  H140  1  0.99092552  0.85879244  0.84357197  1
  H+  H141  1  0.32453613  0.42238210  0.09815528  1
  H+  H142  1  0.45851738  0.85605798  0.52816717  1
  H+  H143  1  0.48483495  0.87174638  0.15462348  1
  H+  H144  1  0.26567569  0.64246260  0.48906456  1
  H+  H145  1  0.63441487  0.85763392  0.52970258  1
  H+  H146  1  0.22993960  0.11517900  0.66581764  1
  H+  H147  1  0.36309002  0.54525702  0.99584744  1
  H+  H148  1  0.12797914  0.41756031  0.82607139  1
  H+  H149  1  0.08263180  0.41039585  0.10361716  1
  H+  H150  1  0.91155827  0.53170817  -0.00951421  1
  H+  H151  1  0.27050816  0.69048004  0.65108495  1
  H+  H152  1  0.86011116  0.36885688  0.34479560  1
  H+  H153  1  0.34581398  -0.05352033  0.99848248  1
  H+  H154  1  0.82366869  0.94021795  -0.00513714  1
  H+  H155  1  0.13041081  0.89631604  0.82934835  1
  H+  H156  1  0.74577925  0.13922343  0.68024865  1
  H+  H157  1  0.11854602  0.21495231  0.49984945  1
  H+  H158  1  0.38642623  0.67454152  0.66420173  1
  H+  H159  1  0.54418725  0.31410143  0.11421132  1
  H+  H160  1  0.64629000  0.63811534  0.83544364  1
  H+  H161  1  0.41752746  0.07936303  0.60810856  1
  H+  H162  1  0.32560290  0.18251493  0.77748446  1
  H+  H163  1  0.13612458  0.09912535  0.51280315  1
  H+  H164  1  0.13765963  0.85842448  0.16361606  1
  H+  H165  1  0.80597298  0.40330994  1.00821778  1
  H+  H166  1  1.03058594  0.65690253  0.49383285  1
  H+  H167  1  0.84002400  0.16411881  0.44398153  1
  H+  H168  1  0.06910287  0.41398074  0.51470953  1
  H+  H169  1  0.02515118  0.38198883  0.16477714  1
  H+  H170  1  0.13635049  0.77809855  0.66909042  1
  H+  H171  1  0.74042758  0.09311893  0.53434574  1
  H+  H172  1  0.93602996  0.05809280  0.96877107  1
  H+  H173  1  0.57579797  0.41182356  0.12408582  1
  H+  H174  1  0.12445683  0.50179875  0.82692495  1
  H+  H175  1  0.88449328  0.61420773  0.83623879  1
  H+  H176  1  0.86142935  0.40421650  0.49686592  1
  H+  H177  1  0.35835639  0.08409425  -0.01875606  1
  H+  H178  1  0.14474423  0.25866315  0.84197839  1
  H+  H179  1  0.61151350  0.28781384  0.17709488  1
  H+  H180  1  0.36390865  0.72705243  0.32757661  1
  H+  H181  1  0.36110457  0.72001988  0.15905743  1
  H+  H182  1  0.39102421  0.36021564  0.50577636  1
  H+  H183  1  0.87041431  0.48182645  0.67389863  1
  H+  H184  1  0.63355436  0.36464687  0.82127312  1
  H+  H185  1  0.23365039  0.87643480  0.52717256  1
  H+  H186  1  0.58342959  0.17214340  0.76894405  1
  H+  H187  1  0.13647813  0.10533715  0.33135215  1
  H+  H188  1  0.72952029  0.12199254  0.83157821  1
  H+  H189  1  0.11343581  0.38394678  1.00900079  1
  H+  H190  1  0.36532815  0.13767574  0.68198102  1
  H+  H191  1  0.11619913  0.88435768  0.35580992  1
  H+  H192  1  0.36125132  0.63323669  0.17125143  1
  H+  H193  1  0.47973145  0.62462582  0.49931794  1
  H+  H194  1  0.13269693  0.60515544  0.99709184  1
  H+  H195  1  0.12173817  0.10603247  0.84639192  1
  H+  H196  1  0.86127485  0.03402920  0.81692581  1
  H+  H197  1  0.66398975  0.10547786  0.16979266  1
  H+  H198  1  0.33957018  0.43674304  0.72481612  1
  H+  H199  1  0.60127101  0.89300042  -0.00332057  1
  H+  H200  1  0.13652330  0.52401124  0.32518986  1
  H+  H201  1  0.22775779  0.86026582  0.34083722  1
  H+  H202  1  0.61532377  0.96544280  0.53549578  1
  H+  H203  1  0.63088436  -0.00751921  0.99677061  1
  H+  H204  1  0.87204799  0.72492885  0.82512737  1
  H+  H205  1  0.62536972  0.63202835  0.98630880  1
  H+  H206  1  0.88008036  0.83905123  0.17184966  1
  H+  H207  1  0.14725264  0.28092150  0.18011114  1
  H+  H208  1  0.23617579  0.62979167  0.82980736  1
  H+  H209  1  0.12181217  0.98128157  0.83344430  1
  H+  H210  1  0.89445986  0.03518214  0.31935656  1
  H+  H211  1  0.02409165  0.63558448  0.33936007  1
  H+  H212  1  0.13523528  0.52143859  0.17352180  1
  H+  H213  1  0.35356799  0.87610063  0.50796476  1
  H+  H214  1  0.52113553  0.62701198  0.16274648  1
  H+  H215  1  0.27819569  0.38099890  0.50235318  1
  H+  H216  1  0.54936352  0.08256381  0.14093481  1
  H+  H217  1  0.61692787  0.14639060  0.68116505  1
  H+  H218  1  0.88986319  0.27096401  0.17643335  1
  H+  H219  1  0.89351713  0.75942441  0.17787382  1
  H+  H220  1  0.23259491  0.86341575  0.67230589  1
  H+  H221  1  0.26466050  0.39898756  0.01066500  1
  H+  H222  1  0.23388745  0.85477966  0.84345345  1
  H+  H223  1  0.47397620  0.89320603  0.30667918  1
  H+  H224  1  0.89314167  0.61819473  0.32777316  1
  H+  H225  1  0.34683004  0.21498072  0.00234978  1
  H+  H226  1  0.11723954  0.89420304  0.68056898  1
  H+  H227  1  0.87677256  0.01936446  0.18665738  1
  H+  H228  1  0.94216052  0.86230004  0.02192105  1
  H+  H229  1  0.59322877  -0.01727011  0.82222752  1
  H+  H230  1  -0.01780571  0.37929676  0.84278159  1
  H+  H231  1  0.87164794  0.09217070  0.98689978  1
  H+  H232  1  0.52520643  0.13361162  0.33374906  1
  H+  H233  1  0.76215124  0.36537134  0.34803721  1
  H+  H234  1  0.52276555  0.13845990  0.48986818  1
  H+  H235  1  0.36127253  0.21907221  0.34496222  1
  H+  H236  1  0.40689818  0.09273500  0.23054598  1
  H+  H237  1  0.44195865  0.88340889  0.82369269  1
  H+  H238  1  -0.02370956  0.61643934  0.66079514  1
  H+  H239  1  0.77118067  0.39914296  0.49122428  1
  H+  H240  1  0.38699664  1.02342184  0.51413090  1
  H+  H241  1  0.70096555  0.88243143  0.82606211  1
  H+  H242  1  0.61125411  0.88587408  0.13881438  1
  H+  H243  1  0.90323825  0.28791158  0.66609596  1
  H+  H244  1  0.47756193  0.09558170  0.83467506  1
  H+  H245  1  0.13811611  0.77638898  0.84019568  1
  H+  H246  1  0.56187361  0.91074737  0.65882652  1
  H+  H247  1  0.13662951  0.64171938  0.50064365  1
  H+  H248  1  0.14366807  0.34398151  0.51108494  1
  H+  H249  1  0.61724743  0.46907728  0.34123351  1
  H+  H250  1  0.71471879  0.84600534  0.15680009  1
  H+  H251  1  0.08160852  0.16470542  0.76920423  1
  H+  H252  1  0.85907226  0.66698122  0.07005011  1
  H+  H253  1  0.75700938  0.63803006  0.34073323  1
  H+  H254  1  0.38779342  1.02783110  0.31626059  1
  H+  H255  1  0.88610900  0.76263716  1.00405351  1
  H+  H256  1  0.87654272  0.15491078  0.68217460  1
  H+  H257  1  0.87901867  0.22408437  0.00570047  1
  H+  H258  1  0.26588563  0.15573600  0.83637417  1
  H+  H259  1  0.62948678  0.48549708  0.65091233  1
  H+  H260  1  0.66062460  0.33312009  1.01284799  1
  H+  H261  1  0.78526331  0.63472833  0.16338400  1
  H+  H262  1  0.76677993  0.89387640  0.71578047  1
  H+  H263  1  0.64087607  0.76606292  0.67488260  1
  H+  H264  1  0.82982151  0.85417003  -0.00418708  1
  H+  H265  1  0.55581085  0.09473416  0.17432593  1
  H+  H266  1  0.63514963  0.95281275  0.28293371  1
  H+  H267  1  0.88591115  0.61240868  0.66267986  1
  H+  H268  1  0.33050559  0.15967449  0.43893417  1
  H+  H269  1  0.13994800  0.87084129  0.99907256  1
  H+  H270  1  0.88749147  0.39111849  0.01042975  1
  H+  H271  1  0.25685680  0.86513441  0.00971924  1
  H+  H272  1  0.37836152  0.96472585  0.82535904  1
  H+  H273  1  0.73671938  0.36692931  0.65864228  1
  H+  H274  1  0.37908026  0.53240736  0.65040145  1
  H+  H275  1  -0.01778091  0.39867904  0.49146249  1
  H+  H276  1  0.86516423  0.48181810  0.82690869  1
  H+  H277  1  0.35503750  0.40639049  1.00440169  1
  H+  H278  1  0.38054269  0.61405399  0.35458184  1
  H+  H279  1  0.43949845  0.33750862  0.13660156  1
  H+  H280  1  0.27230875  0.12839662  0.34361443  1
  H+  H281  1  0.90526856  0.12729702  0.51001179  1
  H+  H282  1  0.64841507  0.11399872  -0.01852760  1
  H+  H283  1  0.65819810  0.84415641  0.40061874  1
  H+  H284  1  0.58425498  0.72742904  1.00096150  1
  H+  H285  1  0.87240816  0.72908750  0.67438570  1
  H+  H286  1  0.97868664  0.86169096  0.66412529  1
  H+  H287  1  0.89293124  0.36136853  0.17845799  1
  H+  H288  1  0.97301922  0.11489937  0.67777575  1
  H+  H289  1  0.58657177  0.41418830  0.40233429  1
  H+  H290  1  0.92241093  0.58835088  0.89454432  1
  H+  H291  1  0.08738683  0.66791394  0.06645981  1
  H+  H292  1  0.16606747  0.83584681  0.93863334  1
  H+  H293  1  0.90143690  0.33031847  0.58096175  1
  H+  H294  1  0.92891861  0.82656825  0.90103090  1
  H+  H295  1  0.89077696  0.64437912  0.00754040  1
  H+  H296  1  0.16531328  0.60432495  0.59111641  1
  H+  H297  1  0.85228235  0.16553929  0.09783626  1
  H+  H298  1  0.80970754  0.66897330  0.40861567  1
  H+  H299  1  0.38534107  0.29770843  0.83424981  1
  H+  H300  1  0.32035854  0.65422854  0.75430219  1
  H+  H301  1  0.30565553  0.89776017  0.45337436  1
  H+  H302  1  0.56528001  0.92296703  0.76406394  1
  H+  H303  1  0.92080381  0.82565297  0.60476515  1
  H+  H304  1  0.68761689  0.34924170  0.25590151  1
  H+  H305  1  0.58076811  0.15907222  0.39539611  1
  H+  H306  1  0.97084558  0.84958791  0.50567306  1
  H+  H307  1  0.08524692  0.67690135  0.43243126  1
  H+  H308  1  0.43367891  0.84171848  0.24135106  1
  H+  H309  1  0.16415450  0.57671825  0.93931387  1
  H+  H310  1  0.64768883  0.85558711  0.32997001  1
  H+  H311  1  0.59537236  0.99708415  0.40913826  1
  H+  H312  1  0.17196516  0.84904132  0.59457004  1
  H+  H313  1  0.68771292  0.07703962  0.59720096  1
  H+  H314  1  0.36228267  0.88051432  0.31275029  1
  H+  H315  1  0.17055806  0.32455686  0.93716092  1
  H+  H316  1  0.84127867  0.42137695  0.73350464  1
  H+  H317  1  0.13847925  0.36601206  0.17680355  1
  H+  H318  1  0.66665574  0.35202827  0.88620873  1
  H+  H319  1  0.92328927  0.58847630  0.26964627  1
  H+  H320  1  0.40090656  0.59847008  0.90017325  1
  H+  H321  1  0.16956379  0.32464497  0.57638583  1
  H+  H322  1  0.81526947  0.29147963  0.54267746  1
  H+  H323  1  0.08783151  0.16207217  0.43585905  1
  H+  H324  1  0.10009351  0.44193501  0.72635253  1
  H+  H325  1  0.80409051  0.87183233  0.08297630  1
  H+  H326  1  0.83180178  0.41021671  0.40768645  1
  H+  H327  1  0.83385111  0.66575005  0.73327334  1
  H+  H328  1  0.08202589  0.91524391  0.09294159  1
  H+  H329  1  0.92248889  0.59602278  0.56611009  1
  H+  H330  1  0.34248507  0.84946989  0.67493469  1
  H+  H331  1  0.85286957  0.42016629  0.10330906  1
  H+  H332  1  0.85313100  0.93613165  0.39436103  1
  H+  H333  1  0.91102664  0.32623900  0.27275595  1
  H+  H334  1  0.59369425  0.95763704  0.39548243  1
  H+  H335  1  0.86579442  0.15113812  0.82474211  1
  H+  H336  1  0.68342975  0.82951024  0.61946975  1
  H+  H337  1  0.41173964  0.59058409  0.59071146  1
  H+  H338  1  0.65380095  0.84741144  0.21086576  1
  H+  H339  1  0.41623829  0.56880628  0.23801800  1
  H+  H340  1  0.68544425  0.09550566  0.92130541  1
  H+  H341  1  0.66964206  0.59077561  0.27022681  1
  H+  H342  1  0.16735054  0.07471551  0.57404118  1
  H+  H343  1  0.40257584  0.05690709  0.88539219  1
  H+  H344  1  0.64024875  0.12196484  0.83610396  1
  H+  H345  1  0.13394936  0.01525416  0.33488776  1
  H+  H346  1  0.08132602  0.67219183  0.73142787  1
  H+  H347  1  0.07118319  0.41872502  0.40076027  1
  H+  H348  1  0.32432390  0.39896940  0.40336863  1
  H+  H349  1  0.15422806  0.06483492  0.23683714  1
  H+  H350  1  0.08760168  0.92470080  0.73844572  1
  H+  H351  1  0.23507620  0.29019296  0.86925652  1
  H+  H352  1  0.59520143  0.22070125  0.12661448  1
  H+  H353  1  0.31974734  0.15676878  0.06215643  1
  H+  H354  1  0.13959255  1.02626426  0.66721143  1
  H+  H355  1  0.52735521  0.05028543  0.03813530  1
  H+  H356  1  0.58355041  0.41205851  0.74772711  1
  H+  H357  1  0.56476736  0.66846674  0.06113708  1
  H+  H358  1  0.91258824  0.82090945  0.26941685  1
  H+  H359  1  0.41380203  0.33294776  0.60160068  1
  H+  H360  1  0.89492667  0.07679064  0.88283199  1
  H+  H361  1  0.78729274  0.14048413  0.00346060  1
  H+  H362  1  0.68467945  0.08431629  0.26325153  1
  H+  H363  1  0.38467633  0.35058720  0.33110015  1
  H+  H364  1  0.56535148  0.67575372  0.77081667  1
  H+  H365  1  0.92537152  0.33465486  0.93753784  1
  H+  H366  1  0.33285893  0.91236398  0.09491293  1
  H+  H367  1  0.59525484  0.67245600  0.43961409  1
  H+  H368  1  0.63614729  0.82902413  0.92298159  1
  H+  H369  1  0.35737589  0.35569755  0.15376255  1
  H+  H370  1  0.95097519  0.14132291  0.24870249  1
  H+  H371  1  0.50937617  0.62838384  0.66675843  1
  H+  H372  1  0.63403175  0.26046711  0.33443366  1
  H+  H373  1  0.38445983  0.92435493  0.37557766  1
  H+  H374  1  0.67703343  0.61468593  0.89566757  1
  H+  H375  1  0.77617127  0.39128922  0.82416766  1
  H+  H376  1  0.16383556  0.33614885  0.27465129  1
  H+  H377  1  0.77577350  0.64522405  0.82465813  1
  H+  H378  1  0.34256307  0.13364063  0.16195220  1
  H+  H379  1  0.56735102  0.40308476  0.02648265  1
  H+  H380  1  0.99706134  0.62178447  0.98818595  1
  H+  H381  1  0.60693705  0.86953453  0.83429670  1
  H+  H382  1  0.84966037  0.19399470  0.73829332  1
  H+  H383  1  0.78201060  0.98254376  0.45501841  1
  O2-  O384  1  0.09457882  0.17188027  0.15696455  1
  O2-  O385  1  0.08374518  0.15607551  0.48189708  1
  O2-  O386  1  0.07625041  0.16427914  0.81467874  1
  O2-  O387  1  0.08520734  0.41087916  0.14935416  1
  O2-  O388  1  0.04347771  0.42801050  0.48078163  1
  O2-  O389  1  0.09445880  0.44283800  0.81121047  1
  O2-  O390  1  0.08233327  0.66568794  0.14342008  1
  O2-  O391  1  0.09047738  0.68479685  0.47739192  1
  O2-  O392  1  0.08215632  0.67501414  0.80777451  1
  O2-  O393  1  0.08248042  0.91542347  0.13951774  1
  O2-  O394  1  0.07782253  0.90458797  0.48977894  1
  O2-  O395  1  0.09684355  0.92305719  0.81449102  1
  O2-  O396  1  0.30786084  0.15865816  0.14413365  1
  O2-  O397  1  0.33378907  0.16341757  0.48442034  1
  O2-  O398  1  0.32316957  0.19785438  0.82023523  1
  O2-  O399  1  0.32761991  0.41475886  0.14402835  1
  O2-  O400  1  0.33519113  0.41150230  0.48194857  1
  O2-  O401  1  0.34191633  0.44310089  0.80154155  1
  O2-  O402  1  0.32503215  0.65712197  0.15871487  1
  O2-  O403  1  0.32708772  0.66893338  0.47484722  1
  O2-  O404  1  0.29040838  0.61090976  0.78670373  1
  O2-  O405  1  0.33898591  0.91808189  0.14072158  1
  O2-  O406  1  0.32234088  0.91065037  0.49587626  1
  O2-  O407  1  0.34183381  0.89931823  0.81065693  1
  O2-  O408  1  0.56563107  0.24535638  0.14868093  1
  O2-  O409  1  0.57905772  0.16789062  0.46871674  1
  O2-  O410  1  0.58370830  0.16879933  0.81451087  1
  O2-  O411  1  0.53290061  0.36162554  0.10191395  1
  O2-  O412  1  0.58668786  0.41907166  0.47993278  1
  O2-  O413  1  0.58243162  0.40062325  0.79177955  1
  O2-  O414  1  0.57995120  0.65930233  0.14499301  1
  O2-  O415  1  0.59821187  0.67736709  0.48494266  1
  O2-  O416  1  0.56869676  0.67954388  0.81542891  1
  O2-  O417  1  0.58888917  0.92564563  0.13038516  1
  O2-  O418  1  0.57365687  0.90495881  0.51892236  1
  O2-  O419  1  0.55282011  0.92327912  0.80809429  1
  O2-  O420  1  0.85254408  0.16725066  0.14371507  1
  O2-  O421  1  0.84826896  0.16319474  0.48907525  1
  O2-  O422  1  0.83595790  0.18402446  0.81205013  1
  O2-  O423  1  0.85245429  0.41910629  0.14916155  1
  O2-  O424  1  0.83239935  0.42973704  0.47421480  1
  O2-  O425  1  0.83825422  0.42030082  0.81278479  1
  O2-  O426  1  0.84572237  0.66234806  0.15032169  1
  O2-  O427  1  0.79802094  0.65760695  0.47730232  1
  O2-  O428  1  0.83587624  0.66518314  0.80842204  1
  O2-  O429  1  0.81039127  0.87100490  0.12895494  1
  O2-  O430  1  0.80919932  0.95172639  0.47202860  1
  O2-  O431  1  0.78909221  0.95637699  0.79202910  1
  O2-  O432  1  0.15220673  0.06939287  0.19151125  1
  O2-  O433  1  0.16619996  0.06951718  0.52813113  1
  O2-  O434  1  0.15729146  0.08216484  0.86249288  1
  O2-  O435  1  0.17370279  0.34130910  0.19440051  1
  O2-  O436  1  0.17248859  0.31635103  0.53009813  1
  O2-  O437  1  0.19476490  0.31072601  0.86192559  1
  O2-  O438  1  0.16170121  0.58098390  0.18953193  1
  O2-  O439  1  0.16492333  0.60566659  0.51515070  1
  O2-  O440  1  0.19449831  0.63431389  0.86026916  1
  O2-  O441  1  0.16466428  0.82559170  0.17873826  1
  O2-  O442  1  0.17368805  0.85209040  0.54547464  1
  O2-  O443  1  0.17455499  0.83499026  0.85791604  1
  O2-  O444  1  0.40419997  0.09633262  0.18484434  1
  O2-  O445  1  0.41939476  0.08380562  0.52822782  1
  O2-  O446  1  0.41574963  0.05362954  0.84197082  1
  O2-  O447  1  0.38591328  0.31680904  0.16154332  1
  O2-  O448  1  0.42272404  0.33191747  0.52144931  1
  O2-  O449  1  0.42485956  0.35882843  0.84816515  1
  O2-  O450  1  0.41856299  0.57373599  0.19387329  1
  O2-  O451  1  0.41630634  0.58835572  0.50211784  1
  O2-  O452  1  0.40541392  0.59503901  0.85495915  1
  O2-  O453  1  0.42712663  0.84189532  0.17492564  1
  O2-  O454  1  0.39521841  0.82776803  0.52646247  1
  O2-  O455  1  0.38110014  0.85271652  0.83845156  1
  O2-  O456  1  0.68979067  0.07167852  0.18320937  1
  O2-  O457  1  0.68660473  0.05449412  0.55527789  1
  O2-  O458  1  0.66984047  0.08944442  0.84853967  1
  O2-  O459  1  0.69484353  0.36683639  0.21110303  1
  O2-  O460  1  0.67608269  0.34026855  0.51767584  1
  O2-  O461  1  0.66720634  0.33942210  0.84310804  1
  O2-  O462  1  0.67371890  0.59985915  0.19233621  1
  O2-  O463  1  0.70913205  0.61446010  0.50194294  1
  O2-  O464  1  0.68017633  0.61263909  0.85026506  1
  O2-  O465  1  0.65387645  0.82680797  0.16944958  1
  O2-  O466  1  0.67727192  0.83744787  0.53352086  1
  O2-  O467  1  0.64323078  0.84431418  0.84619888  1
  O2-  O468  1  0.97292632  0.17785899  0.20992460  1
  O2-  O469  1  0.93341982  0.09102215  0.52156538  1
  O2-  O470  1  0.90694310  0.09139140  0.83950230  1
  O2-  O471  1  0.91914762  0.32821423  0.19628063  1
  O2-  O472  1  0.87723265  0.31727584  0.53653365  1
  O2-  O473  1  0.92363072  0.34641009  0.85975599  1
  O2-  O474  1  0.92755387  0.58559900  0.19151380  1
  O2-  O475  1  0.92793506  0.60612822  0.52146464  1
  O2-  O476  1  0.91770312  0.58502783  0.84917750  1
  O2-  O477  1  0.91671251  0.82038910  0.19272486  1
  O2-  O478  1  0.90837800  0.82051057  0.51750023  1
  O2-  O479  1  0.93037469  0.82228268  0.85667760  1
  O2-  O480  1  0.16448974  0.07370617  0.31556128  1
  O2-  O481  1  0.16988849  0.08597550  0.64943807  1
  O2-  O482  1  0.14841123  0.07121064  0.98613010  1
  O2-  O483  1  0.16013215  0.33207712  0.31997519  1
  O2-  O484  1  0.16942713  0.33855009  0.64662860  1
  O2-  O485  1  0.16517557  0.33022735  0.98186851  1
  O2-  O486  1  0.16843086  0.58385128  0.30998802  1
  O2-  O487  1  0.16993780  0.60698011  0.63684446  1
  O2-  O488  1  0.15263943  0.56535106  0.98292062  1
  O2-  O489  1  0.16565030  0.83605022  0.34393089  1
  O2-  O490  1  0.17163985  0.84112749  0.65706039  1
  O2-  O491  1  0.16409541  0.83302436  0.98386274  1
  O2-  O492  1  0.41726363  0.08950238  0.30577147  1
  O2-  O493  1  0.41903326  0.08003265  0.65359621  1
  O2-  O494  1  0.38031457  0.04809979  0.96338054  1
  O2-  O495  1  0.41253366  0.31758016  0.31849900  1
  O2-  O496  1  0.41612409  0.33888247  0.64678111  1
  O2-  O497  1  0.39376909  0.34148647  0.97122429  1
  O2-  O498  1  0.41048769  0.58095244  0.36524469  1
  O2-  O499  1  0.41216403  0.59336090  0.63551016  1
  O2-  O500  1  0.39586507  0.60371284  0.97859863  1
  O2-  O501  1  0.43866353  0.83630084  0.28899918  1
  O2-  O502  1  0.32974787  0.74246525  0.65156203  1
  O2-  O503  1  0.34923058  0.76698768  0.97500400  1
  O2-  O504  1  0.67586185  0.07354904  0.30773816  1
  O2-  O505  1  0.68312335  0.10314597  0.66951619  1
  O2-  O506  1  0.69108414  0.09891844  0.96743936  1
  O2-  O507  1  0.66953618  0.32493065  0.32553997  1
  O2-  O508  1  0.67791593  0.33799608  0.64026307  1
  O2-  O509  1  0.69614146  0.34524622  0.97664238  1
  O2-  O510  1  0.66892938  0.58504790  0.31563251  1
  O2-  O511  1  0.70079445  0.59836407  0.62268940  1
  O2-  O512  1  0.66456376  0.61150608  0.97276706  1
  O2-  O513  1  0.67289799  0.83205456  0.36048133  1
  O2-  O514  1  0.67528895  0.82739274  0.66404010  1
  O2-  O515  1  0.63343848  0.82454547  0.96850314  1
  O2-  O516  1  0.92416915  0.09855300  0.31322367  1
  O2-  O517  1  0.91088582  0.08995074  0.66976454  1
  O2-  O518  1  0.87715564  0.04597237  0.96492675  1
  O2-  O519  1  0.91033012  0.32681696  0.31868884  1
  O2-  O520  1  0.93009189  0.34762237  0.64683605  1
  O2-  O521  1  0.92383869  0.32827583  0.98283346  1
  O2-  O522  1  0.92219716  0.58733946  0.31501169  1
  O2-  O523  1  0.91556638  0.58157227  0.64659360  1
  O2-  O524  1  0.93612173  0.58961776  0.97230664  1
  O2-  O525  1  0.90952646  0.82145275  0.31545127  1
  O2-  O526  1  0.91892933  0.82488146  0.64938585  1
  O2-  O527  1  0.90329115  0.82499136  0.99029740  1
  O2-  O528  1  0.10174958  0.16911044  0.03471764  1
  O2-  O529  1  0.08828809  0.16778306  0.36120769  1
  O2-  O530  1  0.08798849  0.16947396  0.69249808  1
  O2-  O531  1  0.08155972  0.41097054  0.02642916  1
  O2-  O532  1  0.07401416  0.41450548  0.35611354  1
  O2-  O533  1  0.09928186  0.43725520  0.68144214  1
  O2-  O534  1  0.09111704  0.66851052  0.02088010  1
  O2-  O535  1  0.08459153  0.66559466  0.35526390  1
  O2-  O536  1  0.08131014  0.67711194  0.68584527  1
  O2-  O537  1  0.09265817  0.92132539  0.02000642  1
  O2-  O538  1  0.08242676  0.91444684  0.36694928  1
  O2-  O539  1  0.08621644  0.92463124  0.69264899  1
  O2-  O540  1  0.32336358  0.15554830  0.01712420  1
  O2-  O541  1  0.33206393  0.15740914  0.35993764  1
  O2-  O542  1  0.33454510  0.16842187  0.69385942  1
  O2-  O543  1  0.32525421  0.43355794  0.02552450  1
  O2-  O544  1  0.32407041  0.40273229  0.35803001  1
  O2-  O545  1  0.33567489  0.43034787  0.67931159  1
  O2-  O546  1  0.37714855  0.73538574  0.02638654  1
  O2-  O547  1  0.33116152  0.67183383  0.34896004  1
  O2-  O548  1  0.37801609  0.71485997  0.69045935  1
  O2-  O549  1  0.32002062  0.89171573  0.02154099  1
  O2-  O550  1  0.34981971  0.91697377  0.33951851  1
  O2-  O551  1  0.33224906  0.89586732  0.68933650  1
  O2-  O552  1  0.54313177  0.09864679  0.01058242  1
  O2-  O553  1  0.58522334  0.15925464  0.34911718  1
  O2-  O554  1  0.58567066  0.17762300  0.69129645  1
  O2-  O555  1  0.57008948  0.42912631  -0.01357007  1
  O2-  O556  1  0.58907910  0.40962053  0.35698936  1
  O2-  O557  1  0.59268802  0.42609621  0.66582188  1
  O2-  O558  1  0.55623341  0.66687760  0.01669177  1
  O2-  O559  1  0.58304166  0.65769276  0.36216820  1
  O2-  O560  1  0.56710420  0.64981667  0.68673026  1
  O2-  O561  1  0.58900996  0.93665560  0.01509603  1
  O2-  O562  1  0.61662584  0.89173638  0.27489810  1
  O2-  O563  1  0.60615829  0.92898708  0.68996233  1
  O2-  O564  1  0.84655115  0.16290307  0.02047296  1
  O2-  O565  1  0.83335979  0.16377350  0.36492008  1
  O2-  O566  1  0.85169704  0.19366283  0.69237456  1
  O2-  O567  1  0.86314470  0.42698312  0.02694073  1
  O2-  O568  1  0.82571251  0.39661254  0.36121628  1
  O2-  O569  1  0.84174369  0.42006676  0.68796773  1
  O2-  O570  1  0.86281655  0.67502420  0.02548249  1
  O2-  O571  1  0.81752387  0.67286162  0.36147575  1
  O2-  O572  1  0.83772684  0.66625848  0.68725472  1
  O2-  O573  1  0.79452922  0.88025614  0.01033992  1
  O2-  O574  1  0.84786063  0.92803853  0.34990267  1
  O2-  O575  1  0.82036478  0.93367110  0.73753277  1
