# generated using pymatgen
data_H2O
_symmetry_space_group_name_H-M   'P 1'
_cell_length_a   17.98499251
_cell_length_b   17.98270793
_cell_length_c   21.99706973
_cell_angle_alpha   90.02987594
_cell_angle_beta   89.99048133
_cell_angle_gamma   120.00028421
_symmetry_Int_Tables_number   1
_chemical_formula_structural   H2O
_chemical_formula_sum   'H384 O192'
_cell_volume   6161.11775939
_cell_formula_units_Z   192
loop_
 _symmetry_equiv_pos_site_id
 _symmetry_equiv_pos_as_xyz
  1  'x, y, z'
loop_
 _atom_type_symbol
 _atom_type_oxidation_number
  H+  1.0
  O2-  -2.0
loop_
 _atom_site_type_symbol
 _atom_site_label
 _atom_site_symmetry_multiplicity
 _atom_site_fract_x
 _atom_site_fract_y
 _atom_site_fract_z
 _atom_site_occupancy
  H+  H0  1  0.22989755  0.61980762  0.84818446  1
  H+  H1  1  0.76825357  0.87880505  0.49213203  1
  H+  H2  1  0.42707825  1.00254663  0.35035080  1
  H+  H3  1  0.48420782  0.88022645  0.17187552  1
  H+  H4  1  0.85616858  0.11786402  0.17834364  1
  H+  H5  1  0.71156154  0.10691965  0.17391493  1
  H+  H6  1  0.64206294  0.01752810  0.98462823  1
  H+  H7  1  0.85730848  0.88280427  0.82699379  1
  H+  H8  1  0.36493456  0.74203177  0.84790254  1
  H+  H9  1  0.59245255  0.74004455  0.00574142  1
  H+  H10  1  0.14071913  0.54054686  0.49912245  1
  H+  H11  1  0.84372166  0.67120120  0.43478912  1
  H+  H12  1  0.47151021  0.36199119  0.50593067  1
  H+  H13  1  0.89234426  0.87766275  0.50650847  1
  H+  H14  1  0.02607848  0.90344392  0.64733628  1
  H+  H15  1  0.29605672  0.89844010  0.47748393  1
  H+  H16  1  0.11906906  0.25994908  0.65325535  1
  H+  H17  1  0.86223028  0.13667628  0.82553394  1
  H+  H18  1  0.89632576  0.12785033  0.98715272  1
  H+  H19  1  0.38438597  0.51009553  0.66197802  1
  H+  H20  1  0.36180746  0.59599270  0.99385100  1
  H+  H21  1  0.41552022  0.33433047  0.56806008  1
  H+  H22  1  -0.01319387  0.12957882  -0.01108569  1
  H+  H23  1  0.38950928  0.11129169  0.84414796  1
  H+  H24  1  -0.01641968  0.58586658  0.00806864  1
  H+  H25  1  0.14264131  0.11637738  0.84724288  1
  H+  H26  1  0.10272424  0.64183631  0.67562349  1
  H+  H27  1  0.16270875  0.90764866  0.98222712  1
  H+  H28  1  0.18042119  0.29605227  0.01437652  1
  H+  H29  1  0.87264952  0.50677077  0.99879461  1
  H+  H30  1  0.23469403  0.62645287  0.49483701  1
  H+  H31  1  0.16984342  0.08679418  0.93551589  1
  H+  H32  1  0.91775150  0.83185880  0.89023991  1
  H+  H33  1  0.37235650  0.81051452  0.59557038  1
  H+  H34  1  0.10979532  0.63108216  0.16327838  1
  H+  H35  1  0.22661110  0.85875748  0.83241785  1
  H+  H36  1  0.06411172  0.15980356  0.45270337  1
  H+  H37  1  0.72786024  0.37168051  0.50602857  1
  H+  H38  1  0.99446380  0.36085407  0.35047950  1
  H+  H39  1  0.86517345  0.98724548  -0.00773690  1
  H+  H40  1  0.37681871  0.34972413  0.17219869  1
  H+  H41  1  0.37704280  0.90212296  0.01510219  1
  H+  H42  1  0.03471831  0.89409898  0.49164911  1
  H+  H43  1  0.34209483  0.73741705  0.68559507  1
  H+  H44  1  0.63743245  0.58366479  0.99448353  1
  H+  H45  1  0.61201840  0.39255146  0.49236123  1
  H+  H46  1  0.98075067  0.61990899  0.50894077  1
  H+  H47  1  0.13730073  0.00267578  0.16747758  1
  H+  H48  1  0.85785697  0.38592115  0.00670396  1
  H+  H49  1  0.66500472  0.33908726  0.56295537  1
  H+  H50  1  0.76257187  0.38291359  0.67529671  1
  H+  H51  1  0.88717593  0.76949509  0.83308012  1
  H+  H52  1  0.60686446  0.20698759  0.83630668  1
  H+  H53  1  0.86825459  0.64262044  1.00752999  1
  H+  H54  1  0.09660421  0.72426021  0.33647021  1
  H+  H55  1  0.12550085  0.98130398  0.49143297  1
  H+  H56  1  0.64886212  0.24625139  -0.02582937  1
  H+  H57  1  0.84028107  0.10866156  0.49061646  1
  H+  H58  1  0.36240344  0.95358331  0.11082404  1
  H+  H59  1  0.07732285  0.10484208  0.37434674  1
  H+  H60  1  0.88376204  0.86608522  0.98286480  1
  H+  H61  1  0.59649115  0.88784823  0.67112030  1
  H+  H62  1  0.47634481  0.10644195  0.83704228  1
  H+  H63  1  0.36745762  0.63778758  0.33659758  1
  H+  H64  1  0.39050379  0.27848665  0.84135096  1
  H+  H65  1  0.81603255  0.87019175  0.13721430  1
  H+  H66  1  0.28387517  0.64018330  0.69992685  1
  H+  H67  1  0.52572250  0.14703938  0.48333223  1
  H+  H68  1  0.48310639  0.86955673  0.52790239  1
  H+  H69  1  0.56838127  0.17888978  0.10087949  1
  H+  H70  1  0.86765013  0.39637046  0.50212822  1
  H+  H71  1  0.29921912  0.41455146  0.15297705  1
  H+  H72  1  0.15494916  0.75528287  0.00609666  1
  H+  H73  1  0.35844144  0.72935188  0.16207689  1
  H+  H74  1  0.13640945  0.61127252  0.84585133  1
  H+  H75  1  0.84384290  0.96678380  0.15667544  1
  H+  H76  1  0.61727142  0.22015839  0.33426110  1
  H+  H77  1  0.10985744  0.40415734  0.14781276  1
  H+  H78  1  0.27917944  0.38464289  0.35219379  1
  H+  H79  1  0.48352768  0.37599882  0.65195583  1
  H+  H80  1  0.13243981  0.02808587  0.99529356  1
  H+  H81  1  0.86411761  0.38178669  0.34686341  1
  H+  H82  1  0.77594307  0.63444652  0.34055251  1
  H+  H83  1  0.14136657  0.86797661  0.50178351  1
  H+  H84  1  0.53885645  0.15412351  0.67041548  1
  H+  H85  1  0.86709277  0.48301257  0.82626183  1
  H+  H86  1  0.05996769  0.40495940  0.41828327  1
  H+  H87  1  0.89103174  0.76563352  0.17329552  1
  H+  H88  1  0.57496083  0.91216677  0.75761550  1
  H+  H89  1  0.38814579  0.61590644  0.50416660  1
  H+  H90  1  -0.03878369  0.10184770  0.51523389  1
  H+  H91  1  0.64175426  0.62050725  0.17410684  1
  H+  H92  1  0.62284378  0.77370614  0.17546019  1
  H+  H93  1  0.59743648  0.88323183  0.16634344  1
  H+  H94  1  0.85700069  0.22368988  0.82353709  1
  H+  H95  1  0.33814503  0.69228425  0.78462221  1
  H+  H96  1  0.48045514  0.61142795  0.33112423  1
  H+  H97  1  0.10532011  0.10128969  0.15600861  1
  H+  H98  1  0.63896684  0.28386842  0.65965302  1
  H+  H99  1  0.61171925  0.88311906  0.00326949  1
  H+  H100  1  0.62547726  0.26198230  0.17874945  1
  H+  H101  1  0.11729785  0.88315945  0.83222300  1
  H+  H102  1  0.86672549  0.72133792  0.34034462  1
  H+  H103  1  0.23668994  0.86820116  0.16993635  1
  H+  H104  1  0.38926636  0.52654637  0.50729230  1
  H+  H105  1  0.88658843  0.26486199  0.18159375  1
  H+  H106  1  0.10605854  0.71742070  0.15342483  1
  H+  H107  1  0.60757460  0.87683034  0.81646988  1
  H+  H108  1  0.36716607  0.38401998  0.34418279  1
  H+  H109  1  0.35676200  0.42872294  0.09826192  1
  H+  H110  1  0.88358224  0.28557946  0.51765963  1
  H+  H111  1  0.60243088  0.60779383  0.51225735  1
  H+  H112  1  0.87705192  0.09919054  0.32775112  1
  H+  H113  1  0.09097713  0.36469091  0.36066082  1
  H+  H114  1  0.35567417  0.09143356  0.15627681  1
  H+  H115  1  0.15564796  0.12432642  0.30462989  1
  H+  H116  1  0.63678781  0.61034992  0.84703962  1
  H+  H117  1  0.77539612  0.64958399  0.15952474  1
  H+  H118  1  0.39024585  0.12067906  0.50403567  1
  H+  H119  1  0.11299279  0.39868150  0.49718549  1
  H+  H120  1  0.36856056  0.38880894  0.50238106  1
  H+  H121  1  -0.02812824  0.60847720  0.84714481  1
  H+  H122  1  0.37130475  0.72952175  0.49033262  1
  H+  H123  1  0.10419928  0.22025911  0.50966337  1
  H+  H124  1  0.96459758  0.08261001  0.17692210  1
  H+  H125  1  0.48862935  0.85433074  0.31749553  1
  H+  H126  1  0.88315836  0.27853236  0.97522059  1
  H+  H127  1  0.87312832  0.35337364  0.66805850  1
  H+  H128  1  0.19679098  0.84807422  0.31227537  1
  H+  H129  1  0.37698436  0.26288023  0.99698370  1
  H+  H130  1  0.77121398  0.37873293  0.17014212  1
  H+  H131  1  0.61362077  0.72143458  0.34776146  1
  H+  H132  1  0.76996075  0.87600270  0.33821237  1
  H+  H133  1  0.39165245  0.27193042  0.32821774  1
  H+  H134  1  0.87782121  0.00896631  0.33136490  1
  H+  H135  1  0.36406477  0.18602744  0.16101015  1
  H+  H136  1  0.12037753  0.25418540  0.35266099  1
  H+  H137  1  0.63828174  0.37488209  0.65588195  1
  H+  H138  1  0.60518503  0.12073821  0.82104580  1
  H+  H139  1  -0.00071536  0.11692961  0.35297420  1
  H+  H140  1  0.13574242  0.35457424  0.85826533  1
  H+  H141  1  0.16875610  0.77335954  1.03749187  1
  H+  H142  1  0.11963350  0.39231583  0.00838334  1
  H+  H143  1  0.30657045  0.90960622  0.30287529  1
  H+  H144  1  0.26354805  0.37376346  0.67594970  1
  H+  H145  1  0.91017348  0.06034318  0.23947559  1
  H+  H146  1  0.13427579  0.76317602  0.49558727  1
  H+  H147  1  0.44699014  0.59275914  0.99483615  1
  H+  H148  1  0.19243167  0.36885748  0.09501624  1
  H+  H149  1  0.61552372  0.99181479  0.57093310  1
  H+  H150  1  0.16724549  0.91545256  0.69052965  1
  H+  H151  1  0.38843841  0.36361277  0.65669961  1
  H+  H152  1  0.39746967  0.86684213  0.50699439  1
  H+  H153  1  0.77653268  0.63327949  1.00240947  1
  H+  H154  1  0.35909255  0.86043903  0.65080905  1
  H+  H155  1  0.63266823  0.10509885  0.32471768  1
  H+  H156  1  0.85035478  0.21265222  0.67246235  1
  H+  H157  1  0.09724703  0.36207481  0.67987601  1
  H+  H158  1  1.02935087  0.88549503  0.82350043  1
  H+  H159  1  0.32454413  0.40581643  0.73427884  1
  H+  H160  1  0.15899122  0.04267404  0.66130057  1
  H+  H161  1  0.40116121  0.53788474  0.17259921  1
  H+  H162  1  0.52382874  0.39085393  0.33620964  1
  H+  H163  1  0.62191146  0.39712608  0.16773423  1
  H+  H164  1  0.09224514  0.44701026  0.68848213  1
  H+  H165  1  0.64488174  0.53255860  0.17515877  1
  H+  H166  1  0.12611108  0.14962325  0.00192868  1
  H+  H167  1  0.40801790  0.32810842  0.26937607  1
  H+  H168  1  0.09544688  0.72402635  0.68467800  1
  H+  H169  1  0.38824007  0.11488730  -0.00936234  1
  H+  H170  1  0.63576686  0.11439313  0.65239767  1
  H+  H171  1  0.48210760  0.11458047  0.30941761  1
  H+  H172  1  0.96436392  0.60447570  0.66405272  1
  H+  H173  1  0.71733999  0.10267089  0.65446997  1
  H+  H174  1  0.01545259  0.63115719  0.34474794  1
  H+  H175  1  0.85501431  0.46845023  0.67318494  1
  H+  H176  1  0.88383966  0.51664568  0.33146172  1
  H+  H177  1  0.62763791  0.76353620  0.83555113  1
  H+  H178  1  0.28401019  0.13463857  0.33194251  1
  H+  H179  1  0.38513195  0.62108665  0.84356618  1
  H+  H180  1  0.60924304  0.44085794  0.00825967  1
  H+  H181  1  0.22512399  0.35993757  0.85178064  1
  H+  H182  1  0.80945440  0.67229555  0.67595021  1
  H+  H183  1  0.36134784  0.97947351  0.82270312  1
  H+  H184  1  0.11476543  0.85756755  0.31598296  1
  H+  H185  1  0.22846853  0.09050401  0.16614685  1
  H+  H186  1  0.39653158  0.89475325  0.18000734  1
  H+  H187  1  0.70503994  0.86713166  0.17284887  1
  H+  H188  1  -0.11846052  0.60628894  0.32756916  1
  H+  H189  1  0.49130668  0.88219440  0.83516839  1
  H+  H190  1  0.91214391  0.56998016  0.93793731  1
  H+  H191  1  0.14532456  0.62266142  0.32998872  1
  H+  H192  1  0.23309558  0.79741966  0.62630913  1
  H+  H193  1  0.13098317  0.52696478  0.17143354  1
  H+  H194  1  0.42724954  0.91507960  0.35250207  1
  H+  H195  1  0.27534155  0.06342884  0.71157252  1
  H+  H196  1  0.28561520  0.14259885  0.67902879  1
  H+  H197  1  -0.08272011  0.57061389  0.24501929  1
  H+  H198  1  0.88288812  1.02287713  0.83795043  1
  H+  H199  1  0.59892203  0.97742378  0.67402939  1
  H+  H200  1  0.62077712  0.55388492  0.57630506  1
  H+  H201  1  0.12187654  0.87826466  0.14956286  1
  H+  H202  1  0.83687134  0.60080693  0.67637374  1
  H+  H203  1  0.60820020  0.50971953  0.50852623  1
  H+  H204  1  0.11359028  0.47659469  0.00003970  1
  H+  H205  1  0.88365617  0.77681095  0.98683247  1
  H+  H206  1  0.03084607  0.87214466  0.16071805  1
  H+  H207  1  0.36359504  0.23130899  0.49089519  1
  H+  H208  1  0.16731362  0.56338801  0.64262759  1
  H+  H209  1  0.63818555  0.87270071  0.51650610  1
  H+  H210  1  0.10526851  0.13648371  0.65666983  1
  H+  H211  1  0.97168681  0.35821656  0.17566757  1
  H+  H212  1  0.13937411  0.11139320  0.50735333  1
  H+  H213  1  0.16443410  0.33103489  0.45179148  1
  H+  H214  1  0.33964296  0.17184066  0.43047586  1
  H+  H215  1  0.75346250  0.15628933  0.53445697  1
  H+  H216  1  0.12676562  0.65475418  0.48760212  1
  H+  H217  1  0.47622820  0.85789524  0.99468585  1
  H+  H218  1  0.82726549  0.90570854  0.43153945  1
  H+  H219  1  0.97378347  0.36884405  0.83642941  1
  H+  H220  1  0.52156509  0.18259474  0.00769462  1
  H+  H221  1  0.59026013  0.58110524  0.69211703  1
  H+  H222  1  0.11156022  0.72233242  0.83782378  1
  H+  H223  1  0.97584559  0.86156719  0.33204105  1
  H+  H224  1  0.61391143  0.39329093  0.34426313  1
  H+  H225  1  0.45746457  0.92938728  0.87793125  1
  H+  H226  1  1.02462430  0.86294553  0.65886125  1
  H+  H227  1  0.70740044  0.86447853  0.66806877  1
  H+  H228  1  0.72269282  0.86592536  -0.01933309  1
  H+  H229  1  0.91648038  0.86574508  0.18382638  1
  H+  H230  1  0.86104831  0.87815949  0.33894896  1
  H+  H231  1  0.91051577  0.80335360  0.65611533  1
  H+  H232  1  0.39731070  1.03495292  0.50776640  1
  H+  H233  1  0.58173014  0.65849149  0.44032296  1
  H+  H234  1  0.12109437  0.22445775  0.84549480  1
  H+  H235  1  0.59475011  0.17573448  0.73065180  1
  H+  H236  1  0.22218384  0.61397098  0.99644093  1
  H+  H237  1  0.23215496  0.11746460  0.49953751  1
  H+  H238  1  0.97349677  0.36500600  0.98284943  1
  H+  H239  1  0.02002670  0.39332269  0.50630702  1
  H+  H240  1  0.51924796  0.60760315  0.68396743  1
  H+  H241  1  0.61592428  0.97541824  0.33633443  1
  H+  H242  1  0.76651681  0.12610115  0.33125768  1
  H+  H243  1  0.39368652  0.76882257  0.31906938  1
  H+  H244  1  0.35875334  0.72440491  0.00602540  1
  H+  H245  1  0.27974801  0.64289700  0.33627855  1
  H+  H246  1  0.35756348  0.47684888  0.82509130  1
  H+  H247  1  0.87064704  0.38870161  0.82368371  1
  H+  H248  1  0.52121363  0.63131771  0.83227478  1
  H+  H249  1  0.87760452  0.25764655  0.33065675  1
  H+  H250  1  0.65147882  0.31568097  0.39315828  1
  H+  H251  1  0.37186805  0.13366575  0.33115008  1
  H+  H252  1  0.09417463  0.18017488  0.16880472  1
  H+  H253  1  0.07786878  0.91351474  0.06109867  1
  H+  H254  1  0.52584299  0.39812761  0.81911868  1
  H+  H255  1  0.36710037  0.34573836  0.99596068  1
  H+  H256  1  0.76760737  0.13227323  -0.01746010  1
  H+  H257  1  0.11538306  -0.02014700  0.33578018  1
  H+  H258  1  0.26881442  0.12872972  0.00590866  1
  H+  H259  1  0.52657050  0.64485503  0.16524612  1
  H+  H260  1  0.69015645  0.54466296  0.67017248  1
  H+  H261  1  0.36372704  0.89345174  0.81394579  1
  H+  H262  1  0.38951631  -0.00292876  1.01226035  1
  H+  H263  1  0.87547401  0.01030917  0.50469909  1
  H+  H264  1  0.88014319  0.60547886  0.84525455  1
  H+  H265  1  0.29639220  0.87565110  0.32689102  1
  H+  H266  1  0.25369658  0.88545221  0.64614778  1
  H+  H267  1  0.09122903  0.59360653  1.01202541  1
  H+  H268  1  0.71618724  0.85502051  0.83634849  1
  H+  H269  1  0.88522689  0.50346849  0.18159850  1
  H+  H270  1  0.30702660  0.26409121  0.19986318  1
  H+  H271  1  0.61634711  0.63441866  0.34630165  1
  H+  H272  1  0.11328757  0.47244559  0.83411679  1
  H+  H273  1  0.38807556  1.00520136  0.66721967  1
  H+  H274  1  0.82971461  0.86568138  0.67527878  1
  H+  H275  1  0.72122938  0.10479397  0.83089904  1
  H+  H276  1  0.86728716  0.48485375  0.49647531  1
  H+  H277  1  0.91754406  0.08687094  0.89462943  1
  H+  H278  1  0.87098806  0.09729429  0.66264360  1
  H+  H279  1  0.73306828  0.36583094  0.35220713  1
  H+  H280  1  0.88109301  0.73514544  0.49068485  1
  H+  H281  1  0.76954770  0.62825282  0.83477186  1
  H+  H282  1  0.01974244  0.88949073  0.00048199  1
  H+  H283  1  -0.04032535  0.34717628  0.67195390  1
  H+  H284  1  0.63991195  0.52929208  0.32654752  1
  H+  H285  1  0.36539773  0.64407713  0.16447257  1
  H+  H286  1  0.63904277  0.85730631  0.33134246  1
  H+  H287  1  0.36193389  0.39024124  0.82817941  1
  H+  H288  1  0.84894515  0.96403379  0.67497039  1
  H+  H289  1  0.57901743  0.15914517  0.39010827  1
  H+  H290  1  0.57958682  0.64707512  0.77320847  1
  H+  H291  1  0.16529003  0.58381910  0.93437420  1
  H+  H292  1  0.65523410  0.07295627  0.26376990  1
  H+  H293  1  0.83384211  0.67969822  0.09883019  1
  H+  H294  1  0.66867587  0.56662493  0.93135436  1
  H+  H295  1  0.33716970  0.16271166  0.77926186  1
  H+  H296  1  0.17086190  0.59131484  0.27062344  1
  H+  H297  1  0.66551254  0.07019965  0.92158243  1
  H+  H298  1  0.65676846  0.31858375  0.23857195  1
  H+  H299  1  0.39142891  0.52347789  0.32896888  1
  H+  H300  1  0.91719598  0.32470304  0.27408787  1
  H+  H301  1  0.65592381  0.83019476  0.92463231  1
  H+  H302  1  0.51351405  0.63220623  0.49724453  1
  H+  H303  1  0.41910108  0.33856825  0.89884723  1
  H+  H304  1  0.17243837  0.07228687  0.25440822  1
  H+  H305  1  0.62674519  0.77804032  0.50875046  1
  H+  H306  1  0.81830406  0.14675795  0.39328340  1
  H+  H307  1  0.85267449  0.78102858  0.59922980  1
  H+  H308  1  0.23781733  0.37547090  0.49844961  1
  H+  H309  1  0.85912150  0.37602622  0.17010130  1
  H+  H310  1  0.39945000  0.12279715  0.66107382  1
  H+  H311  1  -0.02030872  0.60126384  0.17968198  1
  H+  H312  1  0.32899450  0.66717394  0.06680535  1
  H+  H313  1  0.22300433  0.61436206  0.17247694  1
  H+  H314  1  0.62329088  0.10992612  0.16674957  1
  H+  H315  1  0.41594283  0.83141629  0.93667663  1
  H+  H316  1  0.08705843  0.68241053  0.43006393  1
  H+  H317  1  0.09006527  0.16772150  0.06202719  1
  H+  H318  1  0.03394566  0.13686985  0.83298553  1
  H+  H319  1  0.92046113  0.82393379  0.27199523  1
  H+  H320  1  0.58061149  0.91213255  0.06374758  1
  H+  H321  1  0.16192086  0.31712523  0.15610325  1
  H+  H322  1  0.67152849  0.59231690  0.26878597  1
  H+  H323  1  0.06564088  0.42397636  0.09509512  1
  H+  H324  1  0.58296008  0.43125483  0.75873315  1
  H+  H325  1  0.08024306  0.40320120  0.77975842  1
  H+  H326  1  0.34139874  0.67235973  0.42917486  1
  H+  H327  1  0.17685142  0.08920953  0.59680668  1
  H+  H328  1  0.57928702  0.67925335  0.10407305  1
  H+  H329  1  0.57959013  0.42170908  0.43273793  1
  H+  H330  1  0.32938671  0.14772289  0.06440422  1
  H+  H331  1  0.91727071  0.34096287  0.57767589  1
  H+  H332  1  0.13683229  0.94604410  0.74863825  1
  H+  H333  1  0.42179667  0.57641153  0.60743933  1
  H+  H334  1  0.60160817  0.97624038  0.16054040  1
  H+  H335  1  0.82362872  0.92706289  0.04933714  1
  H+  H336  1  0.34670984  0.42259900  0.44099304  1
  H+  H337  1  0.09116309  0.92248907  0.39694288  1
  H+  H338  1  0.82031191  0.64235374  0.77318770  1
  H+  H339  1  0.90893438  0.34184160  0.89223936  1
  H+  H340  1  0.91172323  0.57731418  0.60108001  1
  H+  H341  1  0.63541214  0.52110110  0.83743591  1
  H+  H342  1  0.25295757  0.91084454  0.98799596  1
  H+  H343  1  0.14436014  1.02659137  0.84619629  1
  H+  H344  1  0.38436326  0.94168338  0.43740052  1
  H+  H345  1  0.18303834  0.83787756  0.55975521  1
  H+  H346  1  0.83233175  0.41304352  0.06921064  1
  H+  H347  1  0.43495969  0.10662698  0.59723052  1
  H+  H348  1  0.50966102  0.71730283  0.04203077  1
  H+  H349  1  0.95673609  0.90049772  0.56163102  1
  H+  H350  1  0.05554409  0.62196881  0.07467695  1
  H+  H351  1  0.16326007  0.82828725  0.22084158  1
  H+  H352  1  0.82080147  0.18982323  0.03836530  1
  H+  H353  1  0.61454761  0.23343786  0.48421239  1
  H+  H354  1  0.61126668  1.00037706  0.50123742  1
  H+  H355  1  0.51106918  0.37092676  0.01466637  1
  H+  H356  1  0.89243897  0.06320422  0.60187446  1
  H+  H357  1  0.42221111  0.59052899  0.23513381  1
  H+  H358  1  0.32466685  0.45412891  0.00169628  1
  H+  H359  1  0.84380451  0.42002060  0.40747774  1
  H+  H360  1  0.65750836  0.83754221  0.60613098  1
  H+  H361  1  0.57955979  0.91525149  0.39484476  1
  H+  H362  1  0.27935075  0.13933770  0.83864203  1
  H+  H363  1  0.83209300  0.41962330  0.76142599  1
  H+  H364  1  0.82266518  0.91130649  0.77049800  1
  H+  H365  1  0.63449367  0.01203894  0.82750416  1
  H+  H366  1  0.34617222  0.94100306  0.72581841  1
  H+  H367  1  0.83098442  0.14296574  0.11785394  1
  H+  H368  1  0.65975436  0.82473136  0.27040211  1
  H+  H369  1  0.89265789  0.62149321  0.50649877  1
  H+  H370  1  0.58577300  0.41774543  0.10915738  1
  H+  H371  1  0.50585283  0.11649927  0.15375802  1
  H+  H372  1  0.42745035  0.08926999  0.93404348  1
  H+  H373  1  0.82264594  0.15475636  0.73184973  1
  H+  H374  1  0.07652032  0.66110055  0.77979741  1
  H+  H375  1  0.01094051  0.12803034  0.65860723  1
  H+  H376  1  0.15387036  0.32203325  0.29978367  1
  H+  H377  1  0.40274309  0.57589559  0.89880803  1
  H+  H378  1  0.18341353  0.85142743  0.89653710  1
  H+  H379  1  0.41117817  0.06112206  0.25735854  1
  H+  H380  1  0.15764757  0.33741304  0.60386634  1
  H+  H381  1  0.16836828  0.61556636  0.58657734  1
  H+  H382  1  0.42219299  0.84433789  0.23838445  1
  H+  H383  1  0.57217223  0.28117446  0.02943551  1
  O2-  O384  1  0.06844014  0.12739966  0.14506373  1
  O2-  O385  1  0.07189902  0.15924553  0.49743301  1
  O2-  O386  1  0.09665162  0.16568523  0.82744735  1
  O2-  O387  1  0.06851521  0.42482043  0.14057351  1
  O2-  O388  1  0.07760487  0.42462920  0.48440867  1
  O2-  O389  1  0.07780264  0.41015205  0.82442385  1
  O2-  O390  1  0.07215455  0.65411848  0.14690546  1
  O2-  O391  1  0.09536428  0.68706810  0.47652135  1
  O2-  O392  1  0.07788653  0.66018376  0.82491465  1
  O2-  O393  1  0.08756777  0.90682850  0.13992586  1
  O2-  O394  1  0.09478820  0.91941071  0.47658296  1
  O2-  O395  1  0.09254921  0.91825038  0.81595367  1
  O2-  O396  1  0.32892273  0.12869217  0.14334116  1
  O2-  O397  1  0.33401057  0.17030947  0.47549628  1
  O2-  O398  1  0.34077646  0.16916582  0.82428959  1
  O2-  O399  1  0.36017349  0.43386055  0.14317506  1
  O2-  O400  1  0.34043889  0.42211312  0.48607671  1
  O2-  O401  1  0.32710520  0.41541733  0.81252256  1
  O2-  O402  1  0.33119022  0.66967399  0.14758437  1
  O2-  O403  1  0.33720641  0.66933689  0.47471637  1
  O2-  O404  1  0.33577286  0.68411105  0.83075714  1
  O2-  O405  1  0.35638084  0.94849607  0.15676302  1
  O2-  O406  1  0.35878858  0.92995041  0.48031747  1
  O2-  O407  1  0.33096994  0.92181742  0.80141458  1
  O2-  O408  1  0.56731439  0.15977500  0.14380181  1
  O2-  O409  1  0.58291042  0.17731430  0.46316940  1
  O2-  O410  1  0.57718497  0.15486218  0.80921951  1
  O2-  O411  1  0.59637118  0.43111169  0.15331167  1
  O2-  O412  1  0.57898748  0.42101922  0.47829466  1
  O2-  O413  1  0.58551004  0.43230968  0.80395014  1
  O2-  O414  1  0.58669806  0.67658907  0.14872032  1
  O2-  O415  1  0.57778120  0.65865318  0.48622164  1
  O2-  O416  1  0.58218196  0.65949140  0.81892055  1
  O2-  O417  1  0.56792565  0.91359666  0.14812243  1
  O2-  O418  1  0.59857969  0.95765306  0.53277011  1
  O2-  O419  1  0.57799808  0.90944233  0.80461037  1
  O2-  O420  1  0.82810146  0.14983995  0.16164484  1
  O2-  O421  1  0.79766239  0.11907171  0.46737944  1
  O2-  O422  1  0.82861223  0.16345541  0.80928464  1
  O2-  O423  1  0.83275452  0.41099263  0.15695188  1
  O2-  O424  1  0.83772151  0.42380521  0.48191106  1
  O2-  O425  1  0.83967965  0.42235196  0.80824753  1
  O2-  O426  1  0.83571090  0.68309905  0.14398210  1
  O2-  O427  1  0.84905480  0.67433731  0.48001380  1
  O2-  O428  1  0.82966939  0.65447432  0.81768345  1
  O2-  O429  1  0.80181654  0.91545841  0.13203205  1
  O2-  O430  1  0.82910404  0.90788021  0.47717676  1
  O2-  O431  1  0.82486120  0.91249122  0.81608701  1
  O2-  O432  1  0.16766633  0.06467279  0.18208384  1
  O2-  O433  1  0.17184721  0.08117934  0.51568583  1
  O2-  O434  1  0.17559825  0.08637038  0.86183748  1
  O2-  O435  1  0.18844377  0.37552551  0.14069505  1
  O2-  O436  1  0.17228452  0.34420694  0.49519723  1
  O2-  O437  1  0.16902993  0.32837139  0.87318778  1
  O2-  O438  1  0.16282693  0.58681161  0.18790335  1
  O2-  O439  1  0.17316316  0.60283611  0.50891666  1
  O2-  O440  1  0.16813432  0.58210869  0.86035736  1
  O2-  O441  1  0.17426349  0.82902982  0.17634613  1
  O2-  O442  1  0.17133102  0.83445280  0.51334580  1
  O2-  O443  1  0.16973489  0.82881454  0.85328783  1
  O2-  O444  1  0.40140323  0.04073535  0.17915271  1
  O2-  O445  1  0.42517937  0.09625260  0.52054056  1
  O2-  O446  1  0.41678998  0.07613724  0.85526766  1
  O2-  O447  1  0.36907325  0.29796180  0.19447747  1
  O2-  O448  1  0.41125154  0.33203173  0.52079296  1
  O2-  O449  1  0.41849044  0.34013175  0.85389145  1
  O2-  O450  1  0.42343314  0.59671342  0.18969152  1
  O2-  O451  1  0.42072865  0.58839803  0.51988678  1
  O2-  O452  1  0.41041709  0.58455130  0.85425595  1
  O2-  O453  1  0.42040791  0.85395564  0.19052351  1
  O2-  O454  1  0.42036739  0.83049401  0.52404620  1
  O2-  O455  1  0.43708334  0.87382503  0.85806251  1
  O2-  O456  1  0.64971143  0.07669821  0.18436533  1
  O2-  O457  1  0.79348210  0.18730266  0.50093030  1
  O2-  O458  1  0.66016040  0.07168453  0.84457440  1
  O2-  O459  1  0.66368699  0.32167100  0.19451722  1
  O2-  O460  1  0.66590244  0.34142993  0.51728762  1
  O2-  O461  1  0.65447779  0.28031337  0.89255183  1
  O2-  O462  1  0.67413800  0.59381923  0.19083902  1
  O2-  O463  1  0.62677991  0.56623439  0.53174114  1
  O2-  O464  1  0.66755914  0.57909276  0.85961331  1
  O2-  O465  1  0.64748418  0.83414489  0.19221985  1
  O2-  O466  1  0.66696583  0.83839741  0.52015885  1
  O2-  O467  1  0.65464758  0.82538349  0.84938659  1
  O2-  O468  1  0.90552959  0.05912360  0.19385752  1
  O2-  O469  1  0.89813808  0.06922080  0.52226269  1
  O2-  O470  1  0.91385425  0.08490219  0.84951191  1
  O2-  O471  1  0.91427374  0.32517676  0.19623695  1
  O2-  O472  1  0.92213713  0.34555099  0.53178503  1
  O2-  O473  1  0.91048029  0.34132952  0.84634376  1
  O2-  O474  1  0.91934363  0.56619508  0.19769262  1
  O2-  O475  1  0.92063561  0.58833172  0.52291477  1
  O2-  O476  1  0.91012833  0.57365152  0.86008136  1
  O2-  O477  1  0.93350574  0.82427974  0.19559465  1
  O2-  O478  1  0.93207715  0.86064328  0.52751481  1
  O2-  O479  1  0.91847250  0.83132714  0.84481169  1
  O2-  O480  1  0.17317357  0.08127317  0.30041168  1
  O2-  O481  1  0.17478714  0.09786656  0.64122337  1
  O2-  O482  1  0.16740839  0.08922441  0.98159074  1
  O2-  O483  1  0.15050398  0.31748469  0.34412147  1
  O2-  O484  1  0.15201885  0.32702367  0.64751259  1
  O2-  O485  1  0.20745706  0.36001971  1.02283333  1
  O2-  O486  1  0.17805663  0.59562475  0.31536596  1
  O2-  O487  1  0.16327654  0.61360356  0.63186272  1
  O2-  O488  1  0.16199097  0.58062380  0.98047833  1
  O2-  O489  1  0.13685417  0.82057539  0.29816739  1
  O2-  O490  1  0.20334745  0.83176273  0.62815523  1
  O2-  O491  1  0.20929407  0.90650541  0.95897631  1
  O2-  O492  1  0.41928602  0.07844018  0.30157737  1
  O2-  O493  1  0.43936944  0.10564564  0.64259675  1
  O2-  O494  1  0.42994881  0.09546394  0.97938055  1
  O2-  O495  1  0.41699060  0.33306119  0.31428837  1
  O2-  O496  1  0.42265746  0.34070381  0.63701512  1
  O2-  O497  1  0.40605610  0.32455812  0.98403560  1
  O2-  O498  1  0.42128058  0.58343235  0.31330609  1
  O2-  O499  1  0.42166983  0.57184312  0.65188718  1
  O2-  O500  1  0.38719973  0.56040122  0.98002169  1
  O2-  O501  1  0.42845617  0.82946660  0.30210892  1
  O2-  O502  1  0.33777237  0.80220573  0.63299063  1
  O2-  O503  1  0.41424544  0.82770564  0.98162128  1
  O2-  O504  1  0.66169080  0.07306571  0.30884727  1
  O2-  O505  1  0.66011663  0.07985112  0.63453931  1
  O2-  O506  1  0.67588810  0.07519893  0.96648583  1
  O2-  O507  1  0.66813454  0.33387746  0.35097280  1
  O2-  O508  1  0.66989049  0.34366793  0.64239819  1
  O2-  O509  1  0.68770545  0.25550410  0.93804304  1
  O2-  O510  1  0.67213293  0.59114626  0.31454525  1
  O2-  O511  1  0.63155488  0.51706289  0.65161327  1
  O2-  O512  1  0.67298503  0.56196730  0.97753490  1
  O2-  O513  1  0.66597647  0.82433668  0.31555563  1
  O2-  O514  1  0.64925842  0.83931857  0.65007216  1
  O2-  O515  1  0.66017404  0.83371925  0.97064721  1
  O2-  O516  1  0.91114533  0.07065340  0.31669252  1
  O2-  O517  1  0.89838996  0.06421784  0.64687850  1
  O2-  O518  1  0.92610963  0.09585235  0.97535542  1
  O2-  O519  1  0.91308684  0.32100662  0.31979569  1
  O2-  O520  1  0.90282139  0.32311948  0.65139938  1
  O2-  O521  1  0.91406624  0.34185261  0.96735756  1
  O2-  O522  1  0.91313707  0.57582830  0.31303007  1
  O2-  O523  1  0.90580462  0.57029058  0.64630762  1
  O2-  O524  1  0.91185634  0.57002218  0.98373120  1
  O2-  O525  1  0.91553857  0.82731129  0.31719625  1
  O2-  O526  1  0.85027063  0.77859922  0.64385168  1
  O2-  O527  1  0.91511067  0.83627107  0.96983529  1
  O2-  O528  1  0.10197690  0.18557797  0.01910777  1
  O2-  O529  1  0.05849514  0.14728062  0.37375463  1
  O2-  O530  1  0.07338260  0.16736864  0.66466366  1
  O2-  O531  1  0.08152009  0.41605018  0.01578633  1
  O2-  O532  1  0.05652602  0.39288864  0.37129237  1
  O2-  O533  1  0.06340473  0.38706804  0.70073276  1
  O2-  O534  1  0.04011367  0.59047408  0.03469498  1
  O2-  O535  1  0.07580147  0.66904144  0.35900845  1
  O2-  O536  1  0.06838218  0.66368633  0.69713577  1
  O2-  O537  1  0.07962987  0.92250572  0.01638876  1
  O2-  O538  1  0.08382340  0.92008520  0.35180693  1
  O2-  O539  1  0.17168237  0.96626184  0.70986629  1
  O2-  O540  1  0.33043851  0.15746712  0.01978720  1
  O2-  O541  1  0.34323099  0.16500314  0.34820890  1
  O2-  O542  1  0.31948725  0.12439588  0.70397895  1
  O2-  O543  1  0.30152795  0.39560214  0.02132851  1
  O2-  O544  1  0.34079084  0.41747096  0.36150960  1
  O2-  O545  1  0.32436081  0.40274786  0.68875984  1
  O2-  O546  1  0.32687820  0.66361682  0.02158812  1
  O2-  O547  1  0.34189955  0.67317653  0.35028617  1
  O2-  O548  1  0.33528138  0.69104259  0.71414908  1
  O2-  O549  1  0.35708379  0.93959851  0.03297965  1
  O2-  O550  1  0.43917306  0.96541988  0.37735078  1
  O2-  O551  1  0.34867475  0.94419545  0.68032071  1
  O2-  O552  1  0.57498621  0.22748124  0.02864469  1
  O2-  O553  1  0.58370115  0.15825440  0.34406350  1
  O2-  O554  1  0.59959992  0.18155801  0.68536097  1
  O2-  O555  1  0.56934849  0.38823988  0.03075181  1
  O2-  O556  1  0.58299704  0.42481038  0.35366879  1
  O2-  O557  1  0.58795353  0.42765095  0.67574974  1
  O2-  O558  1  0.54539127  0.69276884  0.03063122  1
  O2-  O559  1  0.58369612  0.66145223  0.36393629  1
  O2-  O560  1  0.57643425  0.62579802  0.70323180  1
  O2-  O561  1  0.57850879  0.91061388  0.01881642  1
  O2-  O562  1  0.58776191  0.91356100  0.35115899  1
  O2-  O563  1  0.56642097  0.91751043  0.68889623  1
  O2-  O564  1  0.83038058  0.17354365  -0.00179390  1
  O2-  O565  1  0.82665301  0.15516250  0.34800150  1
  O2-  O566  1  0.82139549  0.15181087  0.68623371  1
  O2-  O567  1  0.83045885  0.41716562  0.02462131  1
  O2-  O568  1  0.83901507  0.41680095  0.36145505  1
  O2-  O569  1  0.82365721  0.40985760  0.69208336  1
  O2-  O570  1  0.83624955  0.67240376  0.01777575  1
  O2-  O571  1  0.83708814  0.66033987  0.35473934  1
  O2-  O572  1  0.79630939  0.61720739  0.69504060  1
  O2-  O573  1  0.83035175  0.92559140  0.00486288  1
  O2-  O574  1  0.83052638  0.90854966  0.35404798  1
  O2-  O575  1  0.81424284  0.90573678  0.69417924  1
