# generated using pymatgen
data_H2O
_symmetry_space_group_name_H-M   'P 1'
_cell_length_a   17.98629936
_cell_length_b   17.99434232
_cell_length_c   22.01474634
_cell_angle_alpha   89.99124813
_cell_angle_beta   89.99085894
_cell_angle_gamma   119.98785921
_symmetry_Int_Tables_number   1
_chemical_formula_structural   H2O
_chemical_formula_sum   'H384 O192'
_cell_volume   6171.27941197
_cell_formula_units_Z   192
loop_
 _symmetry_equiv_pos_site_id
 _symmetry_equiv_pos_as_xyz
  1  'x, y, z'
loop_
 _atom_type_symbol
 _atom_type_oxidation_number
  H+  1.0
  O2-  -2.0
loop_
 _atom_site_type_symbol
 _atom_site_label
 _atom_site_symmetry_multiplicity
 _atom_site_fract_x
 _atom_site_fract_y
 _atom_site_fract_z
 _atom_site_occupancy
  H+  H0  1  0.21493095  0.83989901  0.85390519  1
  H+  H1  1  0.64156444  0.01890508  0.65663555  1
  H+  H2  1  0.08582326  0.88522256  0.67418146  1
  H+  H3  1  0.12400171  0.83534140  0.84817732  1
  H+  H4  1  0.82117752  0.72095442  0.88204261  1
  H+  H5  1  0.37665067  0.34829753  0.64634677  1
  H+  H6  1  0.89956321  0.88124837  1.00272383  1
  H+  H7  1  0.96830048  0.36208987  0.63994972  1
  H+  H8  1  0.62852094  0.66740806  0.13135450  1
  H+  H9  1  0.71702154  0.62292544  0.31568925  1
  H+  H10  1  0.21634097  0.11474560  1.00705549  1
  H+  H11  1  0.63944757  0.06806600  0.24180165  1
  H+  H12  1  0.04855031  0.64598444  0.02505677  1
  H+  H13  1  0.88955872  0.02710077  0.17262755  1
  H+  H14  1  0.60766975  0.12375979  1.00957111  1
  H+  H15  1  0.75888819  0.36680906  0.49856911  1
  H+  H16  1  0.12768123  0.59554227  0.99769703  1
  H+  H17  1  0.60841257  0.47678721  0.83122164  1
  H+  H18  1  0.70067111  0.64650859  0.99662936  1
  H+  H19  1  0.38106154  -0.01510914  1.01899122  1
  H+  H20  1  0.40983148  0.36442367  0.89320592  1
  H+  H21  1  0.62855970  0.53880111  0.15741581  1
  H+  H22  1  0.37082097  0.60609833  0.32813339  1
  H+  H23  1  0.36823993  0.64068709  0.48640604  1
  H+  H24  1  0.62071792  0.47370012  0.49383595  1
  H+  H25  1  0.98801569  0.60805020  0.15841927  1
  H+  H26  1  0.92023103  0.90988662  0.85521333  1
  H+  H27  1  0.71081792  0.59819191  0.83254451  1
  H+  H28  1  0.36166321  0.23759604  0.17782259  1
  H+  H29  1  0.37875603  0.90164212  0.47427536  1
  H+  H30  1  0.85643969  0.64629533  0.32736435  1
  H+  H31  1  0.52692497  0.63820981  0.65746634  1
  H+  H32  1  0.42959605  0.34307534  0.97170904  1
  H+  H33  1  0.76765768  0.88356880  0.83077742  1
  H+  H34  1  0.34046043  0.93198859  0.89603475  1
  H+  H35  1  0.36657021  0.56558363  0.23754291  1
  H+  H36  1  0.64606163  0.54229796  0.65846070  1
  H+  H37  1  0.91554540  0.07967572  0.90504293  1
  H+  H38  1  0.75393672  0.39006926  0.65722280  1
  H+  H39  1  0.89224713  0.03026294  0.83803072  1
  H+  H40  1  0.81629741  0.65247301  -0.02010467  1
  H+  H41  1  0.11798287  0.79071719  0.66668299  1
  H+  H42  1  0.38838583  0.52371511  0.49765370  1
  H+  H43  1  0.12478877  0.94573246  0.81967614  1
  H+  H44  1  0.50953609  0.69020851  0.12316022  1
  H+  H45  1  0.20690943  0.87878025  0.66087085  1
  H+  H46  1  0.84736448  0.71066894  0.57787351  1
  H+  H47  1  0.63634391  0.61066702  0.49398814  1
  H+  H48  1  0.61638634  0.22464487  0.66743059  1
  H+  H49  1  0.86258279  0.75082647  1.00289899  1
  H+  H50  1  0.22413409  0.36116364  0.83033304  1
  H+  H51  1  0.08173873  0.40222725  0.58594642  1
  H+  H52  1  0.36582907  0.88929034  0.84501263  1
  H+  H53  1  0.11646230  0.36101863  0.33742396  1
  H+  H54  1  0.52673256  0.13717933  0.80756789  1
  H+  H55  1  0.65050714  0.11996860  0.32684535  1
  H+  H56  1  0.63996344  0.84237260  1.01302253  1
  H+  H57  1  0.88065169  0.14892366  0.33352246  1
  H+  H58  1  0.92835428  0.38571805  0.19511326  1
  H+  H59  1  0.23761921  0.62081674  0.49743613  1
  H+  H60  1  0.58399123  0.90764242  0.06057778  1
  H+  H61  1  0.23502858  0.11384286  0.65068814  1
  H+  H62  1  0.89824412  0.12194031  0.65596628  1
  H+  H63  1  0.12832754  0.63754775  0.17113532  1
  H+  H64  1  0.38384656  0.36888592  0.32878233  1
  H+  H65  1  1.00588480  0.11787169  0.99069541  1
  H+  H66  1  0.64490591  0.40178318  0.49007569  1
  H+  H67  1  0.86420736  0.23156134  0.17471112  1
  H+  H68  1  0.14594012  0.27177313  0.50330479  1
  H+  H69  1  0.21639603  0.10635831  0.19931008  1
  H+  H70  1  0.47913511  0.61242909  0.49545849  1
  H+  H71  1  1.04807101  0.39022055  0.17586842  1
  H+  H72  1  0.85398411  0.36446475  0.79743047  1
  H+  H73  1  0.88128312  0.77784096  0.17199389  1
  H+  H74  1  0.83674531  0.16547581  0.42537432  1
  H+  H75  1  -0.04295616  0.58538244  0.83399201  1
  H+  H76  1  0.60353066  0.37386766  0.34555224  1
  H+  H77  1  0.64694108  0.11068219  0.65740527  1
  H+  H78  1  0.10216991  0.20527773  -0.00745560  1
  H+  H79  1  0.61385196  0.72355792  0.48415812  1
  H+  H80  1  0.88431563  0.85700332  0.50618847  1
  H+  H81  1  0.18713499  0.58499677  0.58389218  1
  H+  H82  1  0.08785877  0.17270148  0.42822083  1
  H+  H83  1  0.86905037  0.13555742  0.82663030  1
  H+  H84  1  -0.02437753  0.86377742  0.69009312  1
  H+  H85  1  0.26852164  0.87830046  0.16139536  1
  H+  H86  1  0.15479576  0.35347568  0.19098557  1
  H+  H87  1  0.65786578  0.78054524  1.05454766  1
  H+  H88  1  0.39747191  0.60977789  0.65003424  1
  H+  H89  1  0.37812234  0.02673327  0.81263559  1
  H+  H90  1  0.23103630  0.11850779  0.33801481  1
  H+  H91  1  0.63969388  0.86240797  0.49989109  1
  H+  H92  1  0.72582441  0.11712895  0.84346842  1
  H+  H93  1  0.16738817  0.60642994  0.65052309  1
  H+  H94  1  0.37568571  0.88146321  0.98622870  1
  H+  H95  1  0.12914139  0.84796611  0.17417095  1
  H+  H96  1  0.88920284  0.03270118  0.32941498  1
  H+  H97  1  0.33795420  0.47764701  0.16954328  1
  H+  H98  1  0.84780259  0.93236147  0.09703429  1
  H+  H99  1  0.42790850  0.68622765  0.09189989  1
  H+  H100  1  0.38849313  0.60970301  0.17141891  1
  H+  H101  1  0.72927166  0.11324246  0.49930780  1
  H+  H102  1  0.89292746  0.52054154  0.15396726  1
  H+  H103  1  0.92232837  0.08604467  0.26663319  1
  H+  H104  1  0.22793076  0.36463497  0.66725129  1
  H+  H105  1  0.38075720  0.26142494  0.64770660  1
  H+  H106  1  0.12002722  0.72382139  0.16783914  1
  H+  H107  1  0.15572105  0.77305555  1.00769486  1
  H+  H108  1  0.63849872  0.86696872  0.65401706  1
  H+  H109  1  0.38389858  0.12352122  0.17003308  1
  H+  H110  1  0.39538855  0.50777607  -0.01631173  1
  H+  H111  1  0.82604629  0.92758703  0.40676883  1
  H+  H112  1  0.88619911  0.77121038  0.49335336  1
  H+  H113  1  0.01473991  0.37909959  0.81043948  1
  H+  H114  1  0.85615982  0.48559024  0.00658139  1
  H+  H115  1  0.59365499  0.71288579  0.33165225  1
  H+  H116  1  0.38272431  0.85361342  0.65512979  1
  H+  H117  1  0.37037259  0.73171415  0.48602679  1
  H+  H118  1  0.53279323  0.89627459  0.15596930  1
  H+  H119  1  0.92808571  0.59698117  1.07511776  1
  H+  H120  1  0.13888605  0.26806692  0.15800170  1
  H+  H121  1  0.10914642  0.97482530  0.48583004  1
  H+  H122  1  0.88921469  0.11493900  0.49988000  1
  H+  H123  1  0.12155715  0.85616692  0.50080012  1
  H+  H124  1  0.71485440  0.84020843  0.32063562  1
  H+  H125  1  0.44215834  0.87182102  0.23651475  1
  H+  H126  1  0.61812950  -0.02353454  0.49132923  1
  H+  H127  1  0.87262918  0.86880216  0.32573277  1
  H+  H128  1  0.61137245  0.13208608  0.82258200  1
  H+  H129  1  0.09227200  0.70528061  0.83762588  1
  H+  H130  1  0.16075704  0.15875192  0.85511766  1
  H+  H131  1  0.45972727  0.60437051  0.32367709  1
  H+  H132  1  0.24615320  0.60382725  0.19900076  1
  H+  H133  1  0.37405710  0.53982086  0.86093633  1
  H+  H134  1  0.34801770  -0.02819862  0.16263106  1
  H+  H135  1  0.34419177  0.24608357  0.02822258  1
  H+  H136  1  0.30657424  0.63500582  1.03152923  1
  H+  H137  1  0.64447532  1.02496426  0.83756158  1
  H+  H138  1  0.13111882  0.26344523  0.67981689  1
  H+  H139  1  0.02134489  0.13730912  0.82889361  1
  H+  H140  1  0.65334411  0.89424471  0.83743281  1
  H+  H141  1  0.38157109  0.99040091  0.47184021  1
  H+  H142  1  0.12204600  0.88770475  1.01343172  1
  H+  H143  1  0.07100095  0.37009382  0.03626330  1
  H+  H144  1  0.74159559  0.88306116  0.17021017  1
  H+  H145  1  0.20037345  1.05059702  0.79202695  1
  H+  H146  1  0.48792716  0.13287836  0.48876489  1
  H+  H147  1  0.36704694  0.36266891  0.49704383  1
  H+  H148  1  0.84995552  0.45505853  0.80598848  1
  H+  H149  1  0.25562725  0.62391000  0.34187445  1
  H+  H150  1  0.62777375  0.28144699  0.17298171  1
  H+  H151  1  0.80948912  0.40849439  0.08735451  1
  H+  H152  1  0.81151689  0.74367090  0.85731873  1
  H+  H153  1  0.59778104  0.62715912  0.33101831  1
  H+  H154  1  0.47514430  0.12423047  0.16695855  1
  H+  H155  1  -0.01501868  0.86953626  0.00519779  1
  H+  H156  1  0.41747311  0.98840383  0.35897102  1
  H+  H157  1  0.10647582  0.22965425  0.82432636  1
  H+  H158  1  0.69833102  0.28684212  0.87364114  1
  H+  H159  1  0.36471732  0.14810053  0.48271084  1
  H+  H160  1  0.87889418  0.25950189  0.82149590  1
  H+  H161  1  0.55223219  0.00594899  0.20561661  1
  H+  H162  1  0.61703621  0.13524571  0.48509101  1
  H+  H163  1  0.95174600  0.34446283  0.24844520  1
  H+  H164  1  0.88503845  0.09902121  -0.01456024  1
  H+  H165  1  0.39380410  0.77119990  0.65281153  1
  H+  H166  1  0.64807494  0.87623305  0.16888932  1
  H+  H167  1  0.77074062  0.62877635  0.48536089  1
  H+  H168  1  0.13893206  0.36794147  0.83450205  1
  H+  H169  1  0.29546358  0.35636363  0.98125776  1
  H+  H170  1  0.76702924  0.94983745  0.36637513  1
  H+  H171  1  0.83169499  0.59285175  0.80356367  1
  H+  H172  1  0.48417967  0.85640057  0.98958361  1
  H+  H173  1  1.01579530  0.88863331  0.33392087  1
  H+  H174  1  0.74516696  0.13133885  0.32054321  1
  H+  H175  1  0.34708738  0.35369079  0.79628910  1
  H+  H176  1  0.71990336  0.62238887  0.16133483  1
  H+  H177  1  0.53244802  0.38296708  0.83628468  1
  H+  H178  1  0.08962418  0.66138618  0.67959092  1
  H+  H179  1  0.59647820  0.34350064  1.01933084  1
  H+  H180  1  0.42703082  0.87537398  0.33367606  1
  H+  H181  1  0.40069541  0.04669351  1.08918773  1
  H+  H182  1  0.89731401  0.03351545  0.65446500  1
  H+  H183  1  0.87506691  0.98801416  -0.00275216  1
  H+  H184  1  0.36291201  0.47347027  0.65208218  1
  H+  H185  1  0.79219041  0.39468668  0.97607920  1
  H+  H186  1  0.89063202  0.35251053  1.00736936  1
  H+  H187  1  0.77156159  0.14834483  0.17670453  1
  H+  H188  1  0.78279323  0.38955807  0.32835411  1
  H+  H189  1  0.28806372  0.17562209  0.84834910  1
  H+  H190  1  0.13151835  0.51870957  0.82913029  1
  H+  H191  1  0.66838878  0.99924731  0.34374603  1
  H+  H192  1  0.12106722  0.85311960  0.32273029  1
  H+  H193  1  0.36582979  0.40023478  0.16778709  1
  H+  H194  1  0.87349546  0.61759549  0.63287518  1
  H+  H195  1  0.15349226  0.12528328  0.65309937  1
  H+  H196  1  0.61345793  -0.03745787  0.99982433  1
  H+  H197  1  0.82387403  0.66425579  0.76756094  1
  H+  H198  1  0.47235303  0.37447803  0.17388432  1
  H+  H199  1  0.64718722  0.27499124  0.32171643  1
  H+  H200  1  0.77746842  0.13119395  0.66851342  1
  H+  H201  1  0.64091456  0.75929321  0.14718502  1
  H+  H202  1  0.62032901  -0.02288003  0.14966594  1
  H+  H203  1  0.88171788  0.11157081  0.17918169  1
  H+  H204  1  1.00437943  0.57668388  0.38137118  1
  H+  H205  1  0.37475397  0.12428332  0.64655489  1
  H+  H206  1  0.86965230  0.89588517  0.15747174  1
  H+  H207  1  0.53032020  0.42234585  0.05437973  1
  H+  H208  1  0.87960274  0.36396599  0.64713686  1
  H+  H209  1  0.11386818  0.73233428  0.49722047  1
  H+  H210  1  0.48263594  0.86503050  0.83462050  1
  H+  H211  1  0.98703102  0.61783101  0.50075721  1
  H+  H212  1  0.77534907  0.88764068  0.49511129  1
  H+  H213  1  0.02821946  0.88814991  0.83934186  1
  H+  H214  1  0.06426254  0.51362394  0.96175940  1
  H+  H215  1  0.89015037  0.24223463  0.34052984  1
  H+  H216  1  0.87233274  0.77972164  0.32569201  1
  H+  H217  1  0.85899202  0.64116552  0.14864325  1
  H+  H218  1  0.27113935  0.38466073  0.49411005  1
  H+  H219  1  1.02168689  0.88123702  0.16458198  1
  H+  H220  1  0.12246060  0.14314726  0.34740130  1
  H+  H221  1  0.01880754  0.88608973  0.49000697  1
  H+  H222  1  0.45906499  0.02875095  0.60620385  1
  H+  H223  1  0.11851144  0.46670322  0.63954560  1
  H+  H224  1  0.54693396  0.29398754  -0.03894698  1
  H+  H225  1  0.26140838  0.38729333  0.34691713  1
  H+  H226  1  0.57256618  0.39639396  0.40699560  1
  H+  H227  1  0.15925719  0.05222128  0.79371147  1
  H+  H228  1  0.71318982  0.37152637  0.16742700  1
  H+  H229  1  0.29489308  0.63271670  0.65902847  1
  H+  H230  1  0.62164898  0.64013517  0.81477582  1
  H+  H231  1  0.38347881  0.11711466  0.81338207  1
  H+  H232  1  0.08605427  0.60258532  0.34056441  1
  H+  H233  1  0.01308594  0.15368190  0.14841427  1
  H+  H234  1  0.13866936  0.11373413  0.49468936  1
  H+  H235  1  0.52535611  0.88579869  0.67296614  1
  H+  H236  1  0.35744738  -0.02077983  0.66832085  1
  H+  H237  1  0.40493811  0.27749160  0.87198629  1
  H+  H238  1  0.11768566  0.47799285  0.50638378  1
  H+  H239  1  0.03067956  0.14481815  0.67102268  1
  H+  H240  1  0.89138297  0.36680029  0.48888097  1
  H+  H241  1  0.60057726  0.13707664  0.17360555  1
  H+  H242  1  0.40023337  0.12389083  0.31904441  1
  H+  H243  1  0.94857712  0.87990163  0.91545710  1
  H+  H244  1  0.36157459  0.72773997  0.81447768  1
  H+  H245  1  0.02673429  0.38808190  0.50178605  1
  H+  H246  1  -0.04508804  0.61602279  0.65989836  1
  H+  H247  1  0.58931725  0.43922081  0.73896884  1
  H+  H248  1  0.50182363  0.10569365  0.65243188  1
  H+  H249  1  0.14518523  0.35893755  0.51278670  1
  H+  H250  1  1.03189772  0.14157075  0.33729733  1
  H+  H251  1  0.86127764  0.22379628  0.66798784  1
  H+  H252  1  0.02845572  0.14018424  0.48784638  1
  H+  H253  1  0.47629416  0.08691096  1.03711606  1
  H+  H254  1  0.38462242  0.62882575  0.00203276  1
  H+  H255  1  0.48253459  0.59541633  0.97809501  1
  H+  H256  1  0.63137683  0.71121735  -0.01686100  1
  H+  H257  1  0.84344968  0.20414343  0.01410696  1
  H+  H258  1  0.62947460  0.22855535  0.48224909  1
  H+  H259  1  0.17339920  0.35858831  0.99713236  1
  H+  H260  1  0.64121703  0.42859042  0.68695336  1
  H+  H261  1  0.41856604  0.54627129  0.85617937  1
  H+  H262  1  0.11976995  0.97608602  0.01062628  1
  H+  H263  1  0.25611833  0.36761433  0.16443824  1
  H+  H264  1  0.87025100  0.77266813  0.65935239  1
  H+  H265  1  0.58495830  0.32996208  0.63272796  1
  H+  H266  1  0.13245737  0.28161174  0.33458299  1
  H+  H267  1  0.31724101  0.93398157  0.73010459  1
  H+  H268  1  0.64631976  0.90031898  0.33815845  1
  H+  H269  1  0.36592420  0.26339193  0.49306851  1
  H+  H270  1  0.15546968  0.52506439  0.18660668  1
  H+  H271  1  0.13282195  0.46658932  0.01773963  1
  H+  H272  1  0.82274764  0.35942119  0.14099067  1
  H+  H273  1  0.37132359  0.23540052  0.32905214  1
  H+  H274  1  0.87639057  0.48601568  0.47908022  1
  H+  H275  1  0.86975017  0.86218437  0.67876662  1
  H+  H276  1  0.59798045  0.75685070  0.84333406  1
  H+  H277  1  0.77103596  0.89689885  0.66463653  1
  H+  H278  1  0.13621108  0.01626073  0.19125280  1
  H+  H279  1  0.86578371  0.97759135  0.49615767  1
  H+  H280  1  0.35910815  0.16654595  0.02484815  1
  H+  H281  1  0.86218264  0.63097486  0.48434982  1
  H+  H282  1  0.84420756  0.48013336  0.65732717  1
  H+  H283  1  0.47351588  0.36617642  0.33079972  1
  H+  H284  1  0.48405890  0.86441676  0.49369625  1
  H+  H285  1  0.65944801  0.59560732  0.89467233  1
  H+  H286  1  0.91057154  0.59424108  0.24614515  1
  H+  H287  1  0.53429722  0.13986099  0.32795579  1
  H+  H288  1  0.42009027  0.35109870  0.23788722  1
  H+  H289  1  0.43110441  0.10274052  0.54798953  1
  H+  H290  1  0.95151959  0.32516786  0.97394536  1
  H+  H291  1  0.44415544  0.10722885  0.92149736  1
  H+  H292  1  0.17141942  0.08735752  0.55408455  1
  H+  H293  1  0.77037441  0.65123480  0.62477286  1
  H+  H294  1  0.39714946  0.32143123  0.55855493  1
  H+  H295  1  0.81830889  0.14881062  0.07391695  1
  H+  H296  1  0.90564148  0.32998855  0.55173343  1
  H+  H297  1  0.15734886  0.81942260  0.23507186  1
  H+  H298  1  0.34437194  0.17617667  0.38755861  1
  H+  H299  1  0.40211430  0.10334962  0.93061092  1
  H+  H300  1  0.59076592  0.16770030  0.38849153  1
  H+  H301  1  0.58774178  0.20380236  0.01089887  1
  H+  H302  1  0.66793012  0.83161331  0.55899882  1
  H+  H303  1  0.60691957  0.39170552  0.14921373  1
  H+  H304  1  0.11308078  0.66787963  0.07864805  1
  H+  H305  1  0.15269402  0.56942197  0.27546105  1
  H+  H306  1  0.11854763  0.42249728  0.12234925  1
  H+  H307  1  0.68999958  0.97542350  0.78276205  1
  H+  H308  1  0.90763061  0.83752061  0.23143930  1
  H+  H309  1  0.61139742  0.92609755  0.43132282  1
  H+  H310  1  0.81873060  0.84648001  0.79591445  1
  H+  H311  1  0.38169146  0.77518091  0.31585577  1
  H+  H312  1  0.86327554  0.22494077  0.48359389  1
  H+  H313  1  0.05840699  0.89370136  0.74346414  1
  H+  H314  1  0.41969515  0.08225774  0.26217015  1
  H+  H315  1  0.08487056  0.91239733  0.10751026  1
  H+  H316  1  0.14770612  0.62216266  0.50298242  1
  H+  H317  1  0.64056190  0.77903311  0.65116431  1
  H+  H318  1  0.15973238  0.57360044  0.88990708  1
  H+  H319  1  0.65354660  0.32932886  0.58746355  1
  H+  H320  1  0.66504058  0.82648696  0.25862371  1
  H+  H321  1  0.92385258  0.09160514  0.56011183  1
  H+  H322  1  0.37219710  0.44778286  0.81435495  1
  H+  H323  1  0.82893355  0.66783516  0.39119019  1
  H+  H324  1  0.09076364  0.67142261  0.43734568  1
  H+  H325  1  0.35204232  0.47400131  0.34290744  1
  H+  H326  1  0.64221377  0.62874561  0.64701461  1
  H+  H327  1  0.28311376  0.88204625  -0.00850996  1
  H+  H328  1  0.13044098  0.35828650  0.65569563  1
  H+  H329  1  0.87871892  0.53975246  0.88158472  1
  H+  H330  1  0.16437809  0.81921322  0.94436342  1
  H+  H331  1  0.39654261  0.76718083  0.98933424  1
  H+  H332  1  0.32480186  0.66478083  0.39445665  1
  H+  H333  1  0.59267587  0.91852068  0.73056636  1
  H+  H334  1  0.32047221  0.17752980  0.12095213  1
  H+  H335  1  0.84374430  0.42795091  0.41734413  1
  H+  H336  1  0.42844824  0.82932004  0.89538370  1
  H+  H337  1  0.11919954  0.76465187  0.32701321  1
  H+  H338  1  0.65945419  0.59794963  0.25605914  1
  H+  H339  1  0.66084324  0.07708941  0.93504761  1
  H+  H340  1  0.83688643  0.15933655  0.76375076  1
  H+  H341  1  0.32882414  0.41471493  0.43151356  1
  H+  H342  1  0.89620703  0.32923786  0.87371255  1
  H+  H343  1  0.82636143  0.67596263  0.09444693  1
  H+  H344  1  0.08371890  0.16751341  0.73519819  1
  H+  H345  1  0.86400256  0.48318869  0.32135869  1
  H+  H346  1  0.71519087  0.09830695  0.99758430  1
  H+  H347  1  0.06207705  0.17298174  0.08415440  1
  H+  H348  1  0.66388405  0.58443324  0.55576846  1
  H+  H349  1  0.67723064  0.32737465  0.92753165  1
  H+  H350  1  0.58968041  0.67325440  0.71629178  1
  H+  H351  1  0.78866162  0.89139871  0.01273777  1
  H+  H352  1  0.14384889  0.83016313  0.56434464  1
  H+  H353  1  0.82545554  0.92990070  0.72632188  1
  H+  H354  1  0.17716425  0.32821470  0.92976018  1
  H+  H355  1  0.34693364  0.21074504  0.78843773  1
  H+  H356  1  0.05683439  0.67112558  0.74331048  1
  H+  H357  1  0.68049109  0.86643578  0.90461949  1
  H+  H358  1  0.07439741  0.91128859  0.39284630  1
  H+  H359  1  0.59666958  0.16904393  0.72961323  1
  H+  H360  1  0.14100658  1.03189327  0.33787854  1
  H+  H361  1  0.18955931  0.12877956  0.91585148  1
  H+  H362  1  0.27080426  0.64273014  0.81208806  1
  H+  H363  1  0.42252072  0.58085208  0.58750367  1
  H+  H364  1  0.12214587  0.10064547  0.99659452  1
  H+  H365  1  0.09387934  0.61880904  0.82560692  1
  H+  H366  1  0.92392161  0.38764484  0.33338716  1
  H+  H367  1  0.73497521  0.29313386  0.54547766  1
  H+  H368  1  0.82078825  0.40536016  0.73678077  1
  H+  H369  1  0.91742650  0.64361382  1.01869210  1
  H+  H370  1  0.26902250  0.13709800  0.48166525  1
  H+  H371  1  0.08195545  0.41089832  0.75640165  1
  H+  H372  1  0.36129420  0.12623470  0.71543312  1
  H+  H373  1  0.67248905  0.08406333  0.56032655  1
  H+  H374  1  0.66813546  0.34059363  0.26672778  1
  H+  H375  1  0.42595065  0.83756964  0.55325016  1
  H+  H376  1  0.34509905  0.66739042  0.72194817  1
  H+  H377  1  0.57895227  0.66241911  0.42471093  1
  H+  H378  1  0.40944059  0.90126961  0.17681102  1
  H+  H379  1  0.58963433  0.17024910  0.10871500  1
  H+  H380  1  0.10144104  0.49781462  0.32871259  1
  H+  H381  1  0.33767338  0.41684704  0.71267794  1
  H+  H382  1  0.96561389  0.61433374  0.30709987  1
  H+  H383  1  0.91983993  0.58075466  0.55600530  1
  O2-  O384  1  0.05898909  0.19909806  0.12324113  1
  O2-  O385  1  0.08938398  0.17018140  0.47437211  1
  O2-  O386  1  0.08108579  0.16889501  0.81092992  1
  O2-  O387  1  0.11053763  0.42392393  0.16668991  1
  O2-  O388  1  0.08788713  0.41522069  0.51486443  1
  O2-  O389  1  0.07744788  0.41217029  0.80053435  1
  O2-  O390  1  0.09487716  0.66156751  0.15173742  1
  O2-  O391  1  0.09046861  0.66954966  0.48213372  1
  O2-  O392  1  0.05930076  0.64775018  0.81699880  1
  O2-  O393  1  0.08262671  0.90458506  0.15227481  1
  O2-  O394  1  0.07748627  0.91385781  0.47176815  1
  O2-  O395  1  0.07743332  0.88660043  0.81519105  1
  O2-  O396  1  0.33250794  0.17625521  0.16467912  1
  O2-  O397  1  0.33076409  0.17498017  0.46831828  1
  O2-  O398  1  0.34790432  0.19197564  0.82979433  1
  O2-  O399  1  0.32595052  0.41952365  0.15080981  1
  O2-  O400  1  0.33303078  0.41582778  0.47791867  1
  O2-  O401  1  0.32917898  0.39654418  0.79264027  1
  O2-  O402  1  0.45476816  0.68913959  0.13152459  1
  O2-  O403  1  0.33612788  0.66977821  0.47294245  1
  O2-  O404  1  0.32886459  0.67116893  0.79451907  1
  O2-  O405  1  0.32752095  0.91446126  0.14477469  1
  O2-  O406  1  0.34905183  0.93068319  0.45713524  1
  O2-  O407  1  0.33119411  0.91818682  0.85226482  1
  O2-  O408  1  0.58486422  0.17754583  0.15305667  1
  O2-  O409  1  0.59152049  0.16928305  0.46796746  1
  O2-  O410  1  0.58983199  0.16781925  0.80290222  1
  O2-  O411  1  0.57679882  0.42320238  0.13368746  1
  O2-  O412  1  0.59647966  0.41116581  0.48591462  1
  O2-  O413  1  0.58502518  0.41872312  0.81293104  1
  O2-  O414  1  0.61692152  0.71257126  0.11569569  1
  O2-  O415  1  0.58271260  0.66249011  0.47050436  1
  O2-  O416  1  0.61358496  0.68285049  0.78964723  1
  O2-  O417  1  0.59079514  0.91668357  0.13587041  1
  O2-  O418  1  0.59202403  0.91711437  0.47479610  1
  O2-  O419  1  0.63290508  0.94327350  0.80103448  1
  O2-  O420  1  0.82804225  0.17305539  0.15766717  1
  O2-  O421  1  0.83298479  0.16343457  0.47091434  1
  O2-  O422  1  0.83831438  0.16536193  0.80899808  1
  O2-  O423  1  0.81547504  0.40879846  0.13281508  1
  O2-  O424  1  0.84571452  0.42556691  0.46300009  1
  O2-  O425  1  0.82385233  0.39756293  0.78359951  1
  O2-  O426  1  0.82847080  0.67249702  0.13937978  1
  O2-  O427  1  0.83178819  0.66136088  0.47047079  1
  O2-  O428  1  0.79065030  0.60667961  0.78424690  1
  O2-  O429  1  0.84235348  0.92943017  0.14270886  1
  O2-  O430  1  0.83644706  0.91729007  0.48045705  1
  O2-  O431  1  0.82400366  0.90108557  0.80806404  1
  O2-  O432  1  0.15601747  0.07170315  0.21151216  1
  O2-  O433  1  0.16945089  0.08311386  0.50878681  1
  O2-  O434  1  0.21093673  0.16748396  0.87947531  1
  O2-  O435  1  0.18201976  0.31808537  0.18440294  1
  O2-  O436  1  0.17874172  0.33040890  0.52187701  1
  O2-  O437  1  0.16723916  0.33658195  0.85008887  1
  O2-  O438  1  0.18496186  0.58654404  0.20082113  1
  O2-  O439  1  0.17765978  0.59008915  0.51564047  1
  O2-  O440  1  0.15712283  0.57815727  0.84527610  1
  O2-  O441  1  0.15976045  0.81739973  0.18887545  1
  O2-  O442  1  0.14429787  0.82128688  0.52029788  1
  O2-  O443  1  0.15332432  0.80503370  0.86562750  1
  O2-  O444  1  0.41152372  0.08621360  0.16949713  1
  O2-  O445  1  0.42720474  0.10581842  0.50372673  1
  O2-  O446  1  0.40273758  0.08209816  0.79056090  1
  O2-  O447  1  0.41432841  0.34839710  0.19170687  1
  O2-  O448  1  0.39385844  0.32468750  0.51203236  1
  O2-  O449  1  0.44166266  0.33340021  0.89407100  1
  O2-  O450  1  0.34271858  0.55915061  0.19557954  1
  O2-  O451  1  0.41890800  0.58471498  0.51193196  1
  O2-  O452  1  0.55545190  0.69891055  0.82652879  1
  O2-  O453  1  0.46111792  0.90468215  0.19646283  1
  O2-  O454  1  0.42325677  0.83475454  0.50846751  1
  O2-  O455  1  0.42389823  0.83562226  0.85035850  1
  O2-  O456  1  0.61165526  0.05696512  0.20058589  1
  O2-  O457  1  0.66896833  0.08526714  0.51518011  1
  O2-  O458  1  0.66529504  0.08432596  0.85701178  1
  O2-  O459  1  0.65405200  0.34379363  0.18392321  1
  O2-  O460  1  0.70947241  0.32303978  0.52491941  1
  O2-  O461  1  0.72582070  0.33418118  0.90278819  1
  O2-  O462  1  0.65826107  0.59912846  0.17122357  1
  O2-  O463  1  0.66786244  0.58222236  0.51058178  1
  O2-  O464  1  0.65382456  0.58249910  0.85037439  1
  O2-  O465  1  0.68102202  0.84947091  0.18567394  1
  O2-  O466  1  0.66915914  0.83019752  0.51365749  1
  O2-  O467  1  0.67715401  0.85568043  0.86086749  1
  O2-  O468  1  0.91715945  0.08618131  0.19106468  1
  O2-  O469  1  0.92029479  0.08553339  0.51512008  1
  O2-  O470  1  0.91935964  0.08817423  0.85507953  1
  O2-  O471  1  0.94176107  0.34032467  0.20263788  1
  O2-  O472  1  0.91445280  0.33146129  0.50705846  1
  O2-  O473  1  0.90471928  0.32536122  0.82997918  1
  O2-  O474  1  0.92357807  0.58403140  0.15629742  1
  O2-  O475  1  0.92371789  0.58367984  0.51095156  1
  O2-  O476  1  0.89265774  0.54557596  0.83836394  1
  O2-  O477  1  0.91286889  0.83829257  0.18614397  1
  O2-  O478  1  0.91264400  0.82383201  0.51873902  1
  O2-  O479  1  0.96771447  0.90612013  0.87408974  1
  O2-  O480  1  0.17100973  0.09167587  0.35241859  1
  O2-  O481  1  0.17798445  0.09363871  0.63285758  1
  O2-  O482  1  0.16214066  0.07813988  0.98473542  1
  O2-  O483  1  0.15952997  0.34434765  0.32641710  1
  O2-  O484  1  0.16352403  0.33347404  0.67765669  1
  O2-  O485  1  0.18664441  0.32011378  0.97326284  1
  O2-  O486  1  0.13993103  0.56224508  0.31992720  1
  O2-  O487  1  0.19025261  0.57436753  0.63002600  1
  O2-  O488  1  0.12464988  0.54601896  0.97351668  1
  O2-  O489  1  0.14926829  0.82064801  0.30762910  1
  O2-  O490  1  0.14539990  0.84845240  0.64801323  1
  O2-  O491  1  0.17900716  0.83089292  0.98844252  1
  O2-  O492  1  0.43123229  0.09321417  0.30573659  1
  O2-  O493  1  0.44614317  0.06705535  0.62960939  1
  O2-  O494  1  0.41118958  0.04981205  1.04439298  1
  O2-  O495  1  0.41567994  0.34251508  0.30993992  1
  O2-  O496  1  0.40506011  0.31820089  0.62852039  1
  O2-  O497  1  0.40179283  0.35331525  1.00766461  1
  O2-  O498  1  0.39749121  0.57254665  0.31210801  1
  O2-  O499  1  0.42264891  0.57527829  0.63317649  1
  O2-  O500  1  0.41944362  0.56990854  0.97835253  1
  O2-  O501  1  0.42480502  0.83314878  0.30259589  1
  O2-  O502  1  0.42071176  0.83319935  0.64014516  1
  O2-  O503  1  0.42351369  0.82731983  0.97324218  1
  O2-  O504  1  0.68332387  0.09213575  0.31098485  1
  O2-  O505  1  0.67533185  0.07948556  0.64097978  1
  O2-  O506  1  0.65548694  0.07187488  0.98052575  1
  O2-  O507  1  0.67801718  0.33769146  0.31074755  1
  O2-  O508  1  0.63743009  0.32594084  0.63115939  1
  O2-  O509  1  0.59366114  0.30242440  0.98796392  1
  O2-  O510  1  0.65723303  0.59448245  0.30085645  1
  O2-  O511  1  0.67149251  0.59628855  0.63323349  1
  O2-  O512  1  0.65017960  0.61074105  0.97069150  1
  O2-  O513  1  0.65665486  0.81595433  0.30365962  1
  O2-  O514  1  0.67228459  0.84068576  0.63781724  1
  O2-  O515  1  0.67350278  0.81188655  1.01463139  1
  O2-  O516  1  0.92442585  0.09140075  0.31217910  1
  O2-  O517  1  0.93157539  0.09462377  0.64102388  1
  O2-  O518  1  0.91477037  0.07106311  0.96756756  1
  O2-  O519  1  0.95358647  0.35573445  0.32064651  1
  O2-  O520  1  0.90486350  0.32910967  0.63348883  1
  O2-  O521  1  0.89182092  0.30970825  0.98020386  1
  O2-  O522  1  0.90623918  0.59052449  0.29072286  1
  O2-  O523  1  0.90135919  0.58128118  0.63624089  1
  O2-  O524  1  0.93423540  0.60124478  1.02994322  1
  O2-  O525  1  0.90236625  0.84004849  0.30940043  1
  O2-  O526  1  0.89473543  0.82388961  0.68766002  1
  O2-  O527  1  0.92586353  0.84539078  0.98745979  1
  O2-  O528  1  0.06780187  0.14688255  0.00932654  1
  O2-  O529  1  0.09033811  0.17578123  0.35470579  1
  O2-  O530  1  0.09013025  0.17633314  0.68953377  1
  O2-  O531  1  0.12994279  0.41701186  0.04025711  1
  O2-  O532  1  0.03884161  0.40003289  0.35050415  1
  O2-  O533  1  0.08032360  0.40358765  0.63267306  1
  O2-  O534  1  0.11063110  0.66797419  0.03243432  1
  O2-  O535  1  0.04704197  0.62481879  0.35744414  1
  O2-  O536  1  0.05438447  0.68197640  0.69847609  1
  O2-  O537  1  0.08943321  0.91571246  0.02692865  1
  O2-  O538  1  0.07557892  0.91063624  0.34743667  1
  O2-  O539  1  0.04889166  0.90202769  0.69915104  1
  O2-  O540  1  0.31905035  0.18421612  0.03939041  1
  O2-  O541  1  0.34734953  0.17456693  0.34256766  1
  O2-  O542  1  0.35010768  0.14602394  0.67656152  1
  O2-  O543  1  0.35918307  0.39329017  -0.02621607  1
  O2-  O544  1  0.32381102  0.41378620  0.35930424  1
  O2-  O545  1  0.32885381  0.41226849  0.66807618  1
  O2-  O546  1  0.36675369  0.66979943  0.02041539  1
  O2-  O547  1  0.31812353  0.65833651  0.34943695  1
  O2-  O548  1  0.35342416  0.66783514  0.67627532  1
  O2-  O549  1  0.34769784  0.91886526  -0.01510110  1
  O2-  O550  1  0.44473508  0.95906472  0.37922507  1
  O2-  O551  1  0.31380257  0.92372640  0.68638421  1
  O2-  O552  1  0.57500593  0.14886631  0.03048083  1
  O2-  O553  1  0.59535138  0.17020524  0.34335676  1
  O2-  O554  1  0.59531803  0.16596476  0.68323085  1
  O2-  O555  1  0.58139941  0.41906489  0.06672391  1
  O2-  O556  1  0.56394400  0.39147064  0.36228648  1
  O2-  O557  1  0.60015587  0.44787347  0.69381583  1
  O2-  O558  1  0.59402917  0.64743590  -0.02239484  1
  O2-  O559  1  0.56431512  0.65387515  0.34911343  1
  O2-  O560  1  0.58815140  0.67451516  0.67070109  1
  O2-  O561  1  0.58475231  0.90213296  0.01505511  1
  O2-  O562  1  0.66889713  0.95076129  0.36572728  1
  O2-  O563  1  0.58710430  0.91647374  0.68461763  1
  O2-  O564  1  0.81508112  0.14440119  0.02911019  1
  O2-  O565  1  0.85062348  0.18037008  0.34830763  1
  O2-  O566  1  0.83785888  0.16490263  0.68457680  1
  O2-  O567  1  0.82674668  0.42316828  0.01266160  1
  O2-  O568  1  0.84495561  0.42654854  0.34071876  1
  O2-  O569  1  0.81454194  0.41765802  0.67050186  1
  O2-  O570  1  0.82186964  0.68760501  0.01521433  1
  O2-  O571  1  0.82776015  0.67533171  0.34629313  1
  O2-  O572  1  0.83587070  0.68621764  0.61907465  1
  O2-  O573  1  0.85065132  0.92875077  0.02147939  1
  O2-  O574  1  0.81368006  0.93497512  0.36295757  1
  O2-  O575  1  0.83160992  0.92857895  0.68161663  1
