# generated using pymatgen
data_H2O
_symmetry_space_group_name_H-M   'P 1'
_cell_length_a   17.98545497
_cell_length_b   17.98080220
_cell_length_c   22.01157883
_cell_angle_alpha   89.96210683
_cell_angle_beta   90.00440819
_cell_angle_gamma   119.95217066
_symmetry_Int_Tables_number   1
_chemical_formula_structural   H2O
_chemical_formula_sum   'H384 O192'
_cell_volume   6167.67264874
_cell_formula_units_Z   192
loop_
 _symmetry_equiv_pos_site_id
 _symmetry_equiv_pos_as_xyz
  1  'x, y, z'
loop_
 _atom_type_symbol
 _atom_type_oxidation_number
  H+  1.0
  O2-  -2.0
loop_
 _atom_site_type_symbol
 _atom_site_label
 _atom_site_symmetry_multiplicity
 _atom_site_fract_x
 _atom_site_fract_y
 _atom_site_fract_z
 _atom_site_occupancy
  H+  H0  1  0.90071145  0.49670420  0.49691350  1
  H+  H1  1  0.06813210  0.13587727  0.09759737  1
  H+  H2  1  0.63032406  0.86864709  0.32711297  1
  H+  H3  1  0.85849734  0.48270278  0.33754834  1
  H+  H4  1  0.33994060  0.71030776  0.82791860  1
  H+  H5  1  0.89367475  0.77855914  0.64893060  1
  H+  H6  1  0.89588744  1.02890395  0.48807454  1
  H+  H7  1  0.65658670  0.84761400  0.63586433  1
  H+  H8  1  0.95998547  0.34580127  0.99324611  1
  H+  H9  1  0.88183315  0.77882614  0.84549552  1
  H+  H10  1  0.87177586  0.26472657  0.83961904  1
  H+  H11  1  0.84695831  0.46688218  0.01551747  1
  H+  H12  1  0.11264510  0.12350676  0.48914515  1
  H+  H13  1  0.14090884  0.09825478  0.16823976  1
  H+  H14  1  0.38661438  0.85938651  0.66504842  1
  H+  H15  1  0.77443047  0.67253540  0.67014190  1
  H+  H16  1  0.63807508  0.11756803  0.32065688  1
  H+  H17  1  0.25050649  0.38734502  0.32798259  1
  H+  H18  1  0.30423102  0.86060779  0.32109042  1
  H+  H19  1  0.91141589  0.04034848  0.83257708  1
  H+  H20  1  0.13099895  0.14791671  0.83332165  1
  H+  H21  1  0.53430080  0.87353305  1.00377590  1
  H+  H22  1  0.86146672  0.63852125  0.16175180  1
  H+  H23  1  0.79817844  0.90592043  1.01381268  1
  H+  H24  1  0.98538693  0.86341732  0.63613313  1
  H+  H25  1  0.02084609  0.37946038  0.67369229  1
  H+  H26  1  0.83349148  0.16294973  0.73194235  1
  H+  H27  1  0.29369862  0.91162914  0.51435661  1
  H+  H28  1  0.72326637  0.60857130  0.33086755  1
  H+  H29  1  0.29109583  0.13799599  0.84334804  1
  H+  H30  1  0.63727244  0.36596172  0.34486466  1
  H+  H31  1  0.62899313  0.52685041  0.52782271  1
  H+  H32  1  0.37803077  0.34879324  0.17684173  1
  H+  H33  1  0.89697758  0.32244957  0.93608921  1
  H+  H34  1  0.31749424  0.28812706  0.66793126  1
  H+  H35  1  0.39532548  0.10151573  0.66150474  1
  H+  H36  1  0.76894349  0.63366343  0.16006625  1
  H+  H37  1  0.89707205  0.81940464  0.27232387  1
  H+  H38  1  0.03307258  0.10322869  0.33436998  1
  H+  H39  1  0.24193904  0.87601660  0.00012401  1
  H+  H40  1  0.51593199  0.13161968  0.49074213  1
  H+  H41  1  0.15379167  1.03406984  0.64795056  1
  H+  H42  1  0.13940153  0.77525812  0.66860034  1
  H+  H43  1  0.73172504  0.36624548  0.34029057  1
  H+  H44  1  0.85251212  0.72612495  0.33995972  1
  H+  H45  1  0.37715594  0.99390352  0.00032440  1
  H+  H46  1  0.13117647  0.89493007  1.00541612  1
  H+  H47  1  0.85264484  0.21878061  0.00819990  1
  H+  H48  1  0.34476220  0.58178161  0.01731354  1
  H+  H49  1  0.31720640  0.56977728  0.17472486  1
  H+  H50  1  0.61217041  0.28235745  0.54625015  1
  H+  H51  1  0.96895686  0.61268588  0.32647030  1
  H+  H52  1  0.88759066  0.60946526  0.50977083  1
  H+  H53  1  0.38651953  0.77765464  0.97480617  1
  H+  H54  1  0.25440511  0.63630182  0.66675201  1
  H+  H55  1  0.38807776  0.10954033  0.16923843  1
  H+  H56  1  0.36614702  0.44983534  0.13412533  1
  H+  H57  1  0.62997354  0.02149062  0.99717746  1
  H+  H58  1  0.88911818  0.35327363  0.65917211  1
  H+  H59  1  0.14618675  0.36977753  0.50865936  1
  H+  H60  1  0.87344133  0.13799511  0.67550272  1
  H+  H61  1  0.87161606  0.63908112  1.01504544  1
  H+  H62  1  0.00575148  0.37812035  0.82822399  1
  H+  H63  1  0.55079651  0.63808380  0.13340037  1
  H+  H64  1  0.49325270  0.39271092  0.67289857  1
  H+  H65  1  0.51788923  0.38619358  0.17077773  1
  H+  H66  1  0.36977121  0.41667855  0.68556416  1
  H+  H67  1  0.15364278  0.89295828  0.33948675  1
  H+  H68  1  0.44159531  0.55906926  0.06641847  1
  H+  H69  1  0.63418352  0.26769610  0.33740244  1
  H+  H70  1  0.13942970  0.85658483  0.85792861  1
  H+  H71  1  0.97052794  0.61605895  0.17571233  1
  H+  H72  1  0.39462466  0.10754561  0.88107128  1
  H+  H73  1  0.39444594  0.27376916  -0.00846403  1
  H+  H74  1  1.01573971  0.12621073  1.00211348  1
  H+  H75  1  0.87835770  0.73831759  0.01536726  1
  H+  H76  1  0.70719630  0.31398910  0.49849446  1
  H+  H77  1  0.63933660  0.09761094  0.83859291  1
  H+  H78  1  0.87307767  0.86106879  0.18422256  1
  H+  H79  1  0.07759696  0.31536129  0.31032236  1
  H+  H80  1  0.76556764  0.12926154  1.00948182  1
  H+  H81  1  0.35110459  0.49630182  1.00420314  1
  H+  H82  1  0.08251704  0.60291505  1.02144851  1
  H+  H83  1  0.13498872  0.38295864  0.16173449  1
  H+  H84  1  0.11453704  0.51699821  0.18811323  1
  H+  H85  1  0.86661175  0.22155747  0.48448869  1
  H+  H86  1  0.12791252  0.11861014  0.33386968  1
  H+  H87  1  0.58159475  0.71700352  0.84659100  1
  H+  H88  1  0.15116929  0.03534809  0.85719185  1
  H+  H89  1  0.23182952  0.86264683  0.66670153  1
  H+  H90  1  0.53330830  0.63934161  0.49083160  1
  H+  H91  1  0.20014169  0.72469946  0.44476972  1
  H+  H92  1  0.82351979  0.48458358  0.16025630  1
  H+  H93  1  0.35378705  0.37007286  -0.00619818  1
  H+  H94  1  0.28182396  0.13708137  0.16024806  1
  H+  H95  1  0.75268919  0.60403231  0.49951177  1
  H+  H96  1  0.33902232  0.92004493  0.73680970  1
  H+  H97  1  0.36705633  0.65316394  0.33303413  1
  H+  H98  1  0.83733818  0.45825770  0.83707031  1
  H+  H99  1  0.52374648  0.88433261  0.81782679  1
  H+  H100  1  0.87064892  0.14138072  0.82652447  1
  H+  H101  1  0.87274647  0.77263881  0.17826198  1
  H+  H102  1  0.51398250  0.89489906  0.33980512  1
  H+  H103  1  0.23405896  0.10905197  0.49788783  1
  H+  H104  1  0.77481881  0.12787198  0.82882902  1
  H+  H105  1  -0.00825118  0.38914218  0.15821649  1
  H+  H106  1  0.13912553  0.76781178  0.84948981  1
  H+  H107  1  0.62011808  0.73580986  0.33725003  1
  H+  H108  1  0.24945851  0.60127870  0.18370323  1
  H+  H109  1  0.15908164  0.12502867  0.65903244  1
  H+  H110  1  0.81283468  0.40981855  0.49531518  1
  H+  H111  1  0.11894191  0.51249466  0.84776458  1
  H+  H112  1  0.65385819  0.31126463  0.93998015  1
  H+  H113  1  0.48022341  0.87431978  0.18376112  1
  H+  H114  1  0.39452149  0.09031492  0.31878755  1
  H+  H115  1  0.95240943  0.50951336  0.89278155  1
  H+  H116  1  0.50828810  0.40824959  1.01637028  1
  H+  H117  1  0.23984624  0.10578815  0.31900921  1
  H+  H118  1  0.88238370  0.36827330  0.32514327  1
  H+  H119  1  0.89891577  0.36036537  0.50708837  1
  H+  H120  1  0.35333774  0.73575917  0.66305045  1
  H+  H121  1  0.53603801  0.89829676  0.49830706  1
  H+  H122  1  0.86032921  0.98538285  0.31799889  1
  H+  H123  1  0.15691657  0.76989243  0.31925889  1
  H+  H124  1  0.58355960  0.13925470  0.76889058  1
  H+  H125  1  0.27555812  0.88791568  0.83485341  1
  H+  H126  1  0.39586137  0.54608530  0.51151484  1
  H+  H127  1  -0.01995045  0.17563397  0.27260829  1
  H+  H128  1  0.86458294  0.89467874  0.47595535  1
  H+  H129  1  0.76786070  0.13766928  0.33000486  1
  H+  H130  1  0.36991381  0.21051816  0.46192762  1
  H+  H131  1  1.00515090  0.11948611  0.48465123  1
  H+  H132  1  0.43708387  0.25851308  0.84752245  1
  H+  H133  1  -0.00450425  0.12683148  0.66827198  1
  H+  H134  1  0.58860488  0.66192100  0.42903662  1
  H+  H135  1  0.37493786  0.38614302  0.51995410  1
  H+  H136  1  0.63937986  0.10801893  0.49860136  1
  H+  H137  1  0.96425135  0.60167060  1.01339132  1
  H+  H138  1  0.81700556  0.41430412  0.77275790  1
  H+  H139  1  0.37537220  0.20886477  0.33244854  1
  H+  H140  1  0.15175587  0.32662842  0.89519884  1
  H+  H141  1  0.13370210  0.23548475  0.67642916  1
  H+  H142  1  0.61098019  0.88678870  0.16521292  1
  H+  H143  1  0.23286589  0.38002664  0.66848472  1
  H+  H144  1  0.88149894  0.26929791  0.17280580  1
  H+  H145  1  0.39192185  0.91519332  0.00442104  1
  H+  H146  1  0.68681269  0.82529137  0.83350520  1
  H+  H147  1  0.68500810  0.33827368  0.84176627  1
  H+  H148  1  0.60184924  0.21581992  0.99934590  1
  H+  H149  1  0.64189657  0.77998325  0.17520970  1
  H+  H150  1  0.63008954  0.53345080  0.98633994  1
  H+  H151  1  0.18746436  0.82995724  0.26076058  1
  H+  H152  1  0.90889033  0.33177249  0.23094345  1
  H+  H153  1  0.40769098  0.88894237  0.51824063  1
  H+  H154  1  0.63880779  0.61580764  0.50645389  1
  H+  H155  1  0.28594845  0.12654464  0.68009870  1
  H+  H156  1  0.82752753  0.68284888  0.73077592  1
  H+  H157  1  0.09159728  0.44582500  0.00574585  1
  H+  H158  1  0.53270242  0.86173595  0.65965738  1
  H+  H159  1  0.12517977  0.51880702  0.67025380  1
  H+  H160  1  0.10448041  0.21437809  0.00313462  1
  H+  H161  1  0.88557493  0.49502410  0.68204410  1
  H+  H162  1  1.02883810  0.88922890  0.48675010  1
  H+  H163  1  0.36145252  0.97332956  0.15860299  1
  H+  H164  1  0.77213538  0.13305165  0.16053782  1
  H+  H165  1  0.63805093  0.43456766  0.79214074  1
  H+  H166  1  0.74168945  0.88639045  0.48384409  1
  H+  H167  1  0.19022576  0.56743061  0.52548385  1
  H+  H168  1  0.10583187  0.63486699  0.17661164  1
  H+  H169  1  0.07438953  0.39576672  0.39485539  1
  H+  H170  1  0.61873316  0.86172321  0.84046847  1
  H+  H171  1  0.10340526  0.62584181  0.34045451  1
  H+  H172  1  0.63522129  0.61061572  0.32972166  1
  H+  H173  1  0.15364812  0.75260230  0.49212991  1
  H+  H174  1  0.52764498  0.11909469  0.67128140  1
  H+  H175  1  0.48528645  0.11664508  -0.02010818  1
  H+  H176  1  0.73030521  0.09959217  0.65898827  1
  H+  H177  1  0.13845584  0.61435747  0.50745597  1
  H+  H178  1  -0.00323939  0.12932528  0.83904132  1
  H+  H179  1  0.64431172  0.88534687  0.49310008  1
  H+  H180  1  0.30350516  0.69030311  0.04760875  1
  H+  H181  1  0.39025436  0.26730118  0.17720074  1
  H+  H182  1  0.22910518  0.85398797  0.16960237  1
  H+  H183  1  0.02237062  0.88574273  0.85331306  1
  H+  H184  1  0.90917388  0.03792338  0.66351308  1
  H+  H185  1  0.67221491  0.64117537  0.60089758  1
  H+  H186  1  0.40650265  0.40330095  0.34905667  1
  H+  H187  1  0.87984215  0.61451166  0.32740281  1
  H+  H188  1  0.14139543  0.86557274  0.51045879  1
  H+  H189  1  0.38144202  0.13318941  0.48829808  1
  H+  H190  1  -0.01829692  0.59250079  0.85447491  1
  H+  H191  1  0.86029344  0.34751336  0.84097875  1
  H+  H192  1  0.83728299  0.16637170  0.42222750  1
  H+  H193  1  0.57141756  0.75114546  0.70648762  1
  H+  H194  1  0.40844038  0.64042530  0.50482377  1
  H+  H195  1  0.35097768  0.63867089  0.66414570  1
  H+  H196  1  0.01587603  0.36258452  0.49206584  1
  H+  H197  1  0.38138645  0.00158535  0.51435518  1
  H+  H198  1  0.48459745  0.35110015  0.32794441  1
  H+  H199  1  0.58451019  0.30461298  0.86006022  1
  H+  H200  1  0.63440910  0.54414207  0.82950856  1
  H+  H201  1  0.59462863  0.63625433  0.83659043  1
  H+  H202  1  0.13861441  0.36612063  0.66581593  1
  H+  H203  1  0.63301997  0.02607977  0.32247291  1
  H+  H204  1  0.72629603  0.87265532  0.17873380  1
  H+  H205  1  0.34112677  0.62581603  0.84848027  1
  H+  H206  1  0.89290931  0.87227181  0.84370503  1
  H+  H207  1  0.12411950  0.88868636  0.65699739  1
  H+  H208  1  0.88358582  0.78082273  0.48939405  1
  H+  H209  1  0.61811766  0.47647677  0.35088782  1
  H+  H210  1  0.40910643  0.80098330  0.50466031  1
  H+  H211  1  0.61908158  0.12357284  0.67110962  1
  H+  H212  1  0.46469690  0.63589193  0.66837226  1
  H+  H213  1  0.27915683  0.14279986  0.00952973  1
  H+  H214  1  0.13389804  0.51067555  0.33790898  1
  H+  H215  1  0.63882673  0.02316774  0.16902426  1
  H+  H216  1  0.36750657  0.97055778  0.67326208  1
  H+  H217  1  0.57815724  0.92260300  0.39686314  1
  H+  H218  1  0.15442841  0.01479999  0.32408910  1
  H+  H219  1  0.14785583  1.02841061  -0.00121283  1
  H+  H220  1  0.67328676  0.07437555  0.59913549  1
  H+  H221  1  0.01494026  0.38255405  0.33706074  1
  H+  H222  1  0.44372523  0.74192638  0.95152689  1
  H+  H223  1  0.40548205  0.53500633  0.32958774  1
  H+  H224  1  0.59922141  0.19059696  0.83077516  1
  H+  H225  1  0.60753574  0.12700536  0.14307235  1
  H+  H226  1  0.61601161  0.20676748  0.47527151  1
  H+  H227  1  0.02013987  0.64659813  0.68337244  1
  H+  H228  1  0.88032746  0.62237859  0.66513239  1
  H+  H229  1  0.11871829  0.97617788  0.49422387  1
  H+  H230  1  0.88023267  0.11224608  0.98992744  1
  H+  H231  1  0.20975238  0.60051743  0.85380097  1
  H+  H232  1  1.02016544  0.11958587  0.16170058  1
  H+  H233  1  0.37423613  0.21062839  0.68763998  1
  H+  H234  1  0.79828080  0.89851335  0.66039893  1
  H+  H235  1  0.90114726  1.12204259  0.48737035  1
  H+  H236  1  0.38963447  0.87215653  0.17704844  1
  H+  H237  1  0.62177157  0.94760290  0.66041831  1
  H+  H238  1  0.63675558  0.65201140  0.16147589  1
  H+  H239  1  0.25641801  0.35712600  0.30764700  1
  H+  H240  1  0.63579848  0.52590119  0.17951996  1
  H+  H241  1  0.12372102  0.34175376  -0.00819758  1
  H+  H242  1  0.57728944  0.37774900  0.52041450  1
  H+  H243  1  0.62852131  0.10903965  0.98898955  1
  H+  H244  1  0.10865630  0.63032647  0.83779472  1
  H+  H245  1  0.09890014  0.23905513  0.30895405  1
  H+  H246  1  0.27919678  0.41045469  0.49985522  1
  H+  H247  1  0.63402983  0.90766219  1.00731178  1
  H+  H248  1  0.88623207  0.12609437  0.18618263  1
  H+  H249  1  0.09618830  0.37876458  0.82828880  1
  H+  H250  1  0.51598066  0.12075165  0.14531930  1
  H+  H251  1  0.62637731  -0.01335134  0.49109096  1
  H+  H252  1  0.18296794  0.09912090  0.91224915  1
  H+  H253  1  0.87946852  0.27744786  0.32412504  1
  H+  H254  1  0.19105957  0.57763490  1.00874072  1
  H+  H255  1  0.53049142  0.64912230  0.33387996  1
  H+  H256  1  0.86392806  0.98721409  0.17525907  1
  H+  H257  1  0.80209137  0.92660056  0.81165910  1
  H+  H258  1  0.71088769  0.34443880  0.00040838  1
  H+  H259  1  0.84446745  0.64341990  0.82604949  1
  H+  H260  1  0.69249737  0.33316012  0.47342876  1
  H+  H261  1  0.61647963  0.97025257  0.82942553  1
  H+  H262  1  0.88587596  0.98729830  0.01531146  1
  H+  H263  1  0.30677158  0.67497222  0.48349924  1
  H+  H264  1  0.84963231  0.37912311  0.01485033  1
  H+  H265  1  0.09131394  0.45729483  0.48840993  1
  H+  H266  1  0.77445286  0.54726095  0.45733855  1
  H+  H267  1  0.36604783  0.14059536  1.00162001  1
  H+  H268  1  0.85889842  0.14570917  0.31828807  1
  H+  H269  1  0.98802358  0.64245177  0.51419522  1
  H+  H270  1  0.11132751  0.72608785  0.16752670  1
  H+  H271  1  0.58070021  0.39469279  0.66928764  1
  H+  H272  1  0.34442847  0.48027143  0.84494550  1
  H+  H273  1  0.89918571  0.86801301  0.00589299  1
  H+  H274  1  0.91942223  0.59643561  0.60894302  1
  H+  H275  1  0.69497045  0.35228016  0.68214126  1
  H+  H276  1  0.86979277  0.85210475  0.33010172  1
  H+  H277  1  0.52933381  0.13753088  0.32867322  1
  H+  H278  1  0.06483794  0.64489362  0.08084093  1
  H+  H279  1  0.68150077  0.76339406  1.00807000  1
  H+  H280  1  0.69059457  0.77872235  0.62284033  1
  H+  H281  1  0.88429343  0.26101402  0.66111534  1
  H+  H282  1  0.13282960  -0.02695435  0.15986542  1
  H+  H283  1  0.45780237  0.60823108  0.86383965  1
  H+  H284  1  0.63635725  0.65937335  0.66303919  1
  H+  H285  1  0.36453180  0.50218518  0.67812303  1
  H+  H286  1  0.73278079  0.11463157  0.49768370  1
  H+  H287  1  0.08617246  0.14716669  0.42381727  1
  H+  H288  1  0.34456514  0.17126928  0.10222668  1
  H+  H289  1  0.42514420  0.07940690  0.59842965  1
  H+  H290  1  0.75877989  0.96983523  0.95359049  1
  H+  H291  1  0.10343719  0.91624959  0.10039969  1
  H+  H292  1  0.34020269  0.91705487  0.09919584  1
  H+  H293  1  0.90763033  0.58657256  0.23290624  1
  H+  H294  1  0.66218659  0.83956233  0.26819972  1
  H+  H295  1  0.36476107  0.97365593  0.84572364  1
  H+  H296  1  0.06034852  0.38708650  0.06397478  1
  H+  H297  1  0.13475801  0.32214269  0.21317189  1
  H+  H298  1  0.15127481  0.57160448  0.25069169  1
  H+  H299  1  0.17781750  0.07859201  0.22899274  1
  H+  H300  1  0.75860654  0.64914682  0.82690510  1
  H+  H301  1  0.09060156  0.91737556  0.80116263  1
  H+  H302  1  0.91647341  0.08787118  0.92915498  1
  H+  H303  1  0.35852749  0.73892461  0.33336445  1
  H+  H304  1  0.18420077  0.09304077  0.56127678  1
  H+  H305  1  0.66922445  0.58446841  0.23825669  1
  H+  H306  1  0.42290939  0.82518059  0.87901912  1
  H+  H307  1  0.18078288  0.83571073  0.94370847  1
  H+  H308  1  0.69404491  0.87806006  0.92567367  1
  H+  H309  1  0.14352533  0.86114899  0.17173008  1
  H+  H310  1  0.14025208  0.57427283  0.60998674  1
  H+  H311  1  0.91161874  0.83343567  0.55125183  1
  H+  H312  1  0.44365900  0.32947005  0.93332265  1
  H+  H313  1  0.50798091  0.35831467  0.83614730  1
  H+  H314  1  0.35151108  0.43951947  0.44420909  1
  H+  H315  1  0.21382144  0.34230567  0.98670227  1
  H+  H316  1  0.38074257  0.32572076  0.61132281  1
  H+  H317  1  0.84271397  0.93435646  0.11283590  1
  H+  H318  1  0.56400737  0.14524194  0.05395562  1
  H+  H319  1  0.12383630  0.23407963  0.82663370  1
  H+  H320  1  0.18319317  0.35252398  0.57021144  1
  H+  H321  1  0.41688682  0.58368676  0.26729338  1
  H+  H322  1  0.93547514  0.46237901  0.72129840  1
  H+  H323  1  0.85790629  0.92922803  0.75566710  1
  H+  H324  1  0.38510385  0.86262986  0.83003239  1
  H+  H325  1  0.78792676  0.41582635  0.10739771  1
  H+  H326  1  0.68799735  0.84837562  0.54896067  1
  H+  H327  1  0.61909116  0.25533152  0.68620246  1
  H+  H328  1  0.58016132  0.91338638  0.10502614  1
  H+  H329  1  0.76804974  0.90193465  0.32966808  1
  H+  H330  1  0.10418373  0.63720776  0.68325850  1
  H+  H331  1  0.08030032  0.92296979  0.70272622  1
  H+  H332  1  0.91423399  0.31751946  0.56634496  1
  H+  H333  1  0.29170064  0.62036476  0.09491459  1
  H+  H334  1  0.84527281  0.42858883  0.39877740  1
  H+  H335  1  0.14169393  0.55855125  0.94402777  1
  H+  H336  1  0.63455164  0.70078395  0.06258913  1
  H+  H337  1  0.10783217  0.17392146  0.73491511  1
  H+  H338  1  0.40946411  0.00838076  0.31510650  1
  H+  H339  1  0.66717092  0.08682270  0.22549492  1
  H+  H340  1  0.57570962  0.44657332  0.74857068  1
  H+  H341  1  0.39927483  0.57697941  0.92499615  1
  H+  H342  1  0.47340261  0.17659314  0.54442923  1
  H+  H343  1  0.49502563  0.51471632  0.08294956  1
  H+  H344  1  0.11504908  0.91813871  0.39636780  1
  H+  H345  1  0.67622800  0.39986928  0.16752302  1
  H+  H346  1  0.34805885  0.14732458  0.78548368  1
  H+  H347  1  0.83910786  0.93209555  0.41669550  1
  H+  H348  1  0.41180578  0.85022733  0.26271246  1
  H+  H349  1  0.55337326  0.67617651  0.75257388  1
  H+  H350  1  0.34064989  0.14039302  0.38678370  1
  H+  H351  1  0.16944185  0.83347240  0.57083238  1
  H+  H352  1  0.35356062  0.28967989  0.52050356  1
  H+  H353  1  0.57206730  0.43662941  0.07303004  1
  H+  H354  1  0.67038958  0.07372514  0.90040472  1
  H+  H355  1  0.41910551  0.60505166  0.60170078  1
  H+  H356  1  0.03984177  0.89243491  0.00710965  1
  H+  H357  1  0.91715809  0.83422368  0.94337295  1
  H+  H358  1  0.46938021  0.48467013  0.38635484  1
  H+  H359  1  0.42109229  0.32700903  0.27062879  1
  H+  H360  1  0.22079477  0.60570016  0.33732921  1
  H+  H361  1  0.03708050  0.47078999  0.11374267  1
  H+  H362  1  0.88406893  0.89475248  0.66218547  1
  H+  H363  1  0.41694190  0.83427269  0.60233490  1
  H+  H364  1  0.82407082  0.65772022  0.39710011  1
  H+  H365  1  0.83500696  0.16061740  0.10313328  1
  H+  H366  1  0.66077526  0.63125280  0.98297083  1
  H+  H367  1  0.08449191  0.67274266  0.39316797  1
  H+  H368  1  0.07364735  0.41139749  0.73642818  1
  H+  H369  1  0.90931150  0.57721976  0.95102351  1
  H+  H370  1  0.66278850  0.59129104  0.89616287  1
  H+  H371  1  0.21632986  0.37003501  0.83892840  1
  H+  H372  1  0.35904711  0.69470289  0.42308105  1
  H+  H373  1  0.32531271  0.43653811  0.77997892  1
  H+  H374  1  0.42224851  0.07520304  0.22448519  1
  H+  H375  1  0.31448486  0.37974378  0.05685786  1
  H+  H376  1  0.57916735  0.15862219  0.39289286  1
  H+  H377  1  0.13850453  0.11324822  1.00036262  1
  H+  H378  1  0.26729013  0.38082984  0.15394289  1
  H+  H379  1  0.50483905  0.39682976  0.50514983  1
  H+  H380  1  0.58467324  0.41714247  0.41210242  1
  H+  H381  1  0.07896767  0.66396517  0.77929767  1
  H+  H382  1  0.59231738  0.30473735  0.60967121  1
  H+  H383  1  0.83836477  0.67206878  0.07947070  1
  O2-  O384  1  0.06839197  0.11992784  0.14066692  1
  O2-  O385  1  0.07995166  0.14895647  0.46942065  1
  O2-  O386  1  0.09828529  0.17238716  0.81299508  1
  O2-  O387  1  0.05060477  0.43342127  0.13774489  1
  O2-  O388  1  0.07486657  0.39903701  0.47441884  1
  O2-  O389  1  0.06613033  0.41008540  0.81319678  1
  O2-  O390  1  0.07604665  0.66269083  0.15719563  1
  O2-  O391  1  0.14689776  0.70037248  0.46819475  1
  O2-  O392  1  0.07768826  0.66152487  0.82456356  1
  O2-  O393  1  0.10436980  0.91266644  0.14532472  1
  O2-  O394  1  0.09141433  0.91542010  0.48011929  1
  O2-  O395  1  0.08606549  0.91552065  0.84516107  1
  O2-  O396  1  0.34431396  0.16963050  0.14753048  1
  O2-  O397  1  0.33838829  0.14812087  0.46457044  1
  O2-  O398  1  0.35103127  0.15606276  0.82995247  1
  O2-  O399  1  0.32204562  0.38811229  0.13657196  1
  O2-  O400  1  0.34399754  0.44339286  0.48838979  1
  O2-  O401  1  0.31531221  0.42392013  0.82378237  1
  O2-  O402  1  0.30639791  0.61617675  0.16454098  1
  O2-  O403  1  0.36562397  0.70007862  0.46910159  1
  O2-  O404  1  0.30516781  0.64704286  0.82902069  1
  O2-  O405  1  0.33437505  0.91198903  0.14401720  1
  O2-  O406  1  0.35611309  0.93965541  0.50729579  1
  O2-  O407  1  0.33622521  0.92197998  0.81967369  1
  O2-  O408  1  0.57202093  0.14827040  0.12377233  1
  O2-  O409  1  0.57628410  0.14604939  0.46715191  1
  O2-  O410  1  0.58162942  0.13308096  0.81362422  1
  O2-  O411  1  0.57966713  0.42143166  0.15673609  1
  O2-  O412  1  0.56599473  0.41755337  0.49566403  1
  O2-  O413  1  0.59177448  0.44796607  0.79297185  1
  O2-  O414  1  0.61109434  0.68387710  0.14121443  1
  O2-  O415  1  0.59024137  0.65508526  0.47371037  1
  O2-  O416  1  0.55466807  0.65915700  0.82722362  1
  O2-  O417  1  0.58085637  0.91748568  0.15012718  1
  O2-  O418  1  0.59361554  0.92427853  0.47727828  1
  O2-  O419  1  0.58697255  0.90971857  0.81334016  1
  O2-  O420  1  0.83478938  0.16281223  0.14850602  1
  O2-  O421  1  0.83862769  0.16194790  0.46752338  1
  O2-  O422  1  0.83443207  0.16545313  0.81201158  1
  O2-  O423  1  0.77458603  0.42852874  0.14833030  1
  O2-  O424  1  0.87124030  0.43770850  0.47891171  1
  O2-  O425  1  0.79901208  0.40353419  0.81591824  1
  O2-  O426  1  0.82904823  0.66625792  0.14369533  1
  O2-  O427  1  0.80190103  0.60458740  0.47531759  1
  O2-  O428  1  0.82129909  0.67901427  0.81149126  1
  O2-  O429  1  0.83114481  0.92915964  0.15732875  1
  O2-  O430  1  0.83774139  0.92918118  0.46262556  1
  O2-  O431  1  0.85821569  0.93425495  0.80163208  1
  O2-  O432  1  0.18236660  0.08062154  0.18381371  1
  O2-  O433  1  0.17582561  0.08511533  0.51629456  1
  O2-  O434  1  0.18457312  0.09738745  0.86613342  1
  O2-  O435  1  0.16675499  0.35616329  0.17724403  1
  O2-  O436  1  0.18963368  0.35659058  0.52524041  1
  O2-  O437  1  0.15280318  0.33245170  0.84992415  1
  O2-  O438  1  0.15288429  0.57535969  0.20514401  1
  O2-  O439  1  0.13457367  0.56378179  0.53010831  1
  O2-  O440  1  0.14693450  0.57032073  0.86737316  1
  O2-  O441  1  0.17064226  0.82606116  0.18804588  1
  O2-  O442  1  0.17417399  0.83749627  0.52567940  1
  O2-  O443  1  0.17469569  0.82866088  0.86313884  1
  O2-  O444  1  0.41517040  0.07398870  0.17962884  1
  O2-  O445  1  0.44443817  0.12096341  0.52329527  1
  O2-  O446  1  0.41468634  0.06968546  0.89924174  1
  O2-  O447  1  0.41520418  0.32731907  0.19425832  1
  O2-  O448  1  0.39475503  0.34560393  0.53713642  1
  O2-  O449  1  0.48709926  0.31031625  0.86541515  1
  O2-  O450  1  0.46406380  0.54163347  0.10189526  1
  O2-  O451  1  0.43098308  0.60698395  0.52606562  1
  O2-  O452  1  0.39807143  0.58206058  0.87994708  1
  O2-  O453  1  0.42072234  0.84779475  0.20038118  1
  O2-  O454  1  0.43776356  0.85515944  0.52846168  1
  O2-  O455  1  0.41425704  0.82772602  0.83508749  1
  O2-  O456  1  0.67051658  0.08553294  0.18039638  1
  O2-  O457  1  0.67400835  0.08323106  0.51573490  1
  O2-  O458  1  0.67384325  0.07067220  0.85528284  1
  O2-  O459  1  0.61725056  0.37539606  0.18732221  1
  O2-  O460  1  0.57094206  0.29422088  0.56659475  1
  O2-  O461  1  0.63307569  0.29293414  0.86191403  1
  O2-  O462  1  0.67069572  0.58706134  0.19297776  1
  O2-  O463  1  0.66759420  0.58977649  0.53253753  1
  O2-  O464  1  0.66315507  0.60174674  0.84936812  1
  O2-  O465  1  0.66513265  0.83895082  0.19267667  1
  O2-  O466  1  0.68160183  0.85587097  0.50282181  1
  O2-  O467  1  0.64612672  0.82613827  0.86232341  1
  O2-  O468  1  0.91941139  0.09862886  0.20482247  1
  O2-  O469  1  0.93186821  0.09063382  0.50098398  1
  O2-  O470  1  0.93450058  0.09760752  0.85167441  1
  O2-  O471  1  0.90823132  0.33034318  0.18583467  1
  O2-  O472  1  0.91648581  0.31878110  0.52062984  1
  O2-  O473  1  0.89780033  0.32540567  0.85539620  1
  O2-  O474  1  0.90854610  0.58952674  0.18775017  1
  O2-  O475  1  0.93191199  0.59726708  0.52810502  1
  O2-  O476  1  0.93027345  0.54520779  0.87641172  1
  O2-  O477  1  0.89831277  0.82746285  0.20052909  1
  O2-  O478  1  0.91261310  0.83907869  0.50555342  1
  O2-  O479  1  0.91537777  0.83765776  0.86345323  1
  O2-  O480  1  0.17779103  0.07605877  0.30803353  1
  O2-  O481  1  0.19055734  0.09677818  0.64088564  1
  O2-  O482  1  0.17652539  0.09074926  0.98597020  1
  O2-  O483  1  0.07410785  0.26783501  0.28476951  1
  O2-  O484  1  0.17464340  0.34196899  0.65103959  1
  O2-  O485  1  0.15271576  0.31284268  0.97229866  1
  O2-  O486  1  0.15900737  0.57283863  0.32631192  1
  O2-  O487  1  0.15180389  0.57993020  0.65448312  1
  O2-  O488  1  0.13359114  0.54791025  0.98911135  1
  O2-  O489  1  0.19894810  0.82879079  0.30595032  1
  O2-  O490  1  0.17172600  0.83387118  0.64996529  1
  O2-  O491  1  0.18104153  0.84546489  0.98799409  1
  O2-  O492  1  0.43293137  0.06925048  0.30281995  1
  O2-  O493  1  0.42322219  0.07045792  0.64356896  1
  O2-  O494  1  0.41760263  0.08632608  0.96532219  1
  O2-  O495  1  0.42337891  0.32439284  0.31644244  1
  O2-  O496  1  0.37819967  0.31709882  0.65675625  1
  O2-  O497  1  0.42230846  0.33336582  0.97431035  1
  O2-  O498  1  0.41831915  0.59121547  0.31120771  1
  O2-  O499  1  0.40792369  0.60211103  0.64689471  1
  O2-  O500  1  0.38329840  0.56093652  1.00282870  1
  O2-  O501  1  0.40661695  0.84390515  0.31262916  1
  O2-  O502  1  0.40978351  0.82315752  0.64759908  1
  O2-  O503  1  0.44252137  0.79525967  0.95693115  1
  O2-  O504  1  0.66697600  0.08589924  0.30611068  1
  O2-  O505  1  0.66969752  0.06712008  0.64392629  1
  O2-  O506  1  0.66299081  0.08006384  0.97951193  1
  O2-  O507  1  0.66758479  0.33416295  0.32880377  1
  O2-  O508  1  0.63262209  0.31694511  0.68052765  1
  O2-  O509  1  0.65107571  0.31115692  0.98499719  1
  O2-  O510  1  0.66080834  0.57431726  0.31849166  1
  O2-  O511  1  0.68754727  0.67988810  0.63713270  1
  O2-  O512  1  0.66968310  0.58626175  0.96355485  1
  O2-  O513  1  0.66446035  0.84144949  0.31403565  1
  O2-  O514  1  0.70171624  0.83838976  0.61564141  1
  O2-  O515  1  0.71850511  0.91029381  0.96498120  1
  O2-  O516  1  0.92596394  0.11687570  0.27082440  1
  O2-  O517  1  0.93484636  0.09990437  0.65514278  1
  O2-  O518  1  0.90705568  0.07861819  0.97401214  1
  O2-  O519  1  0.91333280  0.33872998  0.31081387  1
  O2-  O520  1  0.91658311  0.32156059  0.64334449  1
  O2-  O521  1  0.89848973  0.32168333  0.98137997  1
  O2-  O522  1  0.90770108  0.58097661  0.31310228  1
  O2-  O523  1  0.91473547  0.59460395  0.65395768  1
  O2-  O524  1  0.90309691  0.57996736  0.99551048  1
  O2-  O525  1  0.89412032  0.81592178  0.31852553  1
  O2-  O526  1  0.92278370  0.83491196  0.62682475  1
  O2-  O527  1  0.92337088  0.83318476  0.98831746  1
  O2-  O528  1  0.07469788  0.15389365  0.01907937  1
  O2-  O529  1  0.09049808  0.14341857  0.34934840  1
  O2-  O530  1  0.10949278  0.17442773  0.68933525  1
  O2-  O531  1  0.06332684  0.38383997  0.01920183  1
  O2-  O532  1  0.07562746  0.40185114  0.34971290  1
  O2-  O533  1  0.07970062  0.41591617  0.69082179  1
  O2-  O534  1  0.05348000  0.63375662  0.03640019  1
  O2-  O535  1  0.07640755  0.66172189  0.34913791  1
  O2-  O536  1  0.08004997  0.67278703  0.69917304  1
  O2-  O537  1  0.10057066  0.92671908  0.01948021  1
  O2-  O538  1  0.12326014  0.92362152  0.35198419  1
  O2-  O539  1  0.09146290  0.92150974  0.65962868  1
  O2-  O540  1  0.34142874  0.17266704  0.02169374  1
  O2-  O541  1  0.34561920  0.14621853  0.34152410  1
  O2-  O542  1  0.34436234  0.14935701  0.69854568  1
  O2-  O543  1  0.31551533  0.38992411  0.01209411  1
  O2-  O544  1  0.41069504  0.45463948  0.37088069  1
  O2-  O545  1  0.33597411  0.44376512  0.69697240  1
  O2-  O546  1  0.28727183  0.62995944  0.04933829  1
  O2-  O547  1  0.33523055  0.67955294  0.35120883  1
  O2-  O548  1  0.31813531  0.66983260  0.67726853  1
  O2-  O549  1  0.35520391  0.93586222  0.02034281  1
  O2-  O550  1  0.36618125  0.89304136  0.33505810  1
  O2-  O551  1  0.33588168  0.91160070  0.69195333  1
  O2-  O552  1  0.56616758  0.15018606  0.00715822  1
  O2-  O553  1  0.58787468  0.17324819  0.34803469  1
  O2-  O554  1  0.58740066  0.15178499  0.68763028  1
  O2-  O555  1  0.55207533  0.45897576  0.03973093  1
  O2-  O556  1  0.59157420  0.41581466  0.36728942  1
  O2-  O557  1  0.55554262  0.43138421  0.67639650  1
  O2-  O558  1  0.63771805  0.70482536  0.01738288  1
  O2-  O559  1  0.58971996  0.67378835  0.34974037  1
  O2-  O560  1  0.55598659  0.69072915  0.70789777  1
  O2-  O561  1  0.58717922  0.91516944  0.02500232  1
  O2-  O562  1  0.57587044  0.92207724  0.35169083  1
  O2-  O563  1  0.59484001  0.88414214  0.66329535  1
  O2-  O564  1  0.82701727  0.15803459  0.02298968  1
  O2-  O565  1  0.82999457  0.16966929  0.34315244  1
  O2-  O566  1  0.83550972  0.16306755  0.68659161  1
  O2-  O567  1  0.81633529  0.40619109  0.02921349  1
  O2-  O568  1  0.82995530  0.42198214  0.35497448  1
  O2-  O569  1  0.87948621  0.44209890  0.70233860  1
  O2-  O570  1  0.84679325  0.67671807  0.03132995  1
  O2-  O571  1  0.82447854  0.66107483  0.35247343  1
  O2-  O572  1  0.83071737  0.68182194  0.68553823  1
  O2-  O573  1  0.85511946  0.92832624  0.03315791  1
  O2-  O574  1  0.83049824  0.93294708  0.34231933  1
  O2-  O575  1  0.85490136  0.92400197  0.68105694  1
