# generated using pymatgen
data_H2O
_symmetry_space_group_name_H-M   'P 1'
_cell_length_a   17.98675011
_cell_length_b   17.99018917
_cell_length_c   22.00600966
_cell_angle_alpha   89.99331284
_cell_angle_beta   89.99470643
_cell_angle_gamma   120.00831643
_symmetry_Int_Tables_number   1
_chemical_formula_structural   H2O
_chemical_formula_sum   'H384 O192'
_cell_volume   6166.29008554
_cell_formula_units_Z   192
loop_
 _symmetry_equiv_pos_site_id
 _symmetry_equiv_pos_as_xyz
  1  'x, y, z'
loop_
 _atom_type_symbol
 _atom_type_oxidation_number
  H+  1.0
  O2-  -2.0
loop_
 _atom_site_type_symbol
 _atom_site_label
 _atom_site_symmetry_multiplicity
 _atom_site_fract_x
 _atom_site_fract_y
 _atom_site_fract_z
 _atom_site_occupancy
  H+  H0  1  0.86779978  0.13765798  0.49384761  1
  H+  H1  1  0.28515232  0.62609234  0.34279156  1
  H+  H2  1  0.98079586  0.61577801  1.00230425  1
  H+  H3  1  0.76439070  0.34783422  0.67882039  1
  H+  H4  1  0.87244280  0.93276506  1.08056600  1
  H+  H5  1  0.46577998  0.11683775  0.65026279  1
  H+  H6  1  0.38339620  0.51268789  0.66016207  1
  H+  H7  1  0.01650835  0.37619705  0.48974749  1
  H+  H8  1  0.09096006  0.65563706  0.58551741  1
  H+  H9  1  0.52697882  0.38745732  0.49043010  1
  H+  H10  1  0.67119379  0.34160795  0.55809407  1
  H+  H11  1  0.88451760  0.27557158  0.50440968  1
  H+  H12  1  0.27829083  0.89292855  0.66403820  1
  H+  H13  1  0.11422104  0.72841674  1.00474116  1
  H+  H14  1  0.61243262  0.24405284  0.49899344  1
  H+  H15  1  0.48375176  0.36437835  0.65922676  1
  H+  H16  1  0.22987193  0.61672039  0.98741381  1
  H+  H17  1  0.50402517  0.68775378  0.36957958  1
  H+  H18  1  0.24384164  0.87111524  0.17413599  1
  H+  H19  1  0.23030755  0.11925576  0.97734869  1
  H+  H20  1  0.37124310  0.47418851  0.15315720  1
  H+  H21  1  0.64438047  0.28322251  0.17535119  1
  H+  H22  1  0.86841482  0.88256442  0.16816862  1
  H+  H23  1  0.56223175  0.94946795  0.76212380  1
  H+  H24  1  0.47792757  0.60891956  0.99731380  1
  H+  H25  1  0.97790404  0.57557652  0.34399410  1
  H+  H26  1  0.63682478  0.27986084  0.64883024  1
  H+  H27  1  0.14218242  0.77665344  0.64776183  1
  H+  H28  1  0.86035396  0.73198931  0.83139690  1
  H+  H29  1  0.39121659  0.36924313  0.83927673  1
  H+  H30  1  0.12419481  0.14988997  0.98656271  1
  H+  H31  1  0.38104805  0.88190875  0.16953823  1
  H+  H32  1  0.15602426  0.27026473  0.83480452  1
  H+  H33  1  1.00643121  0.06909996  0.84937207  1
  H+  H34  1  0.88461033  0.86232895  0.50793678  1
  H+  H35  1  0.38390987  0.86331612  -0.00296669  1
  H+  H36  1  0.63063252  0.10136252  1.00453982  1
  H+  H37  1  0.36703549  0.48036460  0.82506546  1
  H+  H38  1  0.14570904  0.13225548  0.86304297  1
  H+  H39  1  0.60596788  0.21424138  0.01712909  1
  H+  H40  1  0.80011281  0.11276366  0.09386582  1
  H+  H41  1  0.56065725  0.66705940  0.41320456  1
  H+  H42  1  0.23801949  0.61693357  0.17911837  1
  H+  H43  1  0.61007707  0.72441573  0.50130560  1
  H+  H44  1  0.15475201  0.74393595  0.15435591  1
  H+  H45  1  0.02677663  0.62999583  0.64171803  1
  H+  H46  1  0.62244324  0.48213948  0.66843341  1
  H+  H47  1  0.02082980  0.38416439  0.66866297  1
  H+  H48  1  0.63796538  0.60478702  0.84151031  1
  H+  H49  1  0.12409995  0.34136765  0.32793590  1
  H+  H50  1  0.89629061  0.61796645  0.66153194  1
  H+  H51  1  0.47190290  0.87682172  0.17279090  1
  H+  H52  1  0.61016811  0.71383435  0.01096439  1
  H+  H53  1  0.12823545  0.25175374  0.33453449  1
  H+  H54  1  0.11273464  0.88762242  0.67057257  1
  H+  H55  1  0.66689153  0.86095380  0.34616971  1
  H+  H56  1  0.47664731  0.85686624  0.50813039  1
  H+  H57  1  0.38829977  0.76897212  0.66453740  1
  H+  H58  1  0.13086057  0.85843518  0.32405984  1
  H+  H59  1  0.73558664  0.37173233  0.17946191  1
  H+  H60  1  0.58906241  0.41545886  0.07029052  1
  H+  H61  1  0.82128674  0.18849977  0.80296436  1
  H+  H62  1  0.75046760  0.10761995  0.15607730  1
  H+  H63  1  0.77873507  0.39139352  0.48139150  1
  H+  H64  1  0.62107997  0.39292590  0.16115432  1
  H+  H65  1  0.51177267  0.14694558  0.50280395  1
  H+  H66  1  0.92803212  0.34040889  0.59247052  1
  H+  H67  1  0.11026406  0.48572541  0.68319628  1
  H+  H68  1  0.17730821  0.09755583  0.56520275  1
  H+  H69  1  0.50472643  0.90220849  0.33561215  1
  H+  H70  1  0.77721300  0.13606265  0.49725055  1
  H+  H71  1  0.35785151  0.13913579  0.66972177  1
  H+  H72  1  0.85723051  0.35594507  0.67948083  1
  H+  H73  1  0.63548887  0.76390920  0.33755295  1
  H+  H74  1  0.88213896  0.11050855  0.33187838  1
  H+  H75  1  0.61490855  0.48062255  0.33560849  1
  H+  H76  1  0.89128051  0.77664044  0.32785508  1
  H+  H77  1  0.02962280  0.89048218  0.33617435  1
  H+  H78  1  0.38569119  0.99834800  0.49633072  1
  H+  H79  1  0.45970664  0.57606230  0.31883577  1
  H+  H80  1  0.58392113  0.65362435  0.07033937  1
  H+  H81  1  0.33791556  0.45788645  0.34858501  1
  H+  H82  1  0.27759354  0.14420820  0.49663296  1
  H+  H83  1  0.51977694  0.88073806  0.67135438  1
  H+  H84  1  0.13596748  0.86576400  1.00676158  1
  H+  H85  1  0.77935043  0.46481616  0.78511382  1
  H+  H86  1  1.00467178  0.39566006  0.18207708  1
  H+  H87  1  0.91605259  0.40141837  0.18576581  1
  H+  H88  1  0.60903288  0.97402832  0.49161993  1
  H+  H89  1  0.85776411  0.96135606  0.82515598  1
  H+  H90  1  0.61264824  0.71642531  0.82637911  1
  H+  H91  1  0.27238852  0.62939595  0.49360918  1
  H+  H92  1  0.24680947  0.87129086  0.34064711  1
  H+  H93  1  0.59561167  0.90905378  0.32282709  1
  H+  H94  1  0.32373076  0.16598021  0.05489100  1
  H+  H95  1  0.64135401  0.61583067  0.65953683  1
  H+  H96  1  0.37039041  0.38521655  0.00001370  1
  H+  H97  1  0.63968960  0.51866611  0.99623394  1
  H+  H98  1  0.36232899  0.72125377  0.49803026  1
  H+  H99  1  0.48180761  0.60195047  0.16738703  1
  H+  H100  1  0.14841641  0.52207959  0.83740608  1
  H+  H101  1  0.42162705  0.32926351  0.22061887  1
  H+  H102  1  0.27621475  0.36597396  0.50921575  1
  H+  H103  1  0.63550425  0.60572149  0.99727707  1
  H+  H104  1  0.37012141  0.38818092  0.67222326  1
  H+  H105  1  0.62669720  0.63311166  0.16560494  1
  H+  H106  1  0.53010017  0.38941127  0.15627787  1
  H+  H107  1  0.50041546  0.92445212  0.82022917  1
  H+  H108  1  0.08579320  0.35386309  0.46431118  1
  H+  H109  1  1.03306372  0.15168315  0.99159145  1
  H+  H110  1  0.10950082  0.21874967  0.49174502  1
  H+  H111  1  0.37153568  1.00191650  0.34132952  1
  H+  H112  1  0.62630800  0.84639844  0.99930021  1
  H+  H113  1  0.02048280  0.38566057  0.33403944  1
  H+  H114  1  0.35123222  0.75318804  0.15110627  1
  H+  H115  1  0.10243370  0.99628864  0.00883347  1
  H+  H116  1  0.63051715  1.00750084  0.66435334  1
  H+  H117  1  0.02723441  0.63913074  0.85839551  1
  H+  H118  1  -0.03167365  0.85187288  -0.00448724  1
  H+  H119  1  0.77668608  0.64601395  0.33280101  1
  H+  H120  1  0.94041035  0.92032250  0.86897353  1
  H+  H121  1  0.86685434  -0.02747393  0.66650963  1
  H+  H122  1  0.34413946  -0.02308540  0.83854680  1
  H+  H123  1  0.38014011  0.02272023  0.65083477  1
  H+  H124  1  0.70191138  0.13169869  0.85529525  1
  H+  H125  1  0.88943215  0.36060684  0.00750741  1
  H+  H126  1  0.39196530  0.27678813  0.66007007  1
  H+  H127  1  0.32869249  0.67520269  0.05926644  1
  H+  H128  1  0.37819348  0.58717355  0.32160220  1
  H+  H129  1  0.86429660  -0.02995013  0.17070102  1
  H+  H130  1  0.86112612  0.23142019  0.34009564  1
  H+  H131  1  0.86495513  0.48800067  0.17569522  1
  H+  H132  1  0.11671927  0.64055063  0.99873975  1
  H+  H133  1  0.86114184  0.21619124  0.01320301  1
  H+  H134  1  0.90023979  0.10518538  0.64108136  1
  H+  H135  1  0.62356359  0.84818895  0.84472948  1
  H+  H136  1  0.97948864  0.86382517  0.66102610  1
  H+  H137  1  0.88805174  0.36764629  0.50109214  1
  H+  H138  1  0.66749758  0.57724228  0.90276343  1
  H+  H139  1  0.35978715  0.97500295  0.15812806  1
  H+  H140  1  0.24714928  0.37294797  0.35541823  1
  H+  H141  1  0.73316677  0.85823899  0.17759713  1
  H+  H142  1  0.88586961  0.89601240  1.01725465  1
  H+  H143  1  0.28447744  0.64111257  0.82725975  1
  H+  H144  1  0.03161501  0.38568844  0.82648538  1
  H+  H145  1  0.36702061  0.89284663  0.66572437  1
  H+  H146  1  0.13420892  0.78177085  0.86396241  1
  H+  H147  1  0.47984988  0.61039141  0.84078941  1
  H+  H148  1  0.39182606  0.86204663  0.51358980  1
  H+  H149  1  0.52335306  0.63247070  0.67155254  1
  H+  H150  1  0.76954672  0.64243039  0.17413005  1
  H+  H151  1  0.89505102  0.11069191  -0.01023577  1
  H+  H152  1  0.59783215  0.13717633  0.65026054  1
  H+  H153  1  0.15179366  0.35031303  0.66976362  1
  H+  H154  1  0.63417165  0.11594458  0.51223241  1
  H+  H155  1  0.45055451  0.10675527  0.83435016  1
  H+  H156  1  0.13479809  0.25489845  0.98173013  1
  H+  H157  1  0.22890686  0.11811837  0.17855178  1
  H+  H158  1  0.63871556  0.61052870  0.31951921  1
  H+  H159  1  0.72639396  0.12663699  0.34045398  1
  H+  H160  1  0.27653003  0.63270596  0.68052344  1
  H+  H161  1  0.76678539  0.63823478  0.49148793  1
  H+  H162  1  0.77228105  0.63188991  0.01319258  1
  H+  H163  1  0.10953920  0.88508991  0.82898516  1
  H+  H164  1  0.01776563  0.12332478  0.15716790  1
  H+  H165  1  0.86325359  0.08304532  0.17540683  1
  H+  H166  1  0.86396384  0.24931967  0.14717456  1
  H+  H167  1  0.88213110  0.53126105  0.84651964  1
  H+  H168  1  0.11833729  0.98090956  0.33907340  1
  H+  H169  1  0.61978782  0.47285082  0.82786578  1
  H+  H170  1  0.38660578  0.12603584  0.50360537  1
  H+  H171  1  0.36162332  0.13125863  0.34608832  1
  H+  H172  1  0.77783736  0.12393013  0.65255347  1
  H+  H173  1  0.42709501  0.33489804  0.93260089  1
  H+  H174  1  0.81568451  0.40606690  0.76498611  1
  H+  H175  1  0.13632992  0.11328201  0.66203118  1
  H+  H176  1  0.12625441  0.39010342  0.16460410  1
  H+  H177  1  0.63373755  0.03320826  0.84585067  1
  H+  H178  1  0.35699496  0.13007277  0.00085091  1
  H+  H179  1  0.39239656  0.27224180  0.31748009  1
  H+  H180  1  0.13386531  0.11814508  0.33629436  1
  H+  H181  1  0.61085577  0.13852769  0.35900621  1
  H+  H182  1  0.38984825  0.61221452  0.99482399  1
  H+  H183  1  0.60442425  0.63107018  0.50012331  1
  H+  H184  1  0.90013011  0.37399334  0.32978332  1
  H+  H185  1  0.98918925  0.10857843  0.65347646  1
  H+  H186  1  0.62622978  0.02897019  0.19310286  1
  H+  H187  1  0.35869173  0.14407042  0.14411217  1
  H+  H188  1  0.23864408  0.36280011  -0.01831157  1
  H+  H189  1  0.63648089  0.86152960  0.50289148  1
  H+  H190  1  0.12933516  0.86224556  0.49939714  1
  H+  H191  1  0.63315872  1.03755280  0.34032879  1
  H+  H192  1  0.27133219  0.14258978  0.67184697  1
  H+  H193  1  0.39192585  0.78474391  0.83951670  1
  H+  H194  1  0.14375285  0.52190228  0.32902582  1
  H+  H195  1  0.47914175  0.13047712  0.17525935  1
  H+  H196  1  0.62508218  0.27294681  0.33019973  1
  H+  H197  1  0.61669649  0.71818295  0.16075309  1
  H+  H198  1  0.89372693  0.77454461  0.17871317  1
  H+  H199  1  0.83105209  0.67409382  0.39403280  1
  H+  H200  1  0.89854992  0.56937947  0.25111051  1
  H+  H201  1  0.60499447  0.14094297  0.17090527  1
  H+  H202  1  0.61110441  0.88331912  0.67511028  1
  H+  H203  1  0.63555659  0.36777654  0.49812362  1
  H+  H204  1  0.66411898  0.07167807  0.94635719  1
  H+  H205  1  0.27505358  0.88663821  0.01560026  1
  H+  H206  1  0.53087847  0.38097308  1.00852808  1
  H+  H207  1  0.10470525  0.12489070  0.15980232  1
  H+  H208  1  0.22413481  0.11647186  0.33373252  1
  H+  H209  1  0.83588235  0.09393829  0.84392571  1
  H+  H210  1  0.39267309  0.36403751  0.16255029  1
  H+  H211  1  0.37429557  0.64349152  0.82878236  1
  H+  H212  1  0.65783769  0.09427721  0.24947436  1
  H+  H213  1  0.08241560  0.16140831  0.73125771  1
  H+  H214  1  0.60697320  0.37734988  0.82021310  1
  H+  H215  1  0.37693315  0.87181665  0.32613187  1
  H+  H216  1  0.91095957  0.58387928  0.59906902  1
  H+  H217  1  0.36735977  0.11566741  0.84287826  1
  H+  H218  1  0.86201305  0.63315516  0.01695217  1
  H+  H219  1  0.67924219  0.98340171  0.13446473  1
  H+  H220  1  0.65104775  0.37413626  0.65468861  1
  H+  H221  1  0.01828186  0.87241986  0.48800530  1
  H+  H222  1  0.11585379  0.62679966  0.34061639  1
  H+  H223  1  0.34750450  0.88997196  0.83763594  1
  H+  H224  1  0.39230517  0.27092197  -0.01084825  1
  H+  H225  1  0.72443509  0.86200347  0.65842006  1
  H+  H226  1  0.88557324  0.31570862  0.84325755  1
  H+  H227  1  0.15078253  0.86642885  0.17575426  1
  H+  H228  1  0.86850900  0.23242312  0.17732404  1
  H+  H229  1  0.88226831  0.52714777  0.50325363  1
  H+  H230  1  0.94520609  0.05160006  0.90644791  1
  H+  H231  1  0.13791509  0.02494205  0.66130282  1
  H+  H232  1  0.37183714  0.23142079  0.49466901  1
  H+  H233  1  0.77443111  0.64053906  0.83378305  1
  H+  H234  1  0.78450548  0.39154350  0.02735278  1
  H+  H235  1  0.83825567  0.86909171  0.82182890  1
  H+  H236  1  0.15435373  0.59459215  0.72604148  1
  H+  H237  1  0.09711868  0.70431639  0.33700662  1
  H+  H238  1  -0.01419718  0.86450558  0.17732541  1
  H+  H239  1  0.12614263  0.23354212  0.67514513  1
  H+  H240  1  0.17548689  0.58048586  0.89767597  1
  H+  H241  1  0.86690349  0.72936219  0.67490462  1
  H+  H242  1  0.23458166  0.36621616  0.82865465  1
  H+  H243  1  0.36278820  0.23445465  0.14663222  1
  H+  H244  1  0.47867165  0.36670660  0.83585042  1
  H+  H245  1  0.35727763  0.22960971  0.82515989  1
  H+  H246  1  0.47889460  0.62132562  0.51468800  1
  H+  H247  1  0.02062909  0.88234320  0.82430141  1
  H+  H248  1  0.86250095  0.97634904  0.49029384  1
  H+  H249  1  0.87794725  0.61265951  0.19466605  1
  H+  H250  1  0.63137262  0.52250239  0.50421963  1
  H+  H251  1  0.14154213  0.52137288  0.49005600  1
  H+  H252  1  0.92871943  0.41383051  0.86037987  1
  H+  H253  1  0.98166224  0.11403039  0.49310051  1
  H+  H254  1  0.47201341  0.86096566  -0.00360732  1
  H+  H255  1  0.61038313  0.72404400  0.67152704  1
  H+  H256  1  0.73185514  0.61799526  0.65959097  1
  H+  H257  1  0.68812733  0.33873697  0.96210228  1
  H+  H258  1  0.85678495  0.72639446  0.49366105  1
  H+  H259  1  0.13156618  0.48130236  0.16516907  1
  H+  H260  1  0.14603697  0.12247089  0.50414896  1
  H+  H261  1  0.38201146  0.62216324  0.51270346  1
  H+  H262  1  0.36462133  0.72668467  -0.00153669  1
  H+  H263  1  0.38476580  0.60385409  0.66367836  1
  H+  H264  1  0.03229694  0.13403650  0.34614756  1
  H+  H265  1  0.11709499  0.64056287  0.85200077  1
  H+  H266  1  0.87262748  0.48092772  0.01704041  1
  H+  H267  1  0.22212034  0.86638476  0.50212768  1
  H+  H268  1  0.59127158  0.17950514  0.80746714  1
  H+  H269  1  0.88245868  0.88975971  0.34132863  1
  H+  H270  1  0.63320204  0.89305724  0.16580195  1
  H+  H271  1  0.42240413  0.96034154  0.44971547  1
  H+  H272  1  0.27424114  0.37611771  0.67467515  1
  H+  H273  1  0.70656126  0.33900252  0.82662745  1
  H+  H274  1  0.90186873  0.27122478  0.64553584  1
  H+  H275  1  0.88087091  0.75949296  0.99886295  1
  H+  H276  1  0.15146876  0.61254217  0.18003965  1
  H+  H277  1  0.12445986  -0.01891256  0.17306602  1
  H+  H278  1  1.03035973  0.39977891  1.01643191  1
  H+  H279  1  0.88663364  0.02333710  0.33226287  1
  H+  H280  1  0.83565830  0.67062694  0.73462125  1
  H+  H281  1  0.87835098  0.61478777  0.50278057  1
  H+  H282  1  0.61124045  0.38991416  0.33961082  1
  H+  H283  1  0.78925255  0.87855304  0.34129817  1
  H+  H284  1  0.88242230  0.12846991  0.84661191  1
  H+  H285  1  0.36724401  0.47321318  1.00021041  1
  H+  H286  1  0.18109596  0.58667331  0.27392963  1
  H+  H287  1  0.66676982  0.09806141  0.69529652  1
  H+  H288  1  0.30633369  0.89958197  0.40267947  1
  H+  H289  1  0.57563739  0.17034871  0.43779000  1
  H+  H290  1  0.47880535  0.36203095  0.31687481  1
  H+  H291  1  0.40852255  0.07637207  0.93832397  1
  H+  H292  1  0.07985538  0.41888039  0.39229208  1
  H+  H293  1  0.22118446  0.87259858  0.85508667  1
  H+  H294  1  0.41671844  0.85563903  0.26433813  1
  H+  H295  1  0.15665230  0.36771570  0.53428135  1
  H+  H296  1  0.80067969  0.25233930  0.76472143  1
  H+  H297  1  0.07725789  0.40761817  0.73766559  1
  H+  H298  1  0.11605527  0.37453605  0.81788029  1
  H+  H299  1  0.92513056  0.83799546  0.26829650  1
  H+  H300  1  0.08108161  0.91271085  0.73140445  1
  H+  H301  1  0.41377177  0.58423508  0.57696985  1
  H+  H302  1  0.82811147  0.91454996  0.72701212  1
  H+  H303  1  0.67288919  0.82718025  0.23630135  1
  H+  H304  1  0.60738302  0.96494644  0.01231025  1
  H+  H305  1  0.92960658  0.34712621  0.26956133  1
  H+  H306  1  0.66328077  0.83265179  0.60028752  1
  H+  H307  1  0.09130555  0.93002850  0.11123671  1
  H+  H308  1  0.34276595  0.64906986  0.40128226  1
  H+  H309  1  0.41302927  0.13260450  0.22299129  1
  H+  H310  1  0.17103761  0.33254512  0.23719704  1
  H+  H311  1  0.16433838  0.84486639  0.94271181  1
  H+  H312  1  0.58143745  0.90634711  0.07050905  1
  H+  H313  1  0.84495603  0.14837174  0.70484877  1
  H+  H314  1  0.01492490  0.96107909  0.04340576  1
  H+  H315  1  0.66242188  0.33344678  0.27199485  1
  H+  H316  1  0.41695404  0.84098507  0.90051563  1
  H+  H317  1  0.18719352  0.17005197  0.80078479  1
  H+  H318  1  0.32372788  0.40318260  0.44654936  1
  H+  H319  1  0.67230159  0.58842041  0.25545946  1
  H+  H320  1  0.66058922  0.08049413  0.56879932  1
  H+  H321  1  0.57678768  0.16323587  0.10716388  1
  H+  H322  1  0.12144761  0.68198965  0.09467703  1
  H+  H323  1  0.65798281  0.81795389  0.94166789  1
  H+  H324  1  0.41375677  0.56701244  0.22126677  1
  H+  H325  1  0.71633342  0.85849571  0.83752060  1
  H+  H326  1  0.10996370  0.72563340  0.50783166  1
  H+  H327  1  0.42782759  0.33377840  0.56373499  1
  H+  H328  1  0.33325826  0.40989933  0.09627088  1
  H+  H329  1  0.77219795  0.12715190  0.00649918  1
  H+  H330  1  0.92705192  0.07986859  0.55431392  1
  H+  H331  1  0.38209240  1.01593786  -0.00145045  1
  H+  H332  1  0.18011342  0.33705963  0.91956132  1
  H+  H333  1  0.83589419  0.91236466  0.43409752  1
  H+  H334  1  0.84730781  0.43044498  0.11467453  1
  H+  H335  1  0.63908790  0.36056061  1.01278142  1
  H+  H336  1  0.12716205  0.60892841  0.65861523  1
  H+  H337  1  0.58455070  0.65850645  0.76642721  1
  H+  H338  1  0.56701304  0.15674104  0.71320715  1
  H+  H339  1  0.83497989  0.17460882  0.40125816  1
  H+  H340  1  0.25626169  0.70864729  0.12524559  1
  H+  H341  1  0.39054048  0.35886236  0.50565470  1
  H+  H342  1  0.92204654  0.33554387  0.94805881  1
  H+  H343  1  0.16951006  0.84381341  0.59556723  1
  H+  H344  1  0.17382428  0.08884455  0.24193029  1
  H+  H345  1  0.63472024  0.28525044  0.87629141  1
  H+  H346  1  0.55326098  0.07664849  0.79483614  1
  H+  H347  1  0.90759854  0.07765350  0.23824221  1
  H+  H348  1  0.57719085  0.91759346  0.43098650  1
  H+  H349  1  0.65179730  0.53859176  0.17588050  1
  H+  H350  1  0.41827153  0.82576141  0.60389042  1
  H+  H351  1  0.91082390  0.83657537  0.90756339  1
  H+  H352  1  0.51319495  0.12239176  0.35956529  1
  H+  H353  1  0.91587444  0.83142765  0.56611737  1
  H+  H354  1  0.12421443  0.69865633  0.74588979  1
  H+  H355  1  0.13909716  0.60775307  0.50152103  1
  H+  H356  1  0.66293775  0.58166203  0.56455074  1
  H+  H357  1  0.09654269  0.43512009  0.07102619  1
  H+  H358  1  0.33549326  0.91546883  0.07606063  1
  H+  H359  1  0.33811177  0.17033809  0.40245250  1
  H+  H360  1  0.32880109  0.17124152  0.76581061  1
  H+  H361  1  0.59302566  0.42187758  0.72745699  1
  H+  H362  1  0.91606356  0.58459102  0.94588756  1
  H+  H363  1  0.16643910  0.82833403  0.26684174  1
  H+  H364  1  0.13818670  0.52954262  0.99258167  1
  H+  H365  1  0.51509970  0.12608786  0.01134894  1
  H+  H366  1  0.88802415  0.62210396  0.84930019  1
  H+  H367  1  0.23279834  0.36676283  0.17877252  1
  H+  H368  1  0.41366241  0.09313381  0.56582367  1
  H+  H369  1  0.83398000  0.66798145  0.11600548  1
  H+  H370  1  0.34113920  0.42122847  0.76422009  1
  H+  H371  1  0.08990026  0.71086153  0.74596291  1
  H+  H372  1  0.17251833  0.31689110  0.58756461  1
  H+  H373  1  0.42088181  0.58395077  0.90087369  1
  H+  H374  1  0.72642896  0.86267381  0.50382742  1
  H+  H375  1  0.85245306  0.43586864  0.42944040  1
  H+  H376  1  0.08615199  0.16448279  0.42490963  1
  H+  H377  1  0.91609099  0.03495345  1.00331138  1
  H+  H378  1  0.42315759  0.05670866  0.28447949  1
  H+  H379  1  0.58604661  0.42189106  0.42971429  1
  H+  H380  1  0.34182034  0.66577574  0.73605785  1
  H+  H381  1  0.08017710  0.90498550  0.42897302  1
  H+  H382  1  0.88840615  0.86124794  0.66031828  1
  H+  H383  1  1.01840703  0.63688656  0.50853261  1
  O2-  O384  1  0.06957514  0.13892865  0.13313944  1
  O2-  O385  1  0.07876462  0.16043797  0.47441901  1
  O2-  O386  1  0.14071406  0.16628237  0.82629945  1
  O2-  O387  1  0.09807004  0.42287418  0.14720966  1
  O2-  O388  1  0.07730424  0.40183367  0.47459880  1
  O2-  O389  1  0.08657658  0.40708567  0.80360712  1
  O2-  O390  1  0.15150854  0.69230015  0.13437199  1
  O2-  O391  1  0.08207147  0.66215498  0.51277712  1
  O2-  O392  1  0.09019718  0.67552534  0.86053235  1
  O2-  O393  1  0.09481335  0.92107104  0.15524265  1
  O2-  O394  1  0.07851958  0.89790692  0.47403127  1
  O2-  O395  1  0.07700313  0.90634525  0.80467207  1
  O2-  O396  1  0.32715888  0.17325157  0.13109522  1
  O2-  O397  1  0.33979723  0.16984031  0.48033438  1
  O2-  O398  1  0.32234306  0.16948832  0.81087812  1
  O2-  O399  1  0.33889861  0.41085647  0.14106253  1
  O2-  O400  1  0.33421702  0.39717784  0.49093702  1
  O2-  O401  1  0.33805218  0.41975371  0.81002295  1
  O2-  O402  1  0.30727235  0.70067833  0.12912239  1
  O2-  O403  1  0.33732022  0.66018984  0.48521385  1
  O2-  O404  1  0.34481147  0.67369793  0.81158964  1
  O2-  O405  1  0.33342391  0.91511981  0.14529938  1
  O2-  O406  1  0.37410690  0.94203309  0.47755812  1
  O2-  O407  1  0.31210466  0.91563056  0.82628390  1
  O2-  O408  1  0.57812977  0.17260741  0.15207406  1
  O2-  O409  1  0.57685175  0.17697239  0.48722485  1
  O2-  O410  1  0.54846555  0.12821091  0.78516326  1
  O2-  O411  1  0.59116571  0.42108049  0.14173405  1
  O2-  O412  1  0.58856952  0.41969052  0.47579223  1
  O2-  O413  1  0.58575672  0.41578535  0.80710003  1
  O2-  O414  1  0.59048476  0.65842657  0.14604304  1
  O2-  O415  1  0.57316761  0.66297249  0.48832550  1
  O2-  O416  1  0.58456360  0.65588182  0.81184839  1
  O2-  O417  1  0.62074533  0.93660636  0.14666332  1
  O2-  O418  1  0.57940488  0.91409040  0.47622682  1
  O2-  O419  1  0.55056326  0.97374033  0.79885425  1
  O2-  O420  1  0.77716434  0.08026425  0.13279679  1
  O2-  O421  1  0.83687940  0.16972315  0.48237544  1
  O2-  O422  1  0.80257775  0.23103994  0.80574782  1
  O2-  O423  1  0.83938204  0.42683848  0.15937452  1
  O2-  O424  1  0.84135807  0.42257649  0.47450464  1
  O2-  O425  1  0.80233961  0.43033395  0.80229535  1
  O2-  O426  1  0.83469156  0.67235408  0.16074064  1
  O2-  O427  1  0.82713318  0.66655502  0.47692894  1
  O2-  O428  1  0.83533874  0.67203316  0.81838198  1
  O2-  O429  1  0.83531780  0.91013412  0.15267559  1
  O2-  O430  1  0.82960252  0.91375641  0.47945533  1
  O2-  O431  1  0.81485155  0.90551297  0.80653825  1
  O2-  O432  1  0.17146736  0.08113759  0.19652801  1
  O2-  O433  1  0.18571065  0.10380871  0.52062852  1
  O2-  O434  1  0.15160291  0.06824516  0.90671448  1
  O2-  O435  1  0.17335694  0.34506414  0.19297816  1
  O2-  O436  1  0.16789717  0.32060592  0.54038764  1
  O2-  O437  1  0.17272852  0.33166072  0.84215839  1
  O2-  O438  1  0.18010749  0.58231403  0.19789693  1
  O2-  O439  1  0.17407091  0.57951854  0.50702111  1
  O2-  O440  1  0.17812948  0.58218476  0.85132047  1
  O2-  O441  1  0.18147598  0.83706030  0.19117031  1
  O2-  O442  1  0.16450600  0.83603273  0.51915782  1
  O2-  O443  1  0.16029468  0.84459801  0.87257292  1
  O2-  O444  1  0.41676812  0.10045161  0.18872886  1
  O2-  O445  1  0.42218579  0.09837623  0.51948267  1
  O2-  O446  1  0.39857871  0.08622853  0.85938512  1
  O2-  O447  1  0.42293347  0.33148942  0.17465021  1
  O2-  O448  1  0.42810865  0.33251055  0.51846130  1
  O2-  O449  1  0.42048179  0.33792190  0.85434999  1
  O2-  O450  1  0.41913813  0.57068806  0.17641145  1
  O2-  O451  1  0.41704099  0.59329378  0.53021662  1
  O2-  O452  1  0.41917735  0.58407881  0.85511545  1
  O2-  O453  1  0.41378180  0.84922575  0.18910512  1
  O2-  O454  1  0.41733966  0.82639756  0.52560505  1
  O2-  O455  1  0.41592999  0.84427978  0.85494262  1
  O2-  O456  1  0.65242773  0.09026591  0.20423852  1
  O2-  O457  1  0.66166941  0.08237777  0.52413764  1
  O2-  O458  1  0.68213484  0.07462756  0.87210081  1
  O2-  O459  1  0.67319544  0.34242365  0.19189118  1
  O2-  O460  1  0.66366536  0.33353506  0.51294484  1
  O2-  O461  1  0.64487526  0.29422122  0.83275054  1
  O2-  O462  1  0.67767922  0.59698261  0.19268282  1
  O2-  O463  1  0.65806619  0.58322957  0.51933778  1
  O2-  O464  1  0.67034364  0.57674400  0.85695305  1
  O2-  O465  1  0.67152351  0.83056439  0.19165346  1
  O2-  O466  1  0.66555655  0.83135639  0.51970385  1
  O2-  O467  1  0.65727863  0.82126446  0.85507212  1
  O2-  O468  1  0.90541809  0.06906743  0.19316188  1
  O2-  O469  1  0.91962164  0.08389648  0.50983766  1
  O2-  O470  1  0.95197217  0.02638083  0.86769846  1
  O2-  O471  1  0.95358653  0.38415126  0.20714201  1
  O2-  O472  1  0.91727978  0.33681286  0.51836456  1
  O2-  O473  1  0.93680369  0.36420871  0.86329140  1
  O2-  O474  1  0.90544684  0.57875546  0.20706634  1
  O2-  O475  1  0.90962453  0.58642411  0.52006551  1
  O2-  O476  1  0.91309562  0.58775308  0.86623899  1
  O2-  O477  1  0.92512017  0.83689162  0.19186798  1
  O2-  O478  1  0.91275961  0.82918649  0.52080237  1
  O2-  O479  1  0.91657991  0.85725365  0.86406371  1
  O2-  O480  1  0.16440857  0.08567022  0.31828748  1
  O2-  O481  1  0.16958224  0.08593416  0.64719961  1
  O2-  O482  1  0.16643113  0.09322820  0.96926376  1
  O2-  O483  1  0.15735598  0.31374728  0.31587180  1
  O2-  O484  1  0.17930449  0.31819437  0.65671737  1
  O2-  O485  1  0.17824390  0.33267264  0.96488158  1
  O2-  O486  1  0.17930317  0.58469238  0.31946646  1
  O2-  O487  1  0.15561134  0.57767642  0.68396164  1
  O2-  O488  1  0.16989707  0.58782924  0.97101754  1
  O2-  O489  1  0.15900533  0.82416852  0.31238793  1
  O2-  O490  1  0.16997766  0.83928363  0.64105880  1
  O2-  O491  1  0.16548425  0.83789930  0.98918560  1
  O2-  O492  1  0.41472655  0.06282666  0.32772901  1
  O2-  O493  1  0.40525389  0.08511965  0.63628009  1
  O2-  O494  1  0.41257741  0.07734844  0.98360937  1
  O2-  O495  1  0.42334506  0.32732418  0.29542347  1
  O2-  O496  1  0.42366095  0.33722443  0.64422161  1
  O2-  O497  1  0.42788218  0.33306223  0.97805484  1
  O2-  O498  1  0.40189900  0.55240425  0.30208963  1
  O2-  O499  1  0.41477515  0.57505628  0.64535125  1
  O2-  O500  1  0.41897583  0.58125947  0.97865928  1
  O2-  O501  1  0.42180919  0.86034274  0.31007870  1
  O2-  O502  1  0.41997308  0.82932987  0.64922020  1
  O2-  O503  1  0.41355221  0.83438954  0.97764023  1
  O2-  O504  1  0.66349314  0.09950683  0.32834440  1
  O2-  O505  1  0.66493179  0.07327305  0.65537741  1
  O2-  O506  1  0.66243967  0.07161059  0.99192091  1
  O2-  O507  1  0.65580197  0.33290944  0.31697158  1
  O2-  O508  1  0.67769526  0.34071330  0.63786468  1
  O2-  O509  1  0.67240575  0.32849065  1.00476447  1
  O2-  O510  1  0.67030458  0.58303405  0.30543085  1
  O2-  O511  1  0.67155270  0.58606526  0.64351193  1
  O2-  O512  1  0.66856656  0.57856400  0.98013137  1
  O2-  O513  1  0.67750564  0.82248399  0.32129135  1
  O2-  O514  1  0.66247772  0.83200555  0.64572000  1
  O2-  O515  1  0.65640982  0.81539038  0.98629731  1
  O2-  O516  1  0.91304099  0.08238577  0.31520382  1
  O2-  O517  1  0.93036306  0.07277255  0.63438227  1
  O2-  O518  1  0.93239635  0.08689969  0.97715462  1
  O2-  O519  1  0.91782005  0.33269327  0.31537559  1
  O2-  O520  1  0.93069158  0.33412385  0.63827195  1
  O2-  O521  1  0.91537349  0.32609471  0.99227009  1
  O2-  O522  1  0.91281645  0.53758371  0.33455739  1
  O2-  O523  1  0.92305189  0.58650193  0.64357808  1
  O2-  O524  1  0.91792242  0.58339593  0.99105090  1
  O2-  O525  1  0.92633206  0.83933784  0.31392884  1
  O2-  O526  1  0.91821485  0.83046029  0.64593024  1
  O2-  O527  1  0.90901071  0.81859346  0.97969219  1
  O2-  O528  1  0.09738426  0.18546766  -0.00118816  1
  O2-  O529  1  0.09141208  0.16428173  0.36167388  1
  O2-  O530  1  0.08382840  0.16571691  0.68700571  1
  O2-  O531  1  0.09067272  0.44096357  0.02621409  1
  O2-  O532  1  0.08246516  0.41643056  0.34766904  1
  O2-  O533  1  0.07964429  0.41765243  0.69008410  1
  O2-  O534  1  0.08591864  0.66744948  0.01881939  1
  O2-  O535  1  0.07469689  0.64596473  0.35344022  1
  O2-  O536  1  0.09033179  0.65472545  0.63181403  1
  O2-  O537  1  0.06039385  0.94680031  0.03389387  1
  O2-  O538  1  0.09049053  0.91847771  0.35107199  1
  O2-  O539  1  0.08125731  0.91663053  0.68534380  1
  O2-  O540  1  0.32730819  0.16363288  0.00923265  1
  O2-  O541  1  0.33656766  0.16710921  0.35692346  1
  O2-  O542  1  0.33280145  0.17342752  0.68624010  1
  O2-  O543  1  0.33513306  0.41136725  0.01245371  1
  O2-  O544  1  0.30002582  0.41451085  0.37835363  1
  O2-  O545  1  0.33802013  0.41662399  0.68746927  1
  O2-  O546  1  0.33530486  0.66673883  0.01482434  1
  O2-  O547  1  0.34555131  0.64690463  0.35663001  1
  O2-  O548  1  0.33856420  0.66223982  0.69008965  1
  O2-  O549  1  0.33621111  0.91599736  0.02836949  1
  O2-  O550  1  0.30900384  0.90410325  0.35824681  1
  O2-  O551  1  0.34064562  0.92868515  0.67315159  1
  O2-  O552  1  0.57465962  0.15277491  0.02900614  1
  O2-  O553  1  0.57267394  0.16078351  0.37570700  1
  O2-  O554  1  0.57505355  0.17149413  0.66842334  1
  O2-  O555  1  0.59146751  0.41157687  0.02385412  1
  O2-  O556  1  0.58224319  0.42211449  0.35449703  1
  O2-  O557  1  0.59536111  0.42080690  0.68223928  1
  O2-  O558  1  0.58078089  0.65193910  0.02437638  1
  O2-  O559  1  0.55196472  0.67660474  0.36922946  1
  O2-  O560  1  0.58360797  0.66377482  0.68690209  1
  O2-  O561  1  0.57428927  0.90345863  0.02554390  1
  O2-  O562  1  0.56981841  0.92962106  0.35251900  1
  O2-  O563  1  0.58083627  0.91530950  0.68711500  1
  O2-  O564  1  0.83270859  0.15318487  0.02130723  1
  O2-  O565  1  0.82815957  0.17073833  0.35630212  1
  O2-  O566  1  0.84061006  0.15855739  0.66178995  1
  O2-  O567  1  0.84728554  0.42137932  0.03430217  1
  O2-  O568  1  0.88320701  0.45639447  0.35769220  1
  O2-  O569  1  0.80862332  0.34651730  0.70601238  1
  O2-  O570  1  0.83183462  0.66442251  0.02989551  1
  O2-  O571  1  0.83583233  0.68128287  0.34938911  1
  O2-  O572  1  0.83439044  0.66824133  0.68960990  1
  O2-  O573  1  0.90397553  0.94935321  0.04064137  1
  O2-  O574  1  0.84751264  0.91606826  0.35771733  1
  O2-  O575  1  0.82973903  0.91243310  0.68179278  1
