# generated using pymatgen
data_H2O
_symmetry_space_group_name_H-M   'P 1'
_cell_length_a   17.98097770
_cell_length_b   17.97499048
_cell_length_c   21.99031296
_cell_angle_alpha   90.02264832
_cell_angle_beta   90.03981721
_cell_angle_gamma   119.97230034
_symmetry_Int_Tables_number   1
_chemical_formula_structural   H2O
_chemical_formula_sum   'H384 O192'
_cell_volume   6156.93972253
_cell_formula_units_Z   192
loop_
 _symmetry_equiv_pos_site_id
 _symmetry_equiv_pos_as_xyz
  1  'x, y, z'
loop_
 _atom_type_symbol
 _atom_type_oxidation_number
  H+  1.0
  O2-  -2.0
loop_
 _atom_site_type_symbol
 _atom_site_label
 _atom_site_symmetry_multiplicity
 _atom_site_fract_x
 _atom_site_fract_y
 _atom_site_fract_z
 _atom_site_occupancy
  H+  H0  1  0.61034675  0.13916238  0.68985020  1
  H+  H1  1  0.13472528  0.27240453  0.32360149  1
  H+  H2  1  0.61124717  0.88858387  0.67419263  1
  H+  H3  1  0.50775824  0.13788447  0.83034592  1
  H+  H4  1  0.51591216  0.63850041  0.63317762  1
  H+  H5  1  0.67905446  0.55772540  0.91226151  1
  H+  H6  1  0.09089798  0.62006950  0.21059080  1
  H+  H7  1  0.38664685  0.12518549  0.32705533  1
  H+  H8  1  0.61390236  0.38536144  0.67875055  1
  H+  H9  1  0.21916628  0.37371522  0.83631263  1
  H+  H10  1  0.62550211  0.25953487  0.84050442  1
  H+  H11  1  0.12921292  0.10398011  0.32635412  1
  H+  H12  1  0.72956850  0.64810087  0.18528452  1
  H+  H13  1  0.14303308  1.03048612  -0.00598711  1
  H+  H14  1  0.79510384  0.15743077  0.61166294  1
  H+  H15  1  0.48669840  0.57522863  0.14528468  1
  H+  H16  1  0.26458098  0.63220042  0.17938862  1
  H+  H17  1  0.37816053  0.22353798  0.49361118  1
  H+  H18  1  0.97233136  0.81707500  0.76124080  1
  H+  H19  1  0.34671097  0.60782759  0.83401729  1
  H+  H20  1  0.01935916  0.37688621  0.34869605  1
  H+  H21  1  0.89206686  0.11558239  0.63840182  1
  H+  H22  1  0.23764888  0.87251150  0.64984461  1
  H+  H23  1  0.13932720  0.36215382  0.32767226  1
  H+  H24  1  0.02211742  0.13624441  0.33812244  1
  H+  H25  1  0.96884008  0.59890365  0.27104887  1
  H+  H26  1  0.42766646  0.36825851  0.57896130  1
  H+  H27  1  0.12266795  0.88572868  0.32073236  1
  H+  H28  1  0.22709414  0.35150945  0.11742328  1
  H+  H29  1  0.14079534  -0.00331726  0.82697576  1
  H+  H30  1  0.90686516  0.14002429  0.95173462  1
  H+  H31  1  0.08481239  0.70753919  0.21344791  1
  H+  H32  1  0.72961113  0.87003480  0.65037831  1
  H+  H33  1  0.73546603  0.59122270  0.84629671  1
  H+  H34  1  0.22828715  0.37127210  -0.01752163  1
  H+  H35  1  0.50600613  0.89206160  0.36920671  1
  H+  H36  1  0.72350287  0.83790644  0.17898436  1
  H+  H37  1  0.72321154  0.37402438  0.33066773  1
  H+  H38  1  0.60269995  0.61880082  0.49742006  1
  H+  H39  1  0.88871265  0.26964324  0.32968735  1
  H+  H40  1  0.13284470  0.85188905  0.65894242  1
  H+  H41  1  0.73119221  0.61142813  0.33965233  1
  H+  H42  1  0.66002368  0.56352409  0.59691140  1
  H+  H43  1  0.46799919  0.45573671  0.54447105  1
  H+  H44  1  0.14710863  0.12900395  0.83884740  1
  H+  H45  1  0.89323082  0.36509261  0.65715316  1
  H+  H46  1  0.52052530  0.39319689  0.48580853  1
  H+  H47  1  0.66384725  0.73890951  0.18544151  1
  H+  H48  1  0.72968942  0.35688935  0.99567246  1
  H+  H49  1  0.26685520  0.88913546  1.01312345  1
  H+  H50  1  0.12274328  0.64694825  0.34467807  1
  H+  H51  1  0.58524627  0.40909699  0.10797358  1
  H+  H52  1  0.13619329  0.52932579  0.33413721  1
  H+  H53  1  0.93363033  0.60082383  1.04656541  1
  H+  H54  1  0.11794976  0.14306506  0.99658534  1
  H+  H55  1  0.36323974  0.88653998  0.65384603  1
  H+  H56  1  0.76031755  0.22790146  0.54611813  1
  H+  H57  1  0.11599191  -0.02251160  0.32901162  1
  H+  H58  1  0.57820822  0.15148218  0.40766160  1
  H+  H59  1  0.90149102  0.10968330  0.81304147  1
  H+  H60  1  0.26919252  0.37240641  0.32590316  1
  H+  H61  1  0.91336580  0.35805986  0.47638147  1
  H+  H62  1  0.52298188  0.88840741  0.67143103  1
  H+  H63  1  0.90999728  1.02266720  0.81601783  1
  H+  H64  1  0.27237399  0.90200456  0.33097226  1
  H+  H65  1  0.36693119  0.14428238  0.67226377  1
  H+  H66  1  0.26775818  0.13180691  0.34370324  1
  H+  H67  1  0.79339687  0.88062895  0.48011500  1
  H+  H68  1  0.57270956  0.40454163  0.39403117  1
  H+  H69  1  0.25222304  0.84345414  0.80915421  1
  H+  H70  1  0.39121517  0.50262748  0.31247344  1
  H+  H71  1  0.87307997  0.89520625  0.18794794  1
  H+  H72  1  0.47538410  0.11447268  0.66231897  1
  H+  H73  1  0.12093928  0.38304414  0.67519273  1
  H+  H74  1  0.75405120  0.31939875  0.48246687  1
  H+  H75  1  0.89631191  0.28366316  0.18171243  1
  H+  H76  1  0.38557767  0.11648031  1.00448567  1
  H+  H77  1  0.53168239  0.26901494  0.55582921  1
  H+  H78  1  0.99878704  0.60113524  0.99650678  1
  H+  H79  1  0.88060428  0.77024139  0.65641720  1
  H+  H80  1  0.14922392  0.56569205  0.64155182  1
  H+  H81  1  0.33611579  0.67985921  0.71776801  1
  H+  H82  1  0.63390678  0.02571285  0.69513353  1
  H+  H83  1  0.86995335  0.51195248  0.15455183  1
  H+  H84  1  0.61088164  0.10639106  0.84266982  1
  H+  H85  1  0.13474897  0.36625805  0.48168445  1
  H+  H86  1  0.76434229  0.36598489  0.82142568  1
  H+  H87  1  0.74704639  0.35451608  0.49462124  1
  H+  H88  1  1.02434511  0.89916726  1.00925095  1
  H+  H89  1  0.26864197  0.65377713  0.66071686  1
  H+  H90  1  0.76404288  0.88997173  0.32732687  1
  H+  H91  1  0.47142278  0.61659653  -0.01872955  1
  H+  H92  1  0.65069052  0.48489667  0.84844914  1
  H+  H93  1  0.51434551  0.62438312  0.49519544  1
  H+  H94  1  0.62747736  0.03188342  0.99294943  1
  H+  H95  1  0.10580308  0.54431694  0.83267100  1
  H+  H96  1  0.38479906  0.03512525  0.32579293  1
  H+  H97  1  0.14006856  0.02323704  0.17428930  1
  H+  H98  1  0.50199691  0.66408301  0.85647082  1
  H+  H99  1  0.11943375  0.50963986  0.01463289  1
  H+  H100  1  0.36821624  0.14618337  0.17052317  1
  H+  H101  1  0.38669610  1.03187971  0.18005551  1
  H+  H102  1  0.60768221  0.22705214  0.67491722  1
  H+  H103  1  0.02755948  0.91330558  0.50125893  1
  H+  H104  1  0.86908786  0.23064370  0.65009612  1
  H+  H105  1  0.36669770  0.22989716  0.01450402  1
  H+  H106  1  0.37764522  0.76665907  0.18784341  1
  H+  H107  1  0.48222596  0.37045842  0.84098942  1
  H+  H108  1  0.84905699  0.12301864  0.32015838  1
  H+  H109  1  0.36063961  0.39243990  0.82388229  1
  H+  H110  1  0.40321130  0.55264366  0.21948575  1
  H+  H111  1  0.65020563  0.77845782  0.50017198  1
  H+  H112  1  0.90758839  0.68897234  0.39020087  1
  H+  H113  1  0.10345141  0.39941303  0.83509936  1
  H+  H114  1  0.35722825  0.39195562  0.48583708  1
  H+  H115  1  0.88260553  0.90384059  1.00656809  1
  H+  H116  1  0.03843560  0.65323656  0.34568977  1
  H+  H117  1  0.02812281  0.13742232  0.48516445  1
  H+  H118  1  0.37119909  0.48909025  0.97848660  1
  H+  H119  1  0.63957014  0.78243493  0.64014035  1
  H+  H120  1  0.83884368  -0.08289523  0.37666106  1
  H+  H121  1  0.63109625  0.76769837  0.32433617  1
  H+  H122  1  0.88477800  0.02528376  0.31432809  1
  H+  H123  1  0.26924853  0.64618634  0.49593911  1
  H+  H124  1  0.62541600  0.60937447  -0.01633382  1
  H+  H125  1  0.84897373  0.76238513  1.00945514  1
  H+  H126  1  0.08630678  0.65347357  -0.08357273  1
  H+  H127  1  0.14669436  0.86280629  0.83356839  1
  H+  H128  1  0.71822661  0.36130419  0.65132092  1
  H+  H129  1  0.13659837  0.47450088  0.69348853  1
  H+  H130  1  0.57554453  0.55763476  0.82141824  1
  H+  H131  1  0.37783287  0.61877506  0.64925033  1
  H+  H132  1  0.08785112  0.18769224  0.24024724  1
  H+  H133  1  0.12184380  0.49060931  0.18605740  1
  H+  H134  1  0.77491700  0.37641584  0.16299727  1
  H+  H135  1  0.51853735  0.14160531  1.02118629  1
  H+  H136  1  0.14967018  0.59800499  0.14919669  1
  H+  H137  1  0.86443621  1.00717620  -0.01248471  1
  H+  H138  1  0.37373819  0.51752158  0.49288606  1
  H+  H139  1  0.86898488  -0.02080026  0.65522108  1
  H+  H140  1  0.83392053  0.39308146  0.06683375  1
  H+  H141  1  0.08641314  0.16840459  0.39528253  1
  H+  H142  1  0.11827471  0.64823068  0.68206405  1
  H+  H143  1  0.23472104  0.12615094  0.50745119  1
  H+  H144  1  0.11922122  0.23956205  0.82137294  1
  H+  H145  1  0.12008161  0.38774920  0.02939451  1
  H+  H146  1  0.09245088  0.92045192  0.10235227  1
  H+  H147  1  0.35003004  0.62482923  0.17206211  1
  H+  H148  1  0.38389153  0.12135437  0.84410879  1
  H+  H149  1  0.93024717  0.09166890  0.90074664  1
  H+  H150  1  0.59270331  0.97601460  0.83509284  1
  H+  H151  1  0.47573906  0.59492177  0.31304671  1
  H+  H152  1  0.98894644  0.58211394  0.82817345  1
  H+  H153  1  -0.01955823  0.62996699  0.51325542  1
  H+  H154  1  0.59069058  0.21748461  0.51182480  1
  H+  H155  1  0.53522005  0.38641012  0.17151664  1
  H+  H156  1  0.71892543  0.62345258  0.99345903  1
  H+  H157  1  0.32653648  0.41750340  0.76416637  1
  H+  H158  1  0.77159206  0.15122303  0.17119016  1
  H+  H159  1  0.48556496  0.36186630  -0.00329534  1
  H+  H160  1  0.90633174  0.77295218  0.31993260  1
  H+  H161  1  0.87745190  0.46339838  1.01621350  1
  H+  H162  1  1.03018160  0.14505310  0.98388276  1
  H+  H163  1  0.72458325  0.87916857  1.00739575  1
  H+  H164  1  0.30611113  0.40163514  0.07468065  1
  H+  H165  1  0.11925609  0.99848406  0.50204015  1
  H+  H166  1  0.28018711  0.14804012  0.17062580  1
  H+  H167  1  0.64184196  1.04218117  0.19375913  1
  H+  H168  1  0.51212797  0.90448351  0.17402164  1
  H+  H169  1  0.71596172  0.59801611  0.51082070  1
  H+  H170  1  0.48000492  0.36896610  0.66989795  1
  H+  H171  1  0.35465022  0.63659668  0.48941225  1
  H+  H172  1  0.75439102  0.13645084  1.00883005  1
  H+  H173  1  0.11940326  0.88296285  0.16122714  1
  H+  H174  1  0.11117585  0.74884501  0.49641206  1
  H+  H175  1  0.13996166  0.28099690  0.98347706  1
  H+  H176  1  0.86911970  0.38558396  0.16514009  1
  H+  H177  1  0.39558148  0.27753411  0.19866875  1
  H+  H178  1  0.52421340  0.14059411  0.17543323  1
  H+  H179  1  0.62767156  0.60593687  0.18333526  1
  H+  H180  1  0.38550844  0.87327199  1.00186650  1
  H+  H181  1  0.39089677  0.28010204  0.66262532  1
  H+  H182  1  0.35143291  0.49764529  0.15957356  1
  H+  H183  1  0.89989406  0.01313970  0.49178530  1
  H+  H184  1  0.37304725  0.84434414  0.83906412  1
  H+  H185  1  0.62076570  0.38668715  0.00907407  1
  H+  H186  1  0.11799462  0.62540094  -0.02499693  1
  H+  H187  1  0.11973939  0.14639900  0.66595224  1
  H+  H188  1  0.05617358  0.90579710  0.82017985  1
  H+  H189  1  0.61490443  0.63598065  0.34897087  1
  H+  H190  1  0.60833948  0.72248332  1.00838023  1
  H+  H191  1  0.41705982  0.09296855  0.23985479  1
  H+  H192  1  0.86055811  0.68220318  -0.00008815  1
  H+  H193  1  0.85500002  0.09647778  0.13437951  1
  H+  H194  1  0.36018778  0.52525050  0.83530484  1
  H+  H195  1  0.37779326  0.52855707  0.65461080  1
  H+  H196  1  0.61595070  0.37068344  0.83063327  1
  H+  H197  1  0.33596392  0.40977269  -0.06635520  1
  H+  H198  1  0.86582507  0.88779938  0.65623698  1
  H+  H199  1  0.33316593  0.68370205  0.39848457  1
  H+  H200  1  0.12807231  0.40528111  0.20464518  1
  H+  H201  1  0.22094920  0.36524723  0.49091182  1
  H+  H202  1  0.72176380  0.11312379  0.68559560  1
  H+  H203  1  0.59714781  0.74380670  0.86403524  1
  H+  H204  1  0.23123667  0.11998797  -0.00041781  1
  H+  H205  1  0.12633451  0.10377394  0.18854934  1
  H+  H206  1  0.58756277  0.36100526  0.49741376  1
  H+  H207  1  0.63114823  0.86620253  -0.00194586  1
  H+  H208  1  0.60980752  0.47400004  0.34009857  1
  H+  H209  1  0.36970220  0.13099647  0.49874918  1
  H+  H210  1  0.87063766  0.21839785  0.81093202  1
  H+  H211  1  0.88229385  0.63365968  0.33057925  1
  H+  H212  1  0.34631930  0.72465233  0.82786745  1
  H+  H213  1  0.91353088  0.58946130  0.79755884  1
  H+  H214  1  0.85882799  0.45031999  0.81265030  1
  H+  H215  1  0.35311640  0.88833573  0.17030474  1
  H+  H216  1  0.85140551  0.47489030  0.32942927  1
  H+  H217  1  0.24890335  0.64928580  0.81602246  1
  H+  H218  1  0.15336765  0.78983247  0.15185609  1
  H+  H219  1  0.99062106  0.87075799  0.16953920  1
  H+  H220  1  0.13429371  0.76967330  0.97927025  1
  H+  H221  1  0.14529115  0.78389201  0.31849277  1
  H+  H222  1  0.57822285  0.59196395  0.84265478  1
  H+  H223  1  0.95338731  0.60112023  0.17416776  1
  H+  H224  1  0.86743524  0.12225733  0.47671241  1
  H+  H225  1  0.87392008  0.26026309  -0.01461895  1
  H+  H226  1  0.63046970  0.50442441  0.50157219  1
  H+  H227  1  0.10638918  0.88550215  0.00262521  1
  H+  H228  1  0.65677626  0.81151587  0.25873424  1
  H+  H229  1  0.64366624  0.36507075  0.17740411  1
  H+  H230  1  0.27775963  0.15052452  0.82576790  1
  H+  H231  1  0.58217055  0.66979506  0.57960023  1
  H+  H232  1  0.41347989  1.09115972  0.90320216  1
  H+  H233  1  -0.01772349  0.36624948  0.66459148  1
  H+  H234  1  0.87721863  0.35448250  -0.01103852  1
  H+  H235  1  0.13686004  0.27489188  0.64950426  1
  H+  H236  1  0.39939161  0.36692776  0.98863247  1
  H+  H237  1  0.87196243  0.34465282  0.83553393  1
  H+  H238  1  0.87766554  0.87368328  0.48125744  1
  H+  H239  1  0.47986544  0.35823599  0.29732696  1
  H+  H240  1  0.61737463  0.47441311  0.01029978  1
  H+  H241  1  0.14723784  0.13109176  0.50315461  1
  H+  H242  1  0.40561592  0.82820517  0.24509613  1
  H+  H243  1  0.98819762  0.37149597  0.18730307  1
  H+  H244  1  0.01500968  0.86251084  0.67127195  1
  H+  H245  1  0.27113800  0.38899996  0.66636280  1
  H+  H246  1  0.16076989  0.34472052  0.89637805  1
  H+  H247  1  0.62602724  0.37021125  0.32489007  1
  H+  H248  1  0.36176969  0.39243356  0.67264113  1
  H+  H249  1  0.14728810  0.64205759  0.50940660  1
  H+  H250  1  0.97834937  0.61296094  0.67518225  1
  H+  H251  1  1.09074677  0.18048741  0.72331049  1
  H+  H252  1  0.61610562  0.14416690  0.17949219  1
  H+  H253  1  0.83461123  0.12665841  0.03341552  1
  H+  H254  1  0.85559649  0.72412865  0.50744526  1
  H+  H255  1  0.61892286  0.89326297  0.31763833  1
  H+  H256  1  0.84879836  0.63874320  0.15144368  1
  H+  H257  1  0.35474199  0.36584541  0.32074517  1
  H+  H258  1  0.57058506  0.91113947  0.77833637  1
  H+  H259  1  0.35544186  -0.02533351  0.49438805  1
  H+  H260  1  0.13641340  0.88689006  0.50942851  1
  H+  H261  1  0.22549514  0.87944401  0.50424130  1
  H+  H262  1  0.90460945  0.26402745  0.47184654  1
  H+  H263  1  0.89636430  0.78362539  0.16917098  1
  H+  H264  1  0.63868461  0.87853975  0.85181471  1
  H+  H265  1  0.62043974  0.14607969  0.51436478  1
  H+  H266  1  0.34815648  0.88248201  0.49001677  1
  H+  H267  1  0.21250800  0.59304099  0.01025409  1
  H+  H268  1  0.38894804  0.78020191  0.64401917  1
  H+  H269  1  0.88341670  0.61171918  0.51602386  1
  H+  H270  1  0.90269370  0.89793458  0.79555346  1
  H+  H271  1  0.43624160  0.85678280  0.45903437  1
  H+  H272  1  0.03686984  0.14545755  0.81496209  1
  H+  H273  1  0.63823978  0.27246074  0.18324436  1
  H+  H274  1  0.76396409  0.15274464  0.51399243  1
  H+  H275  1  0.90510861  0.50059060  0.48735371  1
  H+  H276  1  0.85828764  0.62961490  0.67805775  1
  H+  H277  1  0.75774607  0.70116641  0.79875957  1
  H+  H278  1  0.22992129  0.12657885  0.66092211  1
  H+  H279  1  0.69680577  0.10509918  0.24991085  1
  H+  H280  1  0.47607443  0.10309059  0.51185255  1
  H+  H281  1  0.02542484  0.37455519  0.44456381  1
  H+  H282  1  0.52556166  0.13482625  0.34783935  1
  H+  H283  1  0.28171843  0.66994575  0.33846855  1
  H+  H284  1  0.02207836  0.87800280  0.32405096  1
  H+  H285  1  0.55425792  0.91153390  0.50402702  1
  H+  H286  1  0.58558053  0.92668778  -0.06262363  1
  H+  H287  1  0.46541382  0.85424109  0.84742234  1
  H+  H288  1  0.16272893  0.33879662  0.59158452  1
  H+  H289  1  0.84673141  0.99234537  0.05781085  1
  H+  H290  1  0.89782483  0.76693200  0.80867193  1
  H+  H291  1  0.42444163  0.33832175  0.90023577  1
  H+  H292  1  0.33648584  0.17633846  0.07685065  1
  H+  H293  1  0.63698391  0.32383406  0.60113548  1
  H+  H294  1  0.61777870  0.71467633  0.75950185  1
  H+  H295  1  0.57922824  0.17084157  0.08140150  1
  H+  H296  1  0.92321360  0.07454239  0.55095891  1
  H+  H297  1  0.39996924  0.59177232  0.92850688  1
  H+  H298  1  0.32792959  0.40496049  0.41891509  1
  H+  H299  1  0.27480864  0.78210353  0.77241069  1
  H+  H300  1  0.96429981  0.48896325  0.44105668  1
  H+  H301  1  0.10355624  0.41680509  0.09580376  1
  H+  H302  1  0.84253483  0.16807844  0.74859322  1
  H+  H303  1  0.87898107  0.56366491  0.24712246  1
  H+  H304  1  0.57629858  0.66512877  0.40218361  1
  H+  H305  1  0.08915146  0.91085182  0.72378538  1
  H+  H306  1  0.66585359  0.33955217  0.26384716  1
  H+  H307  1  0.61422144  0.47523277  0.67987512  1
  H+  H308  1  0.15979256  0.58453374  0.27322576  1
  H+  H309  1  0.16609643  0.83286488  0.25187779  1
  H+  H310  1  0.17231683  0.09850086  0.60154815  1
  H+  H311  1  0.07047603  0.41548732  0.77405305  1
  H+  H312  1  0.52780903  0.52394433  0.11589926  1
  H+  H313  1  0.64332617  0.08595407  0.90442671  1
  H+  H314  1  0.41108148  0.81071754  0.37135358  1
  H+  H315  1  0.32395145  0.91939222  0.07427425  1
  H+  H316  1  0.81229786  0.65474552  0.44967916  1
  H+  H317  1  0.40254338  0.83215971  0.94283350  1
  H+  H318  1  0.38575685  0.02509419  0.66016367  1
  H+  H319  1  0.67600841  0.85404498  0.90942933  1
  H+  H320  1  0.31912433  0.65038526  0.08118022  1
  H+  H321  1  0.06729710  0.18835849  0.17168793  1
  H+  H322  1  0.41290420  0.07815416  0.56901712  1
  H+  H323  1  0.38064558  0.77500399  0.49830668  1
  H+  H324  1  0.82399913  0.14417732  0.42019524  1
  H+  H325  1  0.66425051  0.32225438  0.89995820  1
  H+  H326  1  0.13402573  0.76623763  0.84276664  1
  H+  H327  1  0.96335785  0.80320835  0.51607288  1
  H+  H328  1  0.76658183  0.62571762  0.66814086  1
  H+  H329  1  0.32911871  0.92558222  0.39091621  1
  H+  H330  1  0.63730815  0.27262325  1.00188791  1
  H+  H331  1  0.92461589  0.58928115  0.61210883  1
  H+  H332  1  0.63193628  0.60703885  0.64562323  1
  H+  H333  1  0.64371958  0.98943611  0.33059158  1
  H+  H334  1  0.67610833  0.60082700  0.28009654  1
  H+  H335  1  0.68507063  0.84501345  0.55464803  1
  H+  H336  1  0.17124557  0.69938583  0.08842526  1
  H+  H337  1  0.26536022  0.89082199  0.16882029  1
  H+  H338  1  0.62823477  0.12170767  0.00756905  1
  H+  H339  1  0.17564866  0.09868367  0.89998167  1
  H+  H340  1  0.81999707  0.19005377  0.10812093  1
  H+  H341  1  0.85431989  0.92445841  0.74785208  1
  H+  H342  1  0.58742352  0.91880437  0.13079464  1
  H+  H343  1  0.18610641  0.62974379  0.57144541  1
  H+  H344  1  0.90721051  0.87154110  0.94742584  1
  H+  H345  1  0.80136413  0.66019000  0.75784325  1
  H+  H346  1  0.38485242  1.02766340  0.00214295  1
  H+  H347  1  0.91394380  0.82108951  0.59293374  1
  H+  H348  1  0.63893998  0.91065246  0.49531102  1
  H+  H349  1  0.11197066  0.23305119  0.48508019  1
  H+  H350  1  0.12547260  0.68985379  0.09118685  1
  H+  H351  1  0.08234113  0.65159459  0.74841349  1
  H+  H352  1  0.85879804  0.01194996  0.15082848  1
  H+  H353  1  0.84775727  0.53488851  0.92701025  1
  H+  H354  1  0.90237029  0.32070743  0.91809667  1
  H+  H355  1  0.93189479  0.83373015  0.26023993  1
  H+  H356  1  0.17106615  0.84267897  0.93207704  1
  H+  H357  1  0.86188493  0.47353373  0.67115639  1
  H+  H358  1  0.82403886  0.40068004  0.72229323  1
  H+  H359  1  0.16551079  0.07778555  0.26765210  1
  H+  H360  1  0.94154236  0.09376822  0.26167755  1
  H+  H361  1  0.64436515  0.70055366  0.74181927  1
  H+  H362  1  0.32815472  0.16024809  0.40169278  1
  H+  H363  1  0.82115079  0.68310807  0.10036767  1
  H+  H364  1  0.07744192  0.29318763  0.10076559  1
  H+  H365  1  0.98229416  0.11822149  0.64830259  1
  H+  H366  1  0.96877515  0.35999721  0.84162200  1
  H+  H367  1  0.83652296  0.42869075  0.39375561  1
  H+  H368  1  0.92765558  0.33651496  0.27562977  1
  H+  H369  1  0.56817797  0.16788785  0.76936759  1
  H+  H370  1  0.86565178  0.58252436  0.92652774  1
  H+  H371  1  0.83433953  0.92594160  0.23924830  1
  H+  H372  1  0.59430741  0.41586066  0.77273950  1
  H+  H373  1  0.36744230  0.23845796  0.82527593  1
  H+  H374  1  0.34840994  0.62424928  1.01963605  1
  H+  H375  1  0.51352734  0.89401690  -0.01217094  1
  H+  H376  1  0.32322470  0.89488348  0.71639497  1
  H+  H377  1  0.42431533  0.84353429  0.58607041  1
  H+  H378  1  0.09680237  0.22401069  0.07368928  1
  H+  H379  1  0.17055005  0.84906909  0.58566068  1
  H+  H380  1  0.08846906  0.68828414  0.43794817  1
  H+  H381  1  0.56776309  0.64352109  0.05651551  1
  H+  H382  1  0.40037164  0.57294717  0.55562239  1
  H+  H383  1  0.33900401  0.17693997  0.73135857  1
  O2-  O384  1  0.05750968  0.14881532  0.20655028  1
  O2-  O385  1  0.08933305  0.17240703  0.47097659  1
  O2-  O386  1  0.09963937  0.18119370  0.80433877  1
  O2-  O387  1  0.09817201  0.42463637  0.17758397  1
  O2-  O388  1  0.08825222  0.41313019  0.42855908  1
  O2-  O389  1  0.06730039  0.42287960  0.81867301  1
  O2-  O390  1  0.05069559  0.64466647  0.21929462  1
  O2-  O391  1  0.08039282  0.68764872  0.48272393  1
  O2-  O392  1  0.09119492  0.64761348  0.83334119  1
  O2-  O393  1  0.09128011  0.91902805  0.14748683  1
  O2-  O394  1  0.08767016  0.93629100  0.48950329  1
  O2-  O395  1  0.11771880  0.93740905  0.80998787  1
  O2-  O396  1  0.34119322  0.18128612  0.15750523  1
  O2-  O397  1  0.33994482  0.16328825  0.48400535  1
  O2-  O398  1  0.33774467  0.17867758  0.80925506  1
  O2-  O399  1  0.28761226  0.39786576  0.11669018  1
  O2-  O400  1  0.32285652  0.41250485  0.46381017  1
  O2-  O401  1  0.32516076  0.41730149  0.80977669  1
  O2-  O402  1  0.32528726  0.66279585  0.16415384  1
  O2-  O403  1  0.32887025  0.67139275  0.47671320  1
  O2-  O404  1  0.30950418  0.67201881  0.80284115  1
  O2-  O405  1  0.32692615  0.92142685  0.15394663  1
  O2-  O406  1  0.31786339  0.91492846  0.47877424  1
  O2-  O407  1  0.29857431  0.84251793  0.78351564  1
  O2-  O408  1  0.58553701  0.17225869  0.16080265  1
  O2-  O409  1  0.57782069  0.15840755  0.49614607  1
  O2-  O410  1  0.56959945  0.16817455  0.81494883  1
  O2-  O411  1  0.59275115  0.41414603  0.15272512  1
  O2-  O412  1  0.57700117  0.40479912  0.47078436  1
  O2-  O413  1  0.59366727  0.41149582  0.81886037  1
  O2-  O414  1  0.54197175  0.58203944  0.12706226  1
  O2-  O415  1  0.57869544  0.65784288  0.49033188  1
  O2-  O416  1  0.55930490  0.68121764  0.87222581  1
  O2-  O417  1  0.56660330  0.94935797  0.15558053  1
  O2-  O418  1  0.61609571  0.94977253  0.50048974  1
  O2-  O419  1  0.56752420  0.91310181  0.82338322  1
  O2-  O420  1  0.83024976  0.18171714  0.15089927  1
  O2-  O421  1  0.83925662  0.15562140  0.46398991  1
  O2-  O422  1  0.85193747  0.16220101  0.79164975  1
  O2-  O423  1  0.83315955  0.40626145  0.14377870  1
  O2-  O424  1  0.90642225  0.45855766  0.45778879  1
  O2-  O425  1  0.82206622  0.38724301  0.80264736  1
  O2-  O426  1  0.82645468  0.67906482  0.14492437  1
  O2-  O427  1  0.81777144  0.65525902  0.49379283  1
  O2-  O428  1  0.79077469  0.67164990  0.80211263  1
  O2-  O429  1  0.83532567  0.92060896  0.19491810  1
  O2-  O430  1  0.85310646  0.90776236  0.46347041  1
  O2-  O431  1  0.87034356  0.92854967  0.79172852  1
  O2-  O432  1  0.16789301  0.08265237  0.19198076  1
  O2-  O433  1  0.17463954  0.10020958  0.52245683  1
  O2-  O434  1  0.17711749  0.09851400  0.85462288  1
  O2-  O435  1  0.10552800  0.25970705  0.11076848  1
  O2-  O436  1  0.16052314  0.33877627  0.50631798  1
  O2-  O437  1  0.15848876  0.34493936  0.85075755  1
  O2-  O438  1  0.15215759  0.58400923  0.19174220  1
  O2-  O439  1  0.18045705  0.61667027  0.52608559  1
  O2-  O440  1  0.14426047  0.60603346  0.84199206  1
  O2-  O441  1  0.15858624  0.82940971  0.18394894  1
  O2-  O442  1  0.16484945  0.85250557  0.52263630  1
  O2-  O443  1  0.17162615  0.82866953  0.85118616  1
  O2-  O444  1  0.41865182  0.09312849  0.19300502  1
  O2-  O445  1  0.41316946  0.07661519  0.52343920  1
  O2-  O446  1  0.41367091  0.09052818  0.85821471  1
  O2-  O447  1  0.43240176  0.33808020  0.21423973  1
  O2-  O448  1  0.43629786  0.39404595  0.53676379  1
  O2-  O449  1  0.42196851  0.34475587  0.85517030  1
  O2-  O450  1  0.39456232  0.55580672  0.17401915  1
  O2-  O451  1  0.40882812  0.57628800  0.51047148  1
  O2-  O452  1  0.37773304  0.58165425  0.85419533  1
  O2-  O453  1  0.40543263  0.82871676  0.20077715  1
  O2-  O454  1  0.41277359  0.83933742  0.50324490  1
  O2-  O455  1  0.40440441  0.82147784  0.86248849  1
  O2-  O456  1  0.67995563  0.10338687  0.20577135  1
  O2-  O457  1  0.73479489  0.16568768  0.54778868  1
  O2-  O458  1  0.63409712  0.07138947  0.86088464  1
  O2-  O459  1  0.67342314  0.33510772  0.19573246  1
  O2-  O460  1  0.59019069  0.29914119  0.54011948  1
  O2-  O461  1  0.66250253  0.32236258  0.85466302  1
  O2-  O462  1  0.67882118  0.63808079  0.20968423  1
  O2-  O463  1  0.65274157  0.56259667  0.52105617  1
  O2-  O464  1  0.69967451  0.54025227  0.87381918  1
  O2-  O465  1  0.66236680  0.79274688  0.18272396  1
  O2-  O466  1  0.69035341  0.83919118  0.50987926  1
  O2-  O467  1  0.67300078  0.85191424  0.86465221  1
  O2-  O468  1  0.87117377  0.05494044  0.11827311  1
  O2-  O469  1  0.92439639  0.07421396  0.50544176  1
  O2-  O470  1  0.93473957  0.08418943  0.83194826  1
  O2-  O471  1  0.92560917  0.34388639  0.19760186  1
  O2-  O472  1  0.94453585  0.32628373  0.48049194  1
  O2-  O473  1  0.90711274  0.32089894  0.85526294  1
  O2-  O474  1  0.89057917  0.57342968  0.16624192  1
  O2-  O475  1  0.92159561  0.58918159  0.52935288  1
  O2-  O476  1  0.92398757  0.55211975  0.82375302  1
  O2-  O477  1  0.93006689  0.84271454  0.18628653  1
  O2-  O478  1  0.91221830  0.80774442  0.52339691  1
  O2-  O479  1  0.94833394  0.82370633  0.79979480  1
  O2-  O480  1  0.15934416  0.07239870  0.31330123  1
  O2-  O481  1  0.16943206  0.09793844  0.64674220  1
  O2-  O482  1  0.17308374  0.09144403  0.97998156  1
  O2-  O483  1  0.16394364  0.33114472  0.30580661  1
  O2-  O484  1  0.16733949  0.33743119  0.63654381  1
  O2-  O485  1  0.16586913  0.34361310  0.97364938  1
  O2-  O486  1  0.16074058  0.58854511  0.31814916  1
  O2-  O487  1  0.18344998  0.62775576  0.64473668  1
  O2-  O488  1  0.15273954  0.56405098  0.99257886  1
  O2-  O489  1  0.16837683  0.84082769  0.29873189  1
  O2-  O490  1  0.17510045  0.84210184  0.63386413  1
  O2-  O491  1  0.16103498  0.83366547  0.97668826  1
  O2-  O492  1  0.41789379  0.09631950  0.31036480  1
  O2-  O493  1  0.41462951  0.08592077  0.64632307  1
  O2-  O494  1  0.41791560  0.08889328  0.98853775  1
  O2-  O495  1  0.42055903  0.32715633  0.28036951  1
  O2-  O496  1  0.42138264  0.34307035  0.65142419  1
  O2-  O497  1  0.42586035  0.33111453  0.97939807  1
  O2-  O498  1  0.42185397  0.55841886  0.29091626  1
  O2-  O499  1  0.40529577  0.58507404  0.63346204  1
  O2-  O500  1  0.40842538  0.58499841  0.97299288  1
  O2-  O501  1  0.44977868  0.86699734  0.39072644  1
  O2-  O502  1  0.42003243  0.84248433  0.63115765  1
  O2-  O503  1  0.41737110  0.84517613  0.98651174  1
  O2-  O504  1  0.73059522  0.10402708  0.32083191  1
  O2-  O505  1  0.66300613  0.08885497  0.70123264  1
  O2-  O506  1  0.66115293  0.09615024  0.98820895  1
  O2-  O507  1  0.66205692  0.34282692  0.31088385  1
  O2-  O508  1  0.65478264  0.33237694  0.64703615  1
  O2-  O509  1  0.66882909  0.33054354  0.98192993  1
  O2-  O510  1  0.67220846  0.58386172  0.32428490  1
  O2-  O511  1  0.66210760  0.57337172  0.64221102  1
  O2-  O512  1  0.66194531  0.58166743  0.97602698  1
  O2-  O513  1  0.66207420  0.82435178  0.30354879  1
  O2-  O514  1  0.66966768  0.84556170  0.63443091  1
  O2-  O515  1  0.66502117  0.83617325  0.99567244  1
  O2-  O516  1  0.92064909  0.08883482  0.30354259  1
  O2-  O517  1  0.92391034  0.08432541  0.62960686  1
  O2-  O518  1  0.92885926  0.10052687  0.94720712  1
  O2-  O519  1  0.93082391  0.33016842  0.32056392  1
  O2-  O520  1  0.92467182  0.33443976  0.64641173  1
  O2-  O521  1  0.90267339  0.32006974  0.96765800  1
  O2-  O522  1  0.90877393  0.57371290  0.28719323  1
  O2-  O523  1  0.91798959  0.58530935  0.65714146  1
  O2-  O524  1  0.94556851  0.56370248  1.02138499  1
  O2-  O525  1  0.93661274  0.83318908  0.30589652  1
  O2-  O526  1  0.91575875  0.82898304  0.63990153  1
  O2-  O527  1  0.90746768  0.86679397  0.99162313  1
  O2-  O528  1  0.08734037  0.17602500  0.00401559  1
  O2-  O529  1  0.08411791  0.16458161  0.34947731  1
  O2-  O530  1  0.08702346  0.17722429  0.67802694  1
  O2-  O531  1  0.07953244  0.39632119  0.05466426  1
  O2-  O532  1  0.08409093  0.41392422  0.36158601  1
  O2-  O533  1  0.09443441  0.41362401  0.69707710  1
  O2-  O534  1  0.08922559  0.65964169  -0.03852281  1
  O2-  O535  1  0.09801510  0.68405422  0.35899557  1
  O2-  O536  1  0.07418890  0.65771247  0.70468031  1
  O2-  O537  1  0.08539066  0.92320022  0.02015545  1
  O2-  O538  1  0.08797833  0.91273455  0.33890963  1
  O2-  O539  1  0.06221884  0.86188612  0.69537331  1
  O2-  O540  1  0.33308285  0.17073801  0.03146214  1
  O2-  O541  1  0.32824375  0.16514888  0.35703644  1
  O2-  O542  1  0.33988587  0.17846328  0.68576056  1
  O2-  O543  1  0.34184543  0.42220132  -0.02283596  1
  O2-  O544  1  0.32934613  0.39645752  0.34191272  1
  O2-  O545  1  0.32947309  0.42172451  0.68530288  1
  O2-  O546  1  0.30992301  0.64315924  0.03670930  1
  O2-  O547  1  0.34033663  0.70083866  0.35478975  1
  O2-  O548  1  0.33607282  0.67855262  0.67285265  1
  O2-  O549  1  0.32666318  0.92182717  0.02878183  1
  O2-  O550  1  0.33148255  0.93599691  0.34680795  1
  O2-  O551  1  0.32995964  0.91283502  0.67259515  1
  O2-  O552  1  0.57966924  0.17272347  0.03585380  1
  O2-  O553  1  0.58418770  0.15549352  0.36322496  1
  O2-  O554  1  0.57391606  0.16765962  0.69179825  1
  O2-  O555  1  0.58792078  0.41420456  0.02504680  1
  O2-  O556  1  0.57591827  0.41100849  0.34829891  1
  O2-  O557  1  0.58563843  0.41656227  0.69835075  1
  O2-  O558  1  0.57622213  0.65865535  0.01261518  1
  O2-  O559  1  0.58007766  0.66372638  0.35747163  1
  O2-  O560  1  0.57906054  0.66676862  0.62439949  1
  O2-  O561  1  0.58013183  0.92578258  -0.01840220  1
  O2-  O562  1  0.59469169  0.93175792  0.32248538  1
  O2-  O563  1  0.57751519  0.91155805  0.69466410  1
  O2-  O564  1  0.81860177  0.16897843  0.02136000  1
  O2-  O565  1  0.81892907  0.15153357  0.33953937  1
  O2-  O566  1  0.83114551  0.16564288  0.64835610  1
  O2-  O567  1  0.83749069  0.39918037  0.02126583  1
  O2-  O568  1  0.81199137  0.42274742  0.35238751  1
  O2-  O569  1  0.82858375  0.40995527  0.67747555  1
  O2-  O570  1  0.82230776  0.69916252  0.01900653  1
  O2-  O571  1  0.86664318  0.66990598  0.35661351  1
  O2-  O572  1  0.82351749  0.65773766  0.68923365  1
  O2-  O573  1  0.83706649  0.96017230  0.01824775  1
  O2-  O574  1  0.82728605  0.92770592  0.33446834  1
  O2-  O575  1  0.83592157  0.91887802  0.67078552  1
