# generated using pymatgen
data_H2O
_symmetry_space_group_name_H-M   'P 1'
_cell_length_a   17.97189909
_cell_length_b   17.96288774
_cell_length_c   21.98895394
_cell_angle_alpha   89.99983630
_cell_angle_beta   89.98913574
_cell_angle_gamma   119.97883757
_symmetry_Int_Tables_number   1
_chemical_formula_structural   H2O
_chemical_formula_sum   'H384 O192'
_cell_volume   6148.90651313
_cell_formula_units_Z   192
loop_
 _symmetry_equiv_pos_site_id
 _symmetry_equiv_pos_as_xyz
  1  'x, y, z'
loop_
 _atom_type_symbol
 _atom_type_oxidation_number
  H+  1.0
  O2-  -2.0
loop_
 _atom_site_type_symbol
 _atom_site_label
 _atom_site_symmetry_multiplicity
 _atom_site_fract_x
 _atom_site_fract_y
 _atom_site_fract_z
 _atom_site_occupancy
  H+  H0  1  0.47274505  0.35893098  0.99151147  1
  H+  H1  1  0.86138927  0.63378025  1.00452843  1
  H+  H2  1  0.12133778  0.74635412  0.99378905  1
  H+  H3  1  0.63261187  0.10770619  0.82718692  1
  H+  H4  1  0.13433014  0.75007633  0.68184906  1
  H+  H5  1  0.15023656  0.91695359  0.16801360  1
  H+  H6  1  0.41881214  0.56569356  0.30424642  1
  H+  H7  1  0.02282854  0.38150798  0.00582518  1
  H+  H8  1  0.99492118  0.14451131  0.84630082  1
  H+  H9  1  0.86138967  0.75489175  0.64269732  1
  H+  H10  1  0.38970769  0.26660243  0.29698516  1
  H+  H11  1  0.27119618  0.89630836  0.49267645  1
  H+  H12  1  0.13665782  0.86554765  0.50201567  1
  H+  H13  1  0.39426514  0.09314852  0.60428661  1
  H+  H14  1  0.98354706  0.64933047  0.66303731  1
  H+  H15  1  0.59906540  0.37262181  0.67170378  1
  H+  H16  1  0.71370056  0.59699755  0.32701620  1
  H+  H17  1  0.83996392  0.52785804  0.50930884  1
  H+  H18  1  0.81517823  0.40950953  0.73772148  1
  H+  H19  1  0.91401205  0.82697954  0.21490192  1
  H+  H20  1  0.85469331  0.72773833  0.15142902  1
  H+  H21  1  0.13648239  0.50767622  0.99928482  1
  H+  H22  1  0.48861388  1.12425375  0.31698682  1
  H+  H23  1  0.10600954  0.60800056  0.00984383  1
  H+  H24  1  0.50527911  0.36407823  0.33594197  1
  H+  H25  1  0.60813496  0.10104404  0.50304469  1
  H+  H26  1  0.81325362  0.52490655  0.44068731  1
  H+  H27  1  0.20268640  0.32224826  0.83394513  1
  H+  H28  1  0.41279155  0.82433738  0.91354680  1
  H+  H29  1  0.14324517  0.76449378  0.32869496  1
  H+  H30  1  0.59657951  0.12846561  0.66730231  1
  H+  H31  1  0.27589233  0.61138170  0.55799112  1
  H+  H32  1  0.10481230  0.13364774  0.34749995  1
  H+  H33  1  0.77489114  0.69022495  0.50618638  1
  H+  H34  1  0.96439430  1.13009848  0.63962885  1
  H+  H35  1  0.65722170  0.01928773  0.13285094  1
  H+  H36  1  0.27987482  0.54816650  0.14781213  1
  H+  H37  1  0.35329305  0.59711376  0.82195503  1
  H+  H38  1  0.36156146  0.35428987  0.34211685  1
  H+  H39  1  0.88442254  0.85976998  0.30820533  1
  H+  H40  1  0.62350670  0.11021125  0.16006489  1
  H+  H41  1  0.65130269  0.79189642  0.50385393  1
  H+  H42  1  0.61983275  1.01999086  -0.02315734  1
  H+  H43  1  0.15535625  0.04768963  0.18361053  1
  H+  H44  1  0.01841188  0.66179438  0.17099981  1
  H+  H45  1  0.62995404  0.35794312  0.32835435  1
  H+  H46  1  0.22704944  0.60617421  0.17031547  1
  H+  H47  1  0.63213253  0.27080277  -0.00898429  1
  H+  H48  1  0.97467686  0.11212595  0.99769315  1
  H+  H49  1  0.15239472  0.36491524  -0.00604627  1
  H+  H50  1  0.10752998  0.48366291  0.15869689  1
  H+  H51  1  0.63543795  0.61826290  -0.01287628  1
  H+  H52  1  0.76525728  0.63786649  0.15610715  1
  H+  H53  1  0.86116406  -0.01696639  1.00432301  1
  H+  H54  1  0.40038194  0.61560804  0.99825625  1
  H+  H55  1  0.11966137  0.52162442  0.51944916  1
  H+  H56  1  0.64450066  0.77966183  0.64168980  1
  H+  H57  1  0.35938335  0.20689052  0.37719271  1
  H+  H58  1  0.25733294  0.87013926  0.34319512  1
  H+  H59  1  0.13238821  0.12160330  0.18635756  1
  H+  H60  1  0.36073776  0.44512098  0.49334084  1
  H+  H61  1  0.62619933  0.85894669  0.83055520  1
  H+  H62  1  0.38529545  0.86466408  0.49988398  1
  H+  H63  1  0.50386000  0.35206585  0.49124939  1
  H+  H64  1  0.87556186  0.51192775  0.98845621  1
  H+  H65  1  -0.02438275  0.78491765  0.06159207  1
  H+  H66  1  0.77385160  0.13319318  0.83417001  1
  H+  H67  1  0.13324906  0.26741600  0.32481295  1
  H+  H68  1  0.05106179  0.22260129  0.02530063  1
  H+  H69  1  0.35651347  0.14284120  0.68285386  1
  H+  H70  1  0.12730877  0.63371953  0.33327787  1
  H+  H71  1  0.69849257  0.34125912  0.16777493  1
  H+  H72  1  0.87914955  0.85803419  0.16024014  1
  H+  H73  1  0.37646748  0.66087517  0.29967259  1
  H+  H74  1  0.59879392  0.46160379  0.67285935  1
  H+  H75  1  0.28876070  0.61899643  0.52512248  1
  H+  H76  1  0.91493245  0.33699776  0.93473177  1
  H+  H77  1  0.60370273  0.46474388  0.83100533  1
  H+  H78  1  0.32647393  0.22392441  0.00461349  1
  H+  H79  1  0.81467695  0.47769181  0.69492554  1
  H+  H80  1  0.60546370  0.88258811  0.66930411  1
  H+  H81  1  0.86796252  0.46032523  0.14662784  1
  H+  H82  1  0.11284486  0.88160627  0.33506238  1
  H+  H83  1  0.62177963  0.14413934  0.33636772  1
  H+  H84  1  0.09796359  0.36840270  0.84123492  1
  H+  H85  1  0.74821391  0.32351219  0.48902745  1
  H+  H86  1  0.01976727  0.92939517  0.65498478  1
  H+  H87  1  0.34918836  0.86630390  0.00585136  1
  H+  H88  1  0.06630895  0.17024167  0.39833174  1
  H+  H89  1  0.63296943  1.01814621  0.82864284  1
  H+  H90  1  0.71417566  0.54349140  0.50307485  1
  H+  H91  1  0.04038122  0.90442305  0.48774530  1
  H+  H92  1  1.03774063  0.38324050  0.65051648  1
  H+  H93  1  0.25991694  0.86644861  0.00447698  1
  H+  H94  1  0.35525842  0.37774849  0.82943321  1
  H+  H95  1  0.51582823  0.83620957  0.19588619  1
  H+  H96  1  0.37988319  0.48991077  0.00459808  1
  H+  H97  1  0.36158633  0.50300058  0.15361910  1
  H+  H98  1  0.38327751  0.60391911  0.65087434  1
  H+  H99  1  0.93240389  0.93632827  0.65127059  1
  H+  H100  1  0.64099713  0.76606021  0.98377136  1
  H+  H101  1  0.85886109  0.38120261  0.83001161  1
  H+  H102  1  0.14572917  0.62732477  0.16933013  1
  H+  H103  1  0.10155416  0.13015586  -0.01267966  1
  H+  H104  1  0.85393566  0.93943704  0.72371017  1
  H+  H105  1  0.23404868  0.35668193  0.51215440  1
  H+  H106  1  0.35620964  0.22509505  0.83431079  1
  H+  H107  1  0.35617101  0.46653316  0.83127628  1
  H+  H108  1  0.86238738  0.99621448  0.66491283  1
  H+  H109  1  0.91122646  1.00568614  0.82382594  1
  H+  H110  1  0.46434701  0.11396741  0.65741450  1
  H+  H111  1  0.39039072  0.01622726  0.98420026  1
  H+  H112  1  0.63209190  0.59911903  0.64128133  1
  H+  H113  1  0.47385334  0.65660403  0.22135748  1
  H+  H114  1  0.39221394  0.12466002  0.16215530  1
  H+  H115  1  -0.02902780  0.85498625  0.31223505  1
  H+  H116  1  0.59594282  0.73969385  0.36407638  1
  H+  H117  1  0.86784325  0.14130180  0.83666808  1
  H+  H118  1  0.63261494  0.35634864  0.84048356  1
  H+  H119  1  0.37390007  0.62453430  0.20601611  1
  H+  H120  1  0.77915202  0.88737433  0.00006581  1
  H+  H121  1  0.37882403  0.10922037  0.83354874  1
  H+  H122  1  0.79070828  0.13479648  0.16031152  1
  H+  H123  1  0.58942182  0.66510305  0.57914901  1
  H+  H124  1  0.84432552  0.66732825  0.48783082  1
  H+  H125  1  0.61909737  1.01537826  0.65620328  1
  H+  H126  1  0.10963779  0.94531809  0.73601701  1
  H+  H127  1  0.37147659  0.47160788  0.67567047  1
  H+  H128  1  0.52634370  0.88205501  0.19247901  1
  H+  H129  1  0.14039516  0.61018940  0.84916467  1
  H+  H130  1  0.04033271  0.51762579  0.54655168  1
  H+  H131  1  0.97687816  0.35991561  0.17141409  1
  H+  H132  1  0.07535351  1.03313769  -0.02595222  1
  H+  H133  1  0.10681206  0.82387288  1.00666994  1
  H+  H134  1  0.22604094  0.62147743  0.66140461  1
  H+  H135  1  0.86349626  0.85707178  0.85375615  1
  H+  H136  1  0.23372159  0.60808966  0.31515560  1
  H+  H137  1  0.63395915  1.02731360  0.31266181  1
  H+  H138  1  0.49801630  0.09517990  0.14422746  1
  H+  H139  1  0.21606241  0.86196483  0.84308778  1
  H+  H140  1  0.85807177  0.17574993  0.06758073  1
  H+  H141  1  0.85999649  0.37137215  0.33590141  1
  H+  H142  1  0.39030366  0.39150156  0.18125970  1
  H+  H143  1  0.49696771  0.62527895  0.98833549  1
  H+  H144  1  0.46817127  0.35614091  0.84155011  1
  H+  H145  1  0.16712589  0.33604624  0.23144836  1
  H+  H146  1  0.62568133  0.53506181  0.16366992  1
  H+  H147  1  0.36061512  0.97961123  0.66992386  1
  H+  H148  1  0.60957477  0.89444667  0.48179998  1
  H+  H149  1  0.97085766  0.11019203  0.32403096  1
  H+  H150  1  0.02835713  0.38472225  0.33792493  1
  H+  H151  1  0.14532891  0.36452572  0.60848780  1
  H+  H152  1  0.32728242  0.63682872  0.08185793  1
  H+  H153  1  0.88708481  0.51792799  0.83588063  1
  H+  H154  1  0.40287758  0.59739030  0.49180109  1
  H+  H155  1  0.60425166  0.98041387  0.48335895  1
  H+  H156  1  0.67234136  0.83244971  0.92656647  1
  H+  H157  1  0.61174852  0.13925344  0.99263039  1
  H+  H158  1  0.21859820  0.10343643  0.34241237  1
  H+  H159  1  0.97531192  0.68259920  0.49289466  1
  H+  H160  1  0.97603109  0.10200388  0.17030755  1
  H+  H161  1  0.71288534  0.35641600  0.65927753  1
  H+  H162  1  -0.02895545  0.35934573  0.84683476  1
  H+  H163  1  0.52578369  0.63695070  0.63490856  1
  H+  H164  1  0.35701605  0.97229209  0.82347132  1
  H+  H165  1  0.41467492  0.73855531  0.46810138  1
  H+  H166  1  0.87482451  1.06189118  0.49949676  1
  H+  H167  1  0.37301160  0.26085693  0.67793407  1
  H+  H168  1  0.37753396  0.36845710  0.67647174  1
  H+  H169  1  0.66648417  0.35694700  0.23055184  1
  H+  H170  1  0.84561128  0.73004171  0.33214945  1
  H+  H171  1  0.36084739  0.72298263  0.66803780  1
  H+  H172  1  0.51483158  0.64407984  0.37424599  1
  H+  H173  1  0.83890455  0.16387872  0.48725577  1
  H+  H174  1  0.51618421  0.89314729  0.32626178  1
  H+  H175  1  0.23687075  0.86768146  0.17749990  1
  H+  H176  1  0.88746955  0.62503293  0.66333312  1
  H+  H177  1  0.99960876  0.16018275  0.48790717  1
  H+  H178  1  0.56960162  0.15908313  0.42834795  1
  H+  H179  1  0.38225109  0.86086803  0.65307376  1
  H+  H180  1  0.81258920  0.79172857  0.90712558  1
  H+  H181  1  0.88014486  0.27134385  0.84625709  1
  H+  H182  1  0.17923177  0.83369484  0.27219750  1
  H+  H183  1  0.83038737  0.31232802  0.15766128  1
  H+  H184  1  0.76577324  0.88062501  0.16309853  1
  H+  H185  1  0.75107706  0.11036196  0.68711549  1
  H+  H186  1  0.22174521  0.37203208  0.17032016  1
  H+  H187  1  0.63407851  0.86148237  0.32034754  1
  H+  H188  1  0.87446551  0.12179679  0.16340630  1
  H+  H189  1  0.47059208  0.84549505  0.99826929  1
  H+  H190  1  0.72467354  0.61425338  0.99167107  1
  H+  H191  1  0.96897930  0.59391812  0.99102915  1
  H+  H192  1  0.63421789  0.36288213  0.99211326  1
  H+  H193  1  0.10900197  0.90679570  0.82647708  1
  H+  H194  1  0.27357859  0.61748885  0.02006812  1
  H+  H195  1  0.34778555  0.84307127  0.17152785  1
  H+  H196  1  0.23395207  0.86690496  0.66433293  1
  H+  H197  1  0.39184967  0.37231378  -0.00545628  1
  H+  H198  1  0.77208379  0.87787766  0.32757768  1
  H+  H199  1  0.90270261  0.25978959  0.17487018  1
  H+  H200  1  0.73031070  0.87110892  0.65568964  1
  H+  H201  1  0.60940942  0.87480231  -0.00924501  1
  H+  H202  1  0.23253674  0.14610072  1.01413208  1
  H+  H203  1  0.89757653  0.38339781  0.50670098  1
  H+  H204  1  0.46912001  0.10987319  0.82857851  1
  H+  H205  1  0.13203902  0.64801233  0.68005800  1
  H+  H206  1  0.06858809  0.63407487  0.06724162  1
  H+  H207  1  0.61042332  0.22224223  0.82407176  1
  H+  H208  1  0.11623570  0.22153900  0.61827464  1
  H+  H209  1  0.52308922  0.13845041  0.99377330  1
  H+  H210  1  0.86956814  0.11379378  0.66073103  1
  H+  H211  1  0.60096344  0.22017216  0.66736204  1
  H+  H212  1  0.47654629  0.60548847  0.84012770  1
  H+  H213  1  0.51282701  0.87625412  0.66715671  1
  H+  H214  1  0.01017140  0.86784243  0.02241218  1
  H+  H215  1  0.90313890  0.82354614  0.50977112  1
  H+  H216  1  0.88528991  0.36550794  0.99508356  1
  H+  H217  1  0.76882334  0.38052199  0.83101880  1
  H+  H218  1  0.70196023  0.11305714  0.49779774  1
  H+  H219  1  0.88914616  0.11761177  0.99223742  1
  H+  H220  1  0.74599225  0.57637276  0.68565931  1
  H+  H221  1  0.10957327  -0.03049511  0.33809088  1
  H+  H222  1  0.35453351  0.97751951  0.15222081  1
  H+  H223  1  0.78420771  0.92251840  0.49303048  1
  H+  H224  1  0.36621484  0.31370534  0.51257920  1
  H+  H225  1  0.07252067  0.16756415  0.09800733  1
  H+  H226  1  0.27438757  0.36338898  0.34503641  1
  H+  H227  1  0.46930679  0.35420336  0.67121750  1
  H+  H228  1  0.14527055  0.78200260  0.18567230  1
  H+  H229  1  0.14626279  0.86999003  0.66913207  1
  H+  H230  1  0.60888394  0.40569124  0.15544828  1
  H+  H231  1  0.35019151  0.75469188  0.17619964  1
  H+  H232  1  0.82935702  0.75737765  0.66326831  1
  H+  H233  1  0.61188736  0.47514568  0.00244147  1
  H+  H234  1  0.38961569  0.76932698  0.85392266  1
  H+  H235  1  0.14165708  0.36015570  0.32586128  1
  H+  H236  1  0.80731036  0.16816170  0.42123557  1
  H+  H237  1  0.16030763  1.00064232  0.67704768  1
  H+  H238  1  0.38165592  0.77803434  0.32344002  1
  H+  H239  1  0.35333235  0.99015366  0.47820001  1
  H+  H240  1  0.92560705  0.91837030  0.99317960  1
  H+  H241  1  0.65443060  0.87172896  0.18098855  1
  H+  H242  1  0.72323686  0.36299743  0.32523594  1
  H+  H243  1  0.88342087  0.00977059  0.17025500  1
  H+  H244  1  0.15891135  0.74622374  0.48517053  1
  H+  H245  1  0.98605498  0.59724173  0.33217966  1
  H+  H246  1  0.85829994  0.12933076  0.33412876  1
  H+  H247  1  0.51809679  0.40328080  0.15657117  1
  H+  H248  1  0.12541891  0.39945489  0.49070204  1
  H+  H249  1  0.13536098  0.64902102  0.49395762  1
  H+  H250  1  0.22243419  0.59767804  0.84461903  1
  H+  H251  1  0.71507950  0.59426723  0.84410003  1
  H+  H252  1  0.71646842  0.86508642  0.82377711  1
  H+  H253  1  0.10063961  0.22362956  0.15987388  1
  H+  H254  1  0.16132648  0.28242924  0.99328232  1
  H+  H255  1  0.61321048  0.24722306  0.50533400  1
  H+  H256  1  0.47704026  0.87209675  0.49849599  1
  H+  H257  1  0.51757537  0.88217493  0.82893794  1
  H+  H258  1  -0.00539873  0.40000568  0.50592746  1
  H+  H259  1  0.86055756  0.62741337  0.83589170  1
  H+  H260  1  0.61893305  0.75278912  0.18261496  1
  H+  H261  1  0.61574653  0.47734608  0.50085007  1
  H+  H262  1  0.75835531  0.37769280  0.00285522  1
  H+  H263  1  0.90188671  0.37775583  0.66706411  1
  H+  H264  1  0.77030002  0.13313955  0.32870886  1
  H+  H265  1  0.05799076  0.05245875  0.62480038  1
  H+  H266  1  -0.02710137  0.65372956  0.46729502  1
  H+  H267  1  0.62030647  0.60759311  0.49469061  1
  H+  H268  1  0.60503357  0.62548625  0.82979139  1
  H+  H269  1  0.11152081  0.72465038  0.83433310  1
  H+  H270  1  0.39020262  0.25828731  0.15568086  1
  H+  H271  1  0.79681162  0.27226904  0.46834228  1
  H+  H272  1  0.49316627  0.12995803  0.47728045  1
  H+  H273  1  0.13976684  0.14205128  0.83642769  1
  H+  H274  1  0.16244627  0.16483177  0.48746891  1
  H+  H275  1  0.89432965  0.64437675  0.18683188  1
  H+  H276  1  0.60518364  0.71395942  0.82498331  1
  H+  H277  1  0.87942528  0.23622347  1.00880116  1
  H+  H278  1  0.39592996  0.11201000  0.32472331  1
  H+  H279  1  0.88314992  0.50738598  0.15149859  1
  H+  H280  1  0.10042455  0.68007921  0.74556863  1
  H+  H281  1  0.47936115  0.58298869  0.50751937  1
  H+  H282  1  0.62046137  0.23341360  0.33785316  1
  H+  H283  1  1.02584845  0.63169096  0.82835207  1
  H+  H284  1  0.62742015  0.62363728  0.17917474  1
  H+  H285  1  0.39779892  0.49222885  0.35346024  1
  H+  H286  1  0.67135780  0.85180572  0.56138510  1
  H+  H287  1  0.59810099  0.45390109  0.34045738  1
  H+  H288  1  0.66604607  0.82585684  0.26594848  1
  H+  H289  1  0.17960143  0.14274397  0.55091322  1
  H+  H290  1  0.65640806  0.57023655  0.90329655  1
  H+  H291  1  0.93128778  0.36519893  0.60306720  1
  H+  H292  1  0.17204898  0.57589503  0.94417672  1
  H+  H293  1  0.35707877  0.88371642  0.82922942  1
  H+  H294  1  0.81903745  0.37728673  0.39754390  1
  H+  H295  1  0.40517553  0.56314329  0.59342237  1
  H+  H296  1  0.37356727  0.17987384  0.52429872  1
  H+  H297  1  0.14585269  0.58463795  0.61187821  1
  H+  H298  1  0.32472851  0.90996725  0.40721943  1
  H+  H299  1  0.11182680  0.39582696  0.16299667  1
  H+  H300  1  0.40972992  0.33179771  0.90197505  1
  H+  H301  1  0.32368658  0.37844329  0.43786348  1
  H+  H302  1  0.09650960  0.42606147  0.42865881  1
  H+  H303  1  0.56789193  0.90588624  0.76396629  1
  H+  H304  1  0.36440140  0.66902639  0.37181395  1
  H+  H305  1  0.90193893  0.50328059  0.56374650  1
  H+  H306  1  0.62285909  0.33934762  0.50125617  1
  H+  H307  1  0.95475235  0.88637583  0.93687104  1
  H+  H308  1  0.40652086  0.30727592  0.57393741  1
  H+  H309  1  0.15456594  0.83057688  0.90157370  1
  H+  H310  1  0.34509032  0.19479748  0.09975077  1
  H+  H311  1  0.85980051  0.96743724  0.32691312  1
  H+  H312  1  0.65497141  0.08133294  0.91996343  1
  H+  H313  1  0.26976670  0.54168715  0.78378125  1
  H+  H314  1  0.57675655  0.92328376  0.38438632  1
  H+  H315  1  0.65878853  0.54937887  0.59493884  1
  H+  H316  1  0.71673549  0.98647949  0.10822944  1
  H+  H317  1  0.09460874  0.24033166  0.48886601  1
  H+  H318  1  0.57840645  0.16633000  0.76224679  1
  H+  H319  1  0.39107924  0.83285361  0.26585000  1
  H+  H320  1  0.08042403  0.40928877  0.06645652  1
  H+  H321  1  0.82445904  0.91405879  0.09900110  1
  H+  H322  1  0.88928195  0.26587349  0.32610458  1
  H+  H323  1  0.57873819  0.41602651  0.06140929  1
  H+  H324  1  0.92112055  0.32521473  0.26701469  1
  H+  H325  1  0.91988329  0.54605239  0.58016040  1
  H+  H326  1  0.59732517  0.92324149  0.04634712  1
  H+  H327  1  0.41010237  0.82930725  0.59299503  1
  H+  H328  1  0.92838564  0.61218097  0.24565509  1
  H+  H329  1  0.81064348  0.69888613  0.39834607  1
  H+  H330  1  0.76661863  0.27353577  0.10108810  1
  H+  H331  1  0.33084210  0.65348426  0.72387711  1
  H+  H332  1  0.95367258  0.90071295  0.55783172  1
  H+  H333  1  0.84512352  0.70852806  0.83797343  1
  H+  H334  1  0.32789547  0.17172616  0.74437057  1
  H+  H335  1  0.12612813  0.46909913  0.65659075  1
  H+  H336  1  0.82987201  0.66135279  0.06400247  1
  H+  H337  1  0.14863513  0.10000995  0.89722350  1
  H+  H338  1  0.91737836  0.57445491  0.89656583  1
  H+  H339  1  0.32358442  0.91276805  0.09403822  1
  H+  H340  1  0.80231182  0.60803556  0.74671072  1
  H+  H341  1  0.66375907  0.32797577  0.89971252  1
  H+  H342  1  0.95493068  0.95612292  0.79524189  1
  H+  H343  1  0.34721384  0.12638440  0.41533498  1
  H+  H344  1  0.11684266  0.67300110  0.39568933  1
  H+  H345  1  0.09405003  0.91985754  0.11530200  1
  H+  H346  1  0.16498006  0.83637516  0.56429664  1
  H+  H347  1  0.41882116  0.58178459  0.90163525  1
  H+  H348  1  0.81679249  0.41344915  0.06298246  1
  H+  H349  1  0.10653960  0.46121464  0.84779723  1
  H+  H350  1  0.33920901  0.41429770  0.73933102  1
  H+  H351  1  0.11802334  0.47401425  0.33266406  1
  H+  H352  1  0.42236490  0.35710551  0.23916485  1
  H+  H353  1  0.71498386  0.18606317  0.17773620  1
  H+  H354  1  0.65941204  0.56338609  0.26633260  1
  H+  H355  1  0.59625831  0.67242816  0.04607609  1
  H+  H356  1  0.57514505  0.40499078  0.77119320  1
  H+  H357  1  0.66864064  0.09690495  0.25745410  1
  H+  H358  1  0.89784273  0.11903350  0.55827712  1
  H+  H359  1  0.33898438  0.43983506  0.09657807  1
  H+  H360  1  0.54677324  0.68133775  0.13538170  1
  H+  H361  1  0.38294882  0.75422463  1.00674846  1
  H+  H362  1  0.33609760  0.91896706  0.72963227  1
  H+  H363  1  0.59038502  0.66557797  0.45457734  1
  H+  H364  1  0.92968217  0.09363555  0.90218365  1
  H+  H365  1  0.41585041  0.07208167  0.92389968  1
  H+  H366  1  0.55958141  0.12635256  0.08469513  1
  H+  H367  1  0.91374332  0.07814216  0.26334490  1
  H+  H368  1  0.11590876  0.99949955  0.82432520  1
  H+  H369  1  0.08952523  0.90867908  0.42695246  1
  H+  H370  1  0.87945952  0.93835185  0.49107401  1
  H+  H371  1  0.26394859  0.13976961  0.83251370  1
  H+  H372  1  0.16784466  0.58007062  0.25918497  1
  H+  H373  1  0.28857679  0.39974083  0.00654927  1
  H+  H374  1  0.81549232  0.13959063  0.74520281  1
  H+  H375  1  0.16522628  0.08858449  0.27995406  1
  H+  H376  1  0.55983151  0.38581950  0.42738382  1
  H+  H377  1  0.07512083  0.72450002  0.11627690  1
  H+  H378  1  0.35753777  0.87813883  0.34184493  1
  H+  H379  1  0.65516786  0.32091058  0.59759358  1
  H+  H380  1  0.89547187  0.50978657  0.33045268  1
  H+  H381  1  0.65065983  0.07689262  0.59802959  1
  H+  H382  1  0.41200224  0.08652261  0.22260139  1
  H+  H383  1  0.47349713  0.70910886  0.43154144  1
  O2-  O384  1  0.07338634  0.16366991  0.14531661  1
  O2-  O385  1  0.05915713  0.18242004  0.47135482  1
  O2-  O386  1  0.09977979  0.21188909  0.82189603  1
  O2-  O387  1  0.07876823  0.42199580  0.14502803  1
  O2-  O388  1  0.09722548  0.43029641  0.47423864  1
  O2-  O389  1  0.07233831  0.40370809  0.82947083  1
  O2-  O390  1  0.07513496  0.68237863  0.14429658  1
  O2-  O391  1  0.15852135  0.69680263  0.46443798  1
  O2-  O392  1  0.08838398  0.66576382  0.81619989  1
  O2-  O393  1  0.13986572  0.95699351  0.14369152  1
  O2-  O394  1  0.09600875  0.91293999  0.47210708  1
  O2-  O395  1  0.08751447  0.94084309  0.80530946  1
  O2-  O396  1  0.38556094  0.20797127  0.13410108  1
  O2-  O397  1  0.36319166  0.12075813  0.53229545  1
  O2-  O398  1  0.32493229  0.16448992  0.81833805  1
  O2-  O399  1  0.33091177  0.44242079  0.14229044  1
  O2-  O400  1  0.32365871  0.38308689  0.48420703  1
  O2-  O401  1  0.32493824  0.40780303  0.81286423  1
  O2-  O402  1  0.30743580  0.61028501  0.15281616  1
  O2-  O403  1  0.41430565  0.69002972  0.44667272  1
  O2-  O404  1  0.30601669  0.60094915  0.79750289  1
  O2-  O405  1  0.32532760  0.91536623  0.13954699  1
  O2-  O406  1  0.33046731  0.92588710  0.47405275  1
  O2-  O407  1  0.32576282  0.91000590  0.81031146  1
  O2-  O408  1  0.54813522  0.09516431  0.12422034  1
  O2-  O409  1  0.55706170  0.15162782  0.47329161  1
  O2-  O410  1  0.57851886  0.16224135  0.80758451  1
  O2-  O411  1  0.57591709  0.43095468  0.13614034  1
  O2-  O412  1  0.56311692  0.38406060  0.47404781  1
  O2-  O413  1  0.57408857  0.40324140  0.81642705  1
  O2-  O414  1  0.56943910  0.68492448  0.17606910  1
  O2-  O415  1  0.59640262  0.64703850  0.49690996  1
  O2-  O416  1  0.57236910  0.65261489  0.81380945  1
  O2-  O417  1  0.65657331  0.96863065  0.11527540  1
  O2-  O418  1  0.57618489  0.92063141  0.46560150  1
  O2-  O419  1  0.57510240  0.90918974  0.80932310  1
  O2-  O420  1  0.85113562  0.16039230  0.14758285  1
  O2-  O421  1  0.79797120  0.17749898  0.46497291  1
  O2-  O422  1  0.83520792  0.16914625  0.82156373  1
  O2-  O423  1  0.77085663  0.29500544  0.14235205  1
  O2-  O424  1  0.80148760  0.33036703  0.46942906  1
  O2-  O425  1  0.82891257  0.41212994  0.81450110  1
  O2-  O426  1  0.82562351  0.66362084  0.14107339  1
  O2-  O427  1  0.83134067  0.71453247  0.48738715  1
  O2-  O428  1  0.82220348  0.64968823  0.82193891  1
  O2-  O429  1  0.82739702  0.91529474  0.14413542  1
  O2-  O430  1  0.84378008  0.96482749  0.48208347  1
  O2-  O431  1  0.89843713  0.94927253  0.80398911  1
  O2-  O432  1  0.16592342  0.09924406  0.20734389  1
  O2-  O433  1  0.20857259  0.16644339  0.51202809  1
  O2-  O434  1  0.15939386  0.10201419  0.85169307  1
  O2-  O435  1  0.16213039  0.34059906  0.18625552  1
  O2-  O436  1  0.17245963  0.34118638  0.52551772  1
  O2-  O437  1  0.14315109  0.29357763  0.85042414  1
  O2-  O438  1  0.16330472  0.58706924  0.18441432  1
  O2-  O439  1  0.10330362  0.55774829  0.54426431  1
  O2-  O440  1  0.16761557  0.57864119  0.86673371  1
  O2-  O441  1  0.18062349  0.84153441  0.20074653  1
  O2-  O442  1  0.17153503  0.83905768  0.51984123  1
  O2-  O443  1  0.15487753  0.83228547  0.85624346  1
  O2-  O444  1  0.40500879  0.07937298  0.17738219  1
  O2-  O445  1  0.38801696  0.09561569  0.47497492  1
  O2-  O446  1  0.40821086  0.07562660  0.84258999  1
  O2-  O447  1  0.42368714  0.36384885  0.19279720  1
  O2-  O448  1  0.40563921  0.29542968  0.53003430  1
  O2-  O449  1  0.40726919  0.32835518  0.85587198  1
  O2-  O450  1  0.41547204  0.63031866  0.23992798  1
  O2-  O451  1  0.41691585  0.55857321  0.51524505  1
  O2-  O452  1  0.41480173  0.57487933  0.85592012  1
  O2-  O453  1  0.35188562  0.80153684  0.19946091  1
  O2-  O454  1  0.41683170  0.83570634  0.51416279  1
  O2-  O455  1  0.41523657  0.82879279  0.86737406  1
  O2-  O456  1  0.68095857  0.12261390  0.18175106  1
  O2-  O457  1  0.64411519  0.07607381  0.51721156  1
  O2-  O458  1  0.66422075  0.07894289  0.84271518  1
  O2-  O459  1  0.67235341  0.37206754  0.18665506  1
  O2-  O460  1  0.65118579  0.30856536  0.51933389  1
  O2-  O461  1  0.66424495  0.32650340  0.85405075  1
  O2-  O462  1  0.65991157  0.59256425  0.18352410  1
  O2-  O463  1  0.65873482  0.53779251  0.51607894  1
  O2-  O464  1  0.65381239  0.56601008  0.85718164  1
  O2-  O465  1  0.67960843  0.83739087  0.19442044  1
  O2-  O466  1  0.66977436  0.85105454  0.51575292  1
  O2-  O467  1  0.66084383  0.83132940  0.84338040  1
  O2-  O468  1  0.91519008  0.07105553  0.18676261  1
  O2-  O469  1  0.89872548  0.12402496  0.51287004  1
  O2-  O470  1  0.93422162  0.09889229  0.85633295  1
  O2-  O471  1  0.91849467  0.31941219  0.18852847  1
  O2-  O472  1  0.95210318  0.40704533  0.53042616  1
  O2-  O473  1  0.90906189  0.33268678  0.86041741  1
  O2-  O474  1  0.94440810  0.64453753  0.20645025  1
  O2-  O475  1  0.81032599  0.54621666  0.48088818  1
  O2-  O476  1  0.92080223  0.57889323  0.85089356  1
  O2-  O477  1  0.90870967  0.82497380  0.16960491  1
  O2-  O478  1  0.94066341  0.88643045  0.51397409  1
  O2-  O479  1  0.86126805  0.81042282  0.87954854  1
  O2-  O480  1  0.15991651  0.07910223  0.32590116  1
  O2-  O481  1  0.11163759  0.11083534  0.62319075  1
  O2-  O482  1  0.12289799  0.09259337  0.96839772  1
  O2-  O483  1  0.16927955  0.32798307  0.30949885  1
  O2-  O484  1  0.17235184  0.33028260  0.59157820  1
  O2-  O485  1  0.19124563  0.34360435  0.98126278  1
  O2-  O486  1  0.17140138  0.57593913  0.30471322  1
  O2-  O487  1  0.16208473  0.59567279  0.65645510  1
  O2-  O488  1  0.16820859  0.57112293  0.98943894  1
  O2-  O489  1  0.17361367  0.82823628  0.31818295  1
  O2-  O490  1  0.17029759  0.83311024  0.65455476  1
  O2-  O491  1  0.14513522  0.80811533  0.98385039  1
  O2-  O492  1  0.43014785  0.09539044  0.29904782  1
  O2-  O493  1  0.40114556  0.08354539  0.64794224  1
  O2-  O494  1  0.42342807  0.07539330  0.96861559  1
  O2-  O495  1  0.41599391  0.32668957  0.30880012  1
  O2-  O496  1  0.40619694  0.32584088  0.65912411  1
  O2-  O497  1  0.41293124  0.33526926  0.97605404  1
  O2-  O498  1  0.43216529  0.55535035  0.34570496  1
  O2-  O499  1  0.41264110  0.57170671  0.63854160  1
  O2-  O500  1  0.43134379  0.59023373  0.97681803  1
  O2-  O501  1  0.40602119  0.84012093  0.31081186  1
  O2-  O502  1  0.40876478  0.82663532  0.63870383  1
  O2-  O503  1  0.40739993  0.81264339  0.98797603  1
  O2-  O504  1  0.66838868  0.09004901  0.30264918  1
  O2-  O505  1  0.64855869  0.07675940  0.64340715  1
  O2-  O506  1  0.64932215  0.08101407  0.96500526  1
  O2-  O507  1  0.66328445  0.33237963  0.30932678  1
  O2-  O508  1  0.65251882  0.32360506  0.64305615  1
  O2-  O509  1  0.66560854  0.33307004  0.97677773  1
  O2-  O510  1  0.65803692  0.55100536  0.31021256  1
  O2-  O511  1  0.65519222  0.55905028  0.63937650  1
  O2-  O512  1  0.66402417  0.58159075  0.97695041  1
  O2-  O513  1  0.65837090  0.82364156  0.31261839  1
  O2-  O514  1  0.67064449  0.84340076  0.63932377  1
  O2-  O515  1  0.67346642  0.83136025  0.97151209  1
  O2-  O516  1  0.91021707  0.08043126  0.30873160  1
  O2-  O517  1  0.90208368  0.09572570  0.63184076  1
  O2-  O518  1  0.91538215  0.08230811  0.97711941  1
  O2-  O519  1  0.92140750  0.32762044  0.31244285  1
  O2-  O520  1  0.92987562  0.34973068  0.64674572  1
  O2-  O521  1  0.92036449  0.34040486  0.98062032  1
  O2-  O522  1  0.92644033  0.57018997  0.31672474  1
  O2-  O523  1  0.93917662  0.64813234  0.63691850  1
  O2-  O524  1  0.91069966  0.57183137  0.97289178  1
  O2-  O525  1  0.91287949  0.82614375  0.29377028  1
  O2-  O526  1  0.98553608  0.94653769  0.62924151  1
  O2-  O527  1  0.97722707  0.91909212  0.97487595  1
  O2-  O528  1  0.06555977  0.17738693  0.02906026  1
  O2-  O529  1  0.07300580  0.16560657  0.35315019  1
  O2-  O530  1  0.08042433  0.16834353  0.64273060  1
  O2-  O531  1  0.08326860  0.40676930  0.02114752  1
  O2-  O532  1  0.08952102  0.41549071  0.35183488  1
  O2-  O533  1  0.10143831  0.40785350  0.64776411  1
  O2-  O534  1  0.06974543  0.63425668  0.02230583  1
  O2-  O535  1  0.10000774  0.66549123  0.35126109  1
  O2-  O536  1  0.10585760  0.68568084  0.69888265  1
  O2-  O537  1  0.02955230  0.83520255  0.04899675  1
  O2-  O538  1  0.07770174  0.90685447  0.34879463  1
  O2-  O539  1  0.11777895  0.94267349  0.68994230  1
  O2-  O540  1  0.29186441  0.17170389  0.02891384  1
  O2-  O541  1  0.33148407  0.14420517  0.37602522  1
  O2-  O542  1  0.33063080  0.17679254  0.69851589  1
  O2-  O543  1  0.34884138  0.43119983  0.02396430  1
  O2-  O544  1  0.33019984  0.38200490  0.36546083  1
  O2-  O545  1  0.34541421  0.41262513  0.69343174  1
  O2-  O546  1  0.33349043  0.64816707  0.03595684  1
  O2-  O547  1  0.34391371  0.67424704  0.33087083  1
  O2-  O548  1  0.32983404  0.66041743  0.67906889  1
  O2-  O549  1  0.32111840  0.90025110  0.01687785  1
  O2-  O550  1  0.32156863  0.90335645  0.35994975  1
  O2-  O551  1  0.33483515  0.91831147  0.68414542  1
  O2-  O552  1  0.58326920  0.17076181  0.01081168  1
  O2-  O553  1  0.59128699  0.17278228  0.35398308  1
  O2-  O554  1  0.56712172  0.15972058  0.68303215  1
  O2-  O555  1  0.58256441  0.41355906  0.01573685  1
  O2-  O556  1  0.56615864  0.39302875  0.35620321  1
  O2-  O557  1  0.56899668  0.40177664  0.69004634  1
  O2-  O558  1  0.59195741  0.67169379  0.00196979  1
  O2-  O559  1  0.55712365  0.69850821  0.39585062  1
  O2-  O560  1  0.58830012  0.66820159  0.62409018  1
  O2-  O561  1  0.57664271  0.90374868  0.00434645  1
  O2-  O562  1  0.57772926  0.92321693  0.33907559  1
  O2-  O563  1  0.57146536  0.90823101  0.68565929  1
  O2-  O564  1  0.85410766  0.17577658  0.02273093  1
  O2-  O565  1  0.82904456  0.16220491  0.34739730  1
  O2-  O566  1  0.80105827  0.10993123  0.70514414  1
  O2-  O567  1  0.82045274  0.40892557  0.01898499  1
  O2-  O568  1  0.82763570  0.39771132  0.35454995  1
  O2-  O569  1  0.81022178  0.42065808  0.69365712  1
  O2-  O570  1  0.83550747  0.66807675  0.01857445  1
  O2-  O571  1  0.80780986  0.67787200  0.35690441  1
  O2-  O572  1  0.79394667  0.57645601  0.70792318  1
  O2-  O573  1  0.83754431  0.92184098  0.01860228  1
  O2-  O574  1  0.83470979  0.90533883  0.33539529  1
  O2-  O575  1  0.84313093  0.93594945  0.67938334  1
