# generated using pymatgen
data_H2O
_symmetry_space_group_name_H-M   'P 1'
_cell_length_a   17.96599490
_cell_length_b   17.96754985
_cell_length_c   21.98775701
_cell_angle_alpha   89.95409053
_cell_angle_beta   89.97342627
_cell_angle_gamma   119.96579139
_symmetry_Int_Tables_number   1
_chemical_formula_structural   H2O
_chemical_formula_sum   'H384 O192'
_cell_volume   6148.94965657
_cell_formula_units_Z   192
loop_
 _symmetry_equiv_pos_site_id
 _symmetry_equiv_pos_as_xyz
  1  'x, y, z'
loop_
 _atom_type_symbol
 _atom_type_oxidation_number
  H+  1.0
  O2-  -2.0
loop_
 _atom_site_type_symbol
 _atom_site_label
 _atom_site_symmetry_multiplicity
 _atom_site_fract_x
 _atom_site_fract_y
 _atom_site_fract_z
 _atom_site_occupancy
  H+  H0  1  0.37266809  0.48851472  0.34364860  1
  H+  H1  1  0.59059585  0.56730174  0.97219229  1
  H+  H2  1  0.76360301  0.38448653  0.82420689  1
  H+  H3  1  0.13883803  0.62047671  0.66996909  1
  H+  H4  1  0.88115216  0.85697668  0.65384636  1
  H+  H5  1  0.72449776  0.10052563  0.84613587  1
  H+  H6  1  0.83785550  0.88160019  0.49177208  1
  H+  H7  1  -0.02516622  0.86313270  0.50036932  1
  H+  H8  1  0.11570806  0.62102604  0.50877690  1
  H+  H9  1  0.86002076  0.61970954  0.16817378  1
  H+  H10  1  1.03034276  0.64543643  1.00549886  1
  H+  H11  1  0.39715700  0.36669961  0.51057350  1
  H+  H12  1  0.87913813  0.74941280  0.18606085  1
  H+  H13  1  -0.02835072  0.36875375  0.85516054  1
  H+  H14  1  0.89574379  0.36307051  0.33082726  1
  H+  H15  1  0.40917721  0.36382438  -0.00399106  1
  H+  H16  1  0.65092698  0.03000726  0.50767798  1
  H+  H17  1  0.36758145  -0.02361406  1.01957189  1
  H+  H18  1  0.29814484  0.40929562  0.16235898  1
  H+  H19  1  0.52214230  0.65035686  0.02016324  1
  H+  H20  1  0.88694521  0.77357392  0.50436486  1
  H+  H21  1  1.03525281  0.15594498  0.66829529  1
  H+  H22  1  0.73167791  0.37169127  0.33158278  1
  H+  H23  1  0.08537697  0.20485697  0.19488261  1
  H+  H24  1  0.38467886  0.74578156  0.03203740  1
  H+  H25  1  0.60289139  0.50582448  0.65441184  1
  H+  H26  1  0.63038693  0.60241234  0.82420344  1
  H+  H27  1  0.37097251  0.38193165  0.68001586  1
  H+  H28  1  0.36209557  0.88091703  0.83319741  1
  H+  H29  1  0.53287186  0.13246293  0.18572861  1
  H+  H30  1  0.48552862  0.85767160  0.35424895  1
  H+  H31  1  0.34421217  0.67585250  0.78948821  1
  H+  H32  1  0.35081396  -0.07636514  0.11121734  1
  H+  H33  1  0.00781519  0.40906262  0.17987041  1
  H+  H34  1  0.36963303  0.91462464  0.67908020  1
  H+  H35  1  0.66255462  0.07028229  0.26367207  1
  H+  H36  1  0.96180217  0.60037578  0.51656594  1
  H+  H37  1  0.59114374  0.43215202  0.42949837  1
  H+  H38  1  0.60853910  0.61932592  0.34064721  1
  H+  H39  1  0.77440970  0.42130686  0.63806457  1
  H+  H40  1  0.01971493  0.87683177  0.34807054  1
  H+  H41  1  0.79984985  0.64725154  0.01721632  1
  H+  H42  1  0.69035741  0.61974219  0.03663554  1
  H+  H43  1  0.40789719  0.29166048  0.17730910  1
  H+  H44  1  0.92053727  0.27294560  0.54247849  1
  H+  H45  1  0.86217264  0.38353168  1.01114047  1
  H+  H46  1  1.01357332  0.87925054  0.82743628  1
  H+  H47  1  0.89337042  0.86280144  1.00102761  1
  H+  H48  1  0.89873120  0.41048704  0.65579735  1
  H+  H49  1  0.29818148  0.88217610  0.21368513  1
  H+  H50  1  0.37484594  0.72782477  0.37184843  1
  H+  H51  1  0.58672255  0.47840933  0.97420943  1
  H+  H52  1  0.29094733  0.40281219  0.49974971  1
  H+  H53  1  0.63467073  0.42359902  0.33097647  1
  H+  H54  1  0.67732719  0.10132955  0.59866104  1
  H+  H55  1  0.33766503  0.66822789  0.46485993  1
  H+  H56  1  0.21734507  0.60511867  0.64542451  1
  H+  H57  1  0.11110786  0.07691493  0.48248063  1
  H+  H58  1  0.73466276  0.36686358  1.00506689  1
  H+  H59  1  0.63149367  0.76852956  0.17788912  1
  H+  H60  1  0.40430221  1.09263986  0.85383662  1
  H+  H61  1  0.60572647  0.46564780  0.80704871  1
  H+  H62  1  0.88095424  0.01386598  1.00039244  1
  H+  H63  1  0.56752213  0.36623427  0.65113362  1
  H+  H64  1  0.65324544  1.04925977  0.66143734  1
  H+  H65  1  0.03603458  0.65289130  0.68677510  1
  H+  H66  1  0.82907541  0.89164546  0.72382906  1
  H+  H67  1  0.24638991  0.13303137  0.66559891  1
  H+  H68  1  0.13277983  0.28673884  0.67095333  1
  H+  H69  1  0.64799672  0.27578536  0.00699680  1
  H+  H70  1  0.13545952  0.10875502  0.98256186  1
  H+  H71  1  0.52499287  0.36541077  0.01140726  1
  H+  H72  1  0.35858424  0.98089365  0.49905746  1
  H+  H73  1  0.86792707  0.25395018  0.68236991  1
  H+  H74  1  0.65253202  0.28210878  0.82795286  1
  H+  H75  1  0.63600112  0.36022360  0.49422174  1
  H+  H76  1  0.32161254  0.41193021  0.01094971  1
  H+  H77  1  0.35442797  0.68688152  0.63875519  1
  H+  H78  1  0.21806185  0.10577651  0.49515796  1
  H+  H79  1  0.62584085  0.64147159  0.48611512  1
  H+  H80  1  0.85826050  0.87595990  0.82082688  1
  H+  H81  1  0.40346607  0.63015016  0.16503458  1
  H+  H82  1  0.09957017  0.73236672  0.50331255  1
  H+  H83  1  0.23101923  0.62032348  0.85218102  1
  H+  H84  1  0.14821706  0.87106656  0.99395262  1
  H+  H85  1  0.63213869  0.10975671  1.00567004  1
  H+  H86  1  0.37789750  0.14824826  0.16480081  1
  H+  H87  1  0.70108230  0.89212318  0.49447360  1
  H+  H88  1  0.87804633  0.10501344  0.30319033  1
  H+  H89  1  0.37128676  0.63735720  0.36452273  1
  H+  H90  1  0.09743597  0.20231713  0.51946384  1
  H+  H91  1  0.47551864  0.35334856  0.84112109  1
  H+  H92  1  0.61351729  0.98376200  0.83585015  1
  H+  H93  1  0.73288576  0.61260097  0.50805511  1
  H+  H94  1  0.42976140  0.07959065  0.94796610  1
  H+  H95  1  0.77060270  0.62128636  0.16715009  1
  H+  H96  1  0.30048726  0.89886470  0.33503053  1
  H+  H97  1  0.45161486  0.81363925  0.14864814  1
  H+  H98  1  0.31400827  0.68393181  0.12859691  1
  H+  H99  1  1.02668358  0.13447549  0.82438461  1
  H+  H100  1  0.06194077  0.21914985  0.17343086  1
  H+  H101  1  0.39990956  0.86308631  0.35442976  1
  H+  H102  1  0.63899670  0.76248722  0.33090109  1
  H+  H103  1  0.13511305  0.86227243  0.84386395  1
  H+  H104  1  0.84685636  0.70597711  0.34619332  1
  H+  H105  1  0.60981488  0.72903823  0.80969981  1
  H+  H106  1  0.01004627  0.11904458  -0.00693738  1
  H+  H107  1  0.38553730  0.40391551  0.16707714  1
  H+  H108  1  0.87584970  0.76322961  0.84315496  1
  H+  H109  1  0.39840430  0.62381235  0.85411467  1
  H+  H110  1  0.72080234  0.09575864  0.14907842  1
  H+  H111  1  0.53898174  0.64359797  0.48543214  1
  H+  H112  1  0.77302840  0.87211025  0.66093800  1
  H+  H113  1  0.42225498  0.84150657  0.90918037  1
  H+  H114  1  0.18147277  0.33994702  1.00673437  1
  H+  H115  1  0.27674219  0.14829144  0.34406865  1
  H+  H116  1  0.11458943  0.88045527  0.49634304  1
  H+  H117  1  0.14433172  0.43278926  0.15423440  1
  H+  H118  1  0.85408663  0.11417241  0.82224658  1
  H+  H119  1  0.54339948  0.14131614  0.83186995  1
  H+  H120  1  0.62025508  0.38578362  0.16286493  1
  H+  H121  1  0.45292767  0.21842547  0.12394433  1
  H+  H122  1  0.22875606  0.88074751  0.67099799  1
  H+  H123  1  0.01676862  0.84383832  0.18562682  1
  H+  H124  1  0.64020405  0.10590237  0.16926454  1
  H+  H125  1  0.08786577  0.72344694  0.15986412  1
  H+  H126  1  0.70544614  0.65227900  1.01096303  1
  H+  H127  1  0.78447708  0.16401163  0.66985371  1
  H+  H128  1  0.86807620  0.01792040  0.50119943  1
  H+  H129  1  0.39841819  0.53882660  0.17364869  1
  H+  H130  1  0.89846844  0.52517868  0.99649314  1
  H+  H131  1  0.11366367  0.90117632  0.67633217  1
  H+  H132  1  0.51314251  0.62219364  0.66665329  1
  H+  H133  1  0.48128525  0.87021049  1.00076484  1
  H+  H134  1  1.01562473  0.40186146  0.67509649  1
  H+  H135  1  0.39355480  0.03618699  0.33807362  1
  H+  H136  1  0.42543471  0.32646664  0.93405508  1
  H+  H137  1  0.88134585  0.84964732  0.33763011  1
  H+  H138  1  0.12757314  -0.02608396  0.19705369  1
  H+  H139  1  0.89445654  0.51275759  0.17673529  1
  H+  H140  1  0.85529570  0.62186060  0.34305758  1
  H+  H141  1  0.48497518  0.61716859  0.33201334  1
  H+  H142  1  -0.04638369  0.34554799  0.00421379  1
  H+  H143  1  0.52320580  0.63910170  0.82034816  1
  H+  H144  1  0.72100753  0.35221293  0.49935567  1
  H+  H145  1  0.86518276  0.38645092  0.83678043  1
  H+  H146  1  0.24362362  0.38348110  0.33121807  1
  H+  H147  1  0.72784234  0.11066685  0.31771413  1
  H+  H148  1  1.07895326  0.67402618  0.09533237  1
  H+  H149  1  0.32680368  0.64434763  0.57393698  1
  H+  H150  1  0.63127384  0.79006531  0.64363916  1
  H+  H151  1  0.16121348  0.65282587  0.14855208  1
  H+  H152  1  0.88492413  0.11282551  0.49252558  1
  H+  H153  1  0.28157596  0.38285450  0.68208168  1
  H+  H154  1  0.38673520  0.10970655  0.99981674  1
  H+  H155  1  0.39232950  0.36165259  0.84930809  1
  H+  H156  1  0.60834821  0.62355567  0.66888320  1
  H+  H157  1  0.22675967  0.86367332  0.51491195  1
  H+  H158  1  0.21213882  0.63438821  0.19842981  1
  H+  H159  1  0.62656905  0.85575418  0.17910838  1
  H+  H160  1  0.49339636  0.37960920  0.17886425  1
  H+  H161  1  0.12360313  0.48853832  0.36368954  1
  H+  H162  1  0.63120839  0.87141888  0.82502128  1
  H+  H163  1  0.36692593  0.23824408  0.34425018  1
  H+  H164  1  0.85993776  0.37090681  0.49534929  1
  H+  H165  1  0.13681614  0.21352384  0.50027301  1
  H+  H166  1  0.47994317  0.87121794  0.84731728  1
  H+  H167  1  0.85861159  0.96994363  0.33082555  1
  H+  H168  1  0.08052608  0.07061463  0.14423014  1
  H+  H169  1  0.72542114  0.34927206  0.18169833  1
  H+  H170  1  0.63728872  0.11214552  0.50100887  1
  H+  H171  1  0.85337778  0.22988435  0.46732790  1
  H+  H172  1  0.10305611  0.96940919  0.82699413  1
  H+  H173  1  0.97550335  0.61395450  0.84115759  1
  H+  H174  1  0.11383297  0.73266034  0.34987518  1
  H+  H175  1  0.36355305  0.22141220  0.00287162  1
  H+  H176  1  0.60234834  -0.02953432  0.16347902  1
  H+  H177  1  0.78345259  0.88947319  0.03948404  1
  H+  H178  1  0.22530717  0.36524377  0.84602348  1
  H+  H179  1  0.52308974  0.13448023  0.02255824  1
  H+  H180  1  0.21558101  0.05796050  0.19022818  1
  H+  H181  1  1.03499948  0.88834542  0.99995179  1
  H+  H182  1  0.88353897  0.84060013  0.18790053  1
  H+  H183  1  0.38644285  0.59030543  0.63980197  1
  H+  H184  1  0.39057681  0.12454466  0.33728863  1
  H+  H185  1  0.38378860  0.11649932  0.50687236  1
  H+  H186  1  0.10584589  0.96873136  0.34803258  1
  H+  H187  1  0.25990832  0.79933841  0.25348591  1
  H+  H188  1  0.64177334  0.87765412  1.02224908  1
  H+  H189  1  0.11331216  0.39035936  0.83466276  1
  H+  H190  1  -0.00821241  0.07713153  0.47223613  1
  H+  H191  1  0.00482036  0.13016371  0.31471770  1
  H+  H192  1  0.61550694  0.22633500  0.17967625  1
  H+  H193  1  0.75933251  0.12042117  0.03018059  1
  H+  H194  1  0.08297787  0.37312328  0.00453995  1
  H+  H195  1  0.86887223  0.11281318  0.13972471  1
  H+  H196  1  0.41609721  0.82809084  0.66371666  1
  H+  H197  1  0.40659370  0.63308832  1.01686109  1
  H+  H198  1  0.35395421  0.22463160  0.49999192  1
  H+  H199  1  0.14253734  0.11114183  0.83325611  1
  H+  H200  1  0.10780126  0.48978263  0.50304469  1
  H+  H201  1  0.62471841  0.97336761  0.34667391  1
  H+  H202  1  0.34127705  0.41916932  0.43608372  1
  H+  H203  1  0.89300344  0.01476732  0.83364565  1
  H+  H204  1  0.52563102  0.14931895  0.67414173  1
  H+  H205  1  0.86695452  0.47961707  0.83069948  1
  H+  H206  1  0.62124410  0.37901898  1.01183267  1
  H+  H207  1  0.11834804  0.64724744  0.35692942  1
  H+  H208  1  0.47226573  0.11379531  0.50471759  1
  H+  H209  1  0.15781216  0.31887641  0.17862102  1
  H+  H210  1  0.06554660  0.67469333  0.44290236  1
  H+  H211  1  0.38496468  0.03606101  0.66614575  1
  H+  H212  1  0.41257613  0.54539516  1.00900914  1
  H+  H213  1  0.61921932  0.47926173  0.49281178  1
  H+  H214  1  0.85975529  0.62990828  0.49744117  1
  H+  H215  1  0.12221942  0.97691103  -0.00211681  1
  H+  H216  1  0.15440936  0.83419191  0.22299558  1
  H+  H217  1  0.84415163  0.51260724  0.66140357  1
  H+  H218  1  0.39474375  0.50888667  0.66278750  1
  H+  H219  1  0.37122183  0.39792250  0.34181353  1
  H+  H220  1  0.57902325  0.91878873  0.07460228  1
  H+  H221  1  0.63015593  0.28688643  0.65429616  1
  H+  H222  1  0.11677784  0.64226332  0.83431739  1
  H+  H223  1  0.35865459  0.02078584  0.18448127  1
  H+  H224  1  0.27532664  0.88637696  0.83514819  1
  H+  H225  1  0.36752790  0.48057541  0.83783060  1
  H+  H226  1  0.22733029  0.11357512  -0.01141900  1
  H+  H227  1  0.87025438  0.37058169  0.16681808  1
  H+  H228  1  0.37330148  0.73715986  0.84650827  1
  H+  H229  1  0.85330610  0.93520336  0.21560803  1
  H+  H230  1  0.36401986  0.23077854  0.66794509  1
  H+  H231  1  0.76267290  0.62223941  0.83394386  1
  H+  H232  1  0.27868945  0.88723686  0.01741547  1
  H+  H233  1  0.11346528  0.48903818  0.67546831  1
  H+  H234  1  0.25989460  0.65605593  0.50619465  1
  H+  H235  1  0.27125913  0.09365960  0.83043571  1
  H+  H236  1  0.98713880  0.87722478  0.65356807  1
  H+  H237  1  0.61664784  -0.01886244  1.01504280  1
  H+  H238  1  0.87572514  0.09909450  0.99978149  1
  H+  H239  1  0.24465624  0.62756603  0.36557163  1
  H+  H240  1  0.48899713  0.87191653  0.50963353  1
  H+  H241  1  0.89954388  0.61466202  0.99690862  1
  H+  H242  1  0.86952327  0.47397706  0.34060552  1
  H+  H243  1  0.60719683  0.21865647  0.48996932  1
  H+  H244  1  0.76956974  0.14033110  0.48107260  1
  H+  H245  1  0.41597209  0.92312640  0.16016491  1
  H+  H246  1  0.61539499  0.63035680  0.16774778  1
  H+  H247  1  0.85927727  0.45910707  0.49194625  1
  H+  H248  1  0.04683149  0.19542047  0.36879096  1
  H+  H249  1  0.11559526  0.73152365  0.83463426  1
  H+  H250  1  0.14152400  0.53116833  0.84745001  1
  H+  H251  1  0.90568508  0.14460863  0.65263982  1
  H+  H252  1  0.77075466  0.88016279  0.33721062  1
  H+  H253  1  0.58662049  0.67055772  0.08584473  1
  H+  H254  1  0.15315772  0.39745244  0.52258449  1
  H+  H255  1  0.48356456  0.36314782  0.50505911  1
  H+  H256  1  0.39391683  0.78969970  0.51681931  1
  H+  H257  1  -0.13658692  0.02256889  0.15460082  1
  H+  H258  1  0.14255047  0.78982649  0.67194894  1
  H+  H259  1  0.79196645  0.30215804  0.12784386  1
  H+  H260  1  0.39039214  0.86716427  1.00458655  1
  H+  H261  1  0.13572687  0.11424014  0.32740356  1
  H+  H262  1  -0.01406749  0.36635497  0.33872154  1
  H+  H263  1  0.11661269  0.64140762  0.01104329  1
  H+  H264  1  0.98933358  0.36566045  0.51681036  1
  H+  H265  1  0.64449035  0.11565239  0.84613834  1
  H+  H266  1  0.10478995  0.24812196  0.99216327  1
  H+  H267  1  0.61970102  0.74439095  1.02923938  1
  H+  H268  1  0.97815937  0.61471711  0.32986444  1
  H+  H269  1  0.14242975  0.51836526  0.13850736  1
  H+  H270  1  0.48603559  0.38310639  0.32981831  1
  H+  H271  1  0.64795443  0.36923064  0.81656841  1
  H+  H272  1  0.82579944  0.15329166  0.76740854  1
  H+  H273  1  0.61685404  0.15368983  0.66939821  1
  H+  H274  1  0.36641247  0.89660614  0.49856099  1
  H+  H275  1  0.86946869  0.22445672  0.32714776  1
  H+  H276  1  0.85561951  0.62741131  0.83443126  1
  H+  H277  1  0.18717748  0.59742092  0.30672660  1
  H+  H278  1  0.12712453  0.40241369  0.35297721  1
  H+  H279  1  0.35793154  0.13817222  0.66717461  1
  H+  H280  1  0.11760450  0.52121061  0.99682203  1
  H+  H281  1  0.40836325  0.52942201  0.49906675  1
  H+  H282  1  0.54375214  0.92401324  0.67410244  1
  H+  H283  1  0.11302109  0.22628903  0.82618812  1
  H+  H284  1  0.77455335  0.88525697  0.81174974  1
  H+  H285  1  0.44556974  0.34839660  0.60142367  1
  H+  H286  1  0.89954765  0.77753599  -0.00000630  1
  H+  H287  1  0.52691683  0.63633687  0.16767357  1
  H+  H288  1  0.90202673  0.32764712  0.90832638  1
  H+  H289  1  0.11060596  0.38973893  0.67658357  1
  H+  H290  1  0.33149642  0.92190106  0.40570968  1
  H+  H291  1  0.65774511  0.56401217  0.23631096  1
  H+  H292  1  0.66980087  0.33844794  0.24251027  1
  H+  H293  1  0.57754437  0.66200035  0.72964292  1
  H+  H294  1  0.14785120  0.78133918  0.99574996  1
  H+  H295  1  0.62537825  0.91093669  0.67617911  1
  H+  H296  1  0.44449545  0.58259162  0.55828115  1
  H+  H297  1  0.16382551  0.06986354  0.27711861  1
  H+  H298  1  0.71044484  0.57239948  0.33843198  1
  H+  H299  1  0.90783053  0.82729537  0.90020951  1
  H+  H300  1  0.43927170  0.59833047  0.90827324  1
  H+  H301  1  0.88884806  0.65904504  0.64501220  1
  H+  H302  1  0.41455198  0.08891854  0.60281411  1
  H+  H303  1  0.32994583  0.17365802  0.43690870  1
  H+  H304  1  0.07814758  0.42111277  0.77941728  1
  H+  H305  1  0.15817546  0.31238806  0.52576767  1
  H+  H306  1  0.42118740  0.59736848  0.27587103  1
  H+  H307  1  0.29131804  1.02874042  0.79933302  1
  H+  H308  1  0.04281945  0.09248140  0.40944718  1
  H+  H309  1  0.66707492  0.58117434  0.56465094  1
  H+  H310  1  0.12876097  0.48973597  0.25452479  1
  H+  H311  1  0.40614189  0.74140734  0.71429417  1
  H+  H312  1  0.16807829  0.83980932  0.57528868  1
  H+  H313  1  0.08907284  0.42362313  0.44768976  1
  H+  H314  1  0.58638651  0.93472313  0.77105726  1
  H+  H315  1  0.83313832  0.15888660  0.38219657  1
  H+  H316  1  0.91360160  0.06944032  0.89504163  1
  H+  H317  1  0.66418958  0.83182120  0.87526902  1
  H+  H318  1  0.33604963  0.92968766  0.74292026  1
  H+  H319  1  0.92128515  0.57871337  0.26976581  1
  H+  H320  1  0.13208996  0.99918921  0.49560944  1
  H+  H321  1  0.86130357  0.92446178  0.08532757  1
  H+  H322  1  0.57924468  0.16078213  0.43074271  1
  H+  H323  1  0.66160630  0.82390314  0.27271038  1
  H+  H324  1  0.81028764  0.64184756  0.74718594  1
  H+  H325  1  0.68992856  0.85167307  0.97315130  1
  H+  H326  1  0.42719442  0.34756034  0.27159517  1
  H+  H327  1  0.69938627  0.58375404  0.66885824  1
  H+  H328  1  0.59118885  0.66188678  0.39997272  1
  H+  H329  1  0.17097729  0.83830673  0.90428927  1
  H+  H330  1  0.16069127  0.58742052  0.94319485  1
  H+  H331  1  0.86574814  0.25633277  1.01113783  1
  H+  H332  1  0.09387689  0.67785179  0.74589212  1
  H+  H333  1  0.43667418  0.87463507  0.59938523  1
  H+  H334  1  0.14331310  0.58913024  0.56840746  1
  H+  H335  1  0.33817814  0.16708135  0.06340132  1
  H+  H336  1  0.90563627  0.08217793  0.23979324  1
  H+  H337  1  0.07421744  0.92231302  0.73432465  1
  H+  H338  1  0.15689730  0.32788607  0.90084267  1
  H+  H339  1  0.17648169  0.51079301  0.24949580  1
  H+  H340  1  -0.00070539  0.08398281  0.13686116  1
  H+  H341  1  0.14020118  0.03658620  0.66911725  1
  H+  H342  1  0.92869603  0.10554096  0.59495427  1
  H+  H343  1  0.62798376  0.54854998  0.88241171  1
  H+  H344  1  0.63881482  0.28745993  0.33311960  1
  H+  H345  1  0.37007791  0.43700517  0.07437154  1
  H+  H346  1  0.76561189  0.87501209  0.18247437  1
  H+  H347  1  0.91824341  0.58101229  0.90127668  1
  H+  H348  1  0.36441108  0.74241182  0.71931267  1
  H+  H349  1  0.17005054  0.35704494  0.61572043  1
  H+  H350  1  0.56107130  0.39891469  0.75241780  1
  H+  H351  1  0.85190291  0.66732443  0.07750903  1
  H+  H352  1  0.83980510  0.41547217  0.07125351  1
  H+  H353  1  0.65913948  0.86107825  0.59259729  1
  H+  H354  1  0.83652918  0.40883788  0.39773875  1
  H+  H355  1  0.88741041  0.54066817  0.56529079  1
  H+  H356  1  0.41655771  0.01495276  0.85811956  1
  H+  H357  1  0.81892529  0.91388301  0.42994074  1
  H+  H358  1  0.64942686  0.33371454  0.58970979  1
  H+  H359  1  0.58324443  0.16198295  0.08160325  1
  H+  H360  1  0.61584328  0.14343400  0.33450724  1
  H+  H361  1  0.52774569  0.14565802  0.33673373  1
  H+  H362  1  0.58993140  0.41232910  0.10051575  1
  H+  H363  1  0.66553249  0.08330732  0.94515412  1
  H+  H364  1  0.94947845  0.36715398  0.24079457  1
  H+  H365  1  0.33972502  0.42020440  0.77940603  1
  H+  H366  1  0.14333525  0.13082656  0.66632452  1
  H+  H367  1  0.97911732  0.60410994  0.17032173  1
  H+  H368  1  0.16802915  0.07929955  0.89361042  1
  H+  H369  1  0.59338547  0.17274324  0.76792575  1
  H+  H370  1  0.92530355  0.36162950  0.60807927  1
  H+  H371  1  0.90934068  0.81278657  0.28185786  1
  H+  H372  1  0.62500858  0.88367594  0.34807002  1
  H+  H373  1  0.15425213  0.29636790  0.31874442  1
  H+  H374  1  0.08879440  0.17711429  0.73199881  1
  H+  H375  1  0.07270953  0.41894676  0.06369994  1
  H+  H376  1  0.19450242  0.37784626  0.23557794  1
  H+  H377  1  0.92701476  0.84106285  0.58793948  1
  H+  H378  1  0.37408297  0.07496860  0.24534748  1
  H+  H379  1  0.63499694  0.51530600  0.17297073  1
  H+  H380  1  0.06703671  0.12968423  0.05056500  1
  H+  H381  1  0.83093409  0.65784549  0.43690400  1
  H+  H382  1  0.60792140  0.91545365  0.44253659  1
  H+  H383  1  0.08398637  0.90722473  0.43248187  1
  O2-  O384  1  0.04145704  0.07398547  0.11460695  1
  O2-  O385  1  0.03337899  0.06540005  0.44971419  1
  O2-  O386  1  0.08677444  0.16775802  0.80797516  1
  O2-  O387  1  0.10835011  0.45469438  0.13627868  1
  O2-  O388  1  0.08687483  0.42742876  0.49345259  1
  O2-  O389  1  0.08430537  0.42407499  0.82381251  1
  O2-  O390  1  0.07820162  0.66839353  0.14174034  1
  O2-  O391  1  0.06394275  0.67180405  0.48818019  1
  O2-  O392  1  0.08572193  0.67141058  0.81758579  1
  O2-  O393  1  0.07962295  0.86624383  0.17743100  1
  O2-  O394  1  0.08470236  0.91062538  0.47954313  1
  O2-  O395  1  0.07326892  0.90911452  0.81054295  1
  O2-  O396  1  0.39514571  0.20129499  0.13824069  1
  O2-  O397  1  0.32219718  0.16566967  0.48234414  1
  O2-  O398  1  0.31978354  0.08683124  0.81567521  1
  O2-  O399  1  0.35906605  0.43648990  0.14804257  1
  O2-  O400  1  0.34732193  0.41932919  0.48139166  1
  O2-  O401  1  0.33450011  0.41987414  0.82426563  1
  O2-  O402  1  0.37532249  0.70252227  0.11767586  1
  O2-  O403  1  0.32347309  0.68146102  0.50607327  1
  O2-  O404  1  0.34319433  0.67414015  0.83388407  1
  O2-  O405  1  0.36770164  0.93437084  0.15539786  1
  O2-  O406  1  0.32876969  0.91942922  0.48506265  1
  O2-  O407  1  0.33552264  0.91516721  0.81890580  1
  O2-  O408  1  0.58724814  0.16507603  0.16418429  1
  O2-  O409  1  0.57686722  0.15728016  0.47622590  1
  O2-  O410  1  0.60152472  0.17511735  0.81298545  1
  O2-  O411  1  0.59096577  0.41651539  0.14666445  1
  O2-  O412  1  0.58796908  0.42048497  0.47362187  1
  O2-  O413  1  0.57769352  0.40355772  0.79558554  1
  O2-  O414  1  0.58804217  0.66373985  0.15170328  1
  O2-  O415  1  0.59861436  0.67250829  0.46807951  1
  O2-  O416  1  0.57927060  0.66705146  0.79738716  1
  O2-  O417  1  0.57146086  0.90653097  0.14991689  1
  O2-  O418  1  0.60644956  0.92124494  0.48896540  1
  O2-  O419  1  0.58238024  0.92437611  0.81607554  1
  O2-  O420  1  0.81467287  0.14660929  0.11200149  1
  O2-  O421  1  0.82853706  0.16811662  0.46122633  1
  O2-  O422  1  0.80990109  0.12780018  0.80840235  1
  O2-  O423  1  0.81534628  0.36017306  0.14410793  1
  O2-  O424  1  0.83018780  0.39856866  0.47648724  1
  O2-  O425  1  0.83707673  0.41821981  0.81577837  1
  O2-  O426  1  0.83185149  0.65226011  0.15334221  1
  O2-  O427  1  0.83573533  0.66571252  0.48225640  1
  O2-  O428  1  0.82368768  0.65645358  0.81958261  1
  O2-  O429  1  0.83005523  0.90413113  0.17749936  1
  O2-  O430  1  0.81034195  0.91297217  0.47502493  1
  O2-  O431  1  0.83552493  0.91022486  0.79968316  1
  O2-  O432  1  0.15590634  0.03767889  0.20206761  1
  O2-  O433  1  0.15522706  0.06552297  0.50580171  1
  O2-  O434  1  0.16599245  0.07463491  0.84792449  1
  O2-  O435  1  0.19690025  0.37898002  0.18992464  1
  O2-  O436  1  0.18734029  0.37200890  0.54066451  1
  O2-  O437  1  0.16252917  0.33365580  0.85584070  1
  O2-  O438  1  0.20624840  0.63505943  0.15446004  1
  O2-  O439  1  0.14794737  0.59168771  0.52335612  1
  O2-  O440  1  0.16868129  0.59201486  0.86161386  1
  O2-  O441  1  0.09263036  0.80224728  0.21071863  1
  O2-  O442  1  0.16582342  0.83438678  0.52995452  1
  O2-  O443  1  0.16851406  0.83506708  0.85824191  1
  O2-  O444  1  0.34839505  0.06493833  0.20379361  1
  O2-  O445  1  0.41300037  0.08568502  0.52266154  1
  O2-  O446  1  0.44561997  0.07587482  0.87127064  1
  O2-  O447  1  0.43251080  0.35087882  0.19448416  1
  O2-  O448  1  0.42654842  0.33550768  0.52616348  1
  O2-  O449  1  0.42009444  0.32905270  0.86300763  1
  O2-  O450  1  0.42751908  0.59982333  0.18833947  1
  O2-  O451  1  0.43897359  0.58935996  0.51453309  1
  O2-  O452  1  0.43172166  0.59404823  0.86366407  1
  O2-  O453  1  0.48136322  0.87006787  0.17005674  1
  O2-  O454  1  0.43054477  0.85253202  0.52592408  1
  O2-  O455  1  0.41983760  0.83753195  0.86357759  1
  O2-  O456  1  0.66649228  0.06909219  0.17511450  1
  O2-  O457  1  0.67693249  0.09240326  0.51703433  1
  O2-  O458  1  0.66562758  0.07922434  0.86530260  1
  O2-  O459  1  0.66606314  0.32971265  0.19709299  1
  O2-  O460  1  0.65979136  0.32529909  0.51229837  1
  O2-  O461  1  0.68330497  0.34595113  0.83465026  1
  O2-  O462  1  0.66269748  0.57453013  0.19188478  1
  O2-  O463  1  0.67058249  0.57987644  0.51986846  1
  O2-  O464  1  0.65306312  0.56619177  0.83999407  1
  O2-  O465  1  0.66010642  0.82864602  0.19350962  1
  O2-  O466  1  0.64396350  0.87098383  0.51467329  1
  O2-  O467  1  0.66050643  0.83535359  0.83133632  1
  O2-  O468  1  0.90029414  0.08416939  0.16224574  1
  O2-  O469  1  0.90963753  0.07960343  0.51079263  1
  O2-  O470  1  0.92239470  0.07423674  0.85040246  1
  O2-  O471  1  0.95178684  0.39090770  0.19956060  1
  O2-  O472  1  0.92835020  0.32969961  0.53336455  1
  O2-  O473  1  0.90955665  0.34055842  0.86416361  1
  O2-  O474  1  0.92001492  0.57257853  0.18948574  1
  O2-  O475  1  0.89890492  0.56014277  0.52257845  1
  O2-  O476  1  0.91474390  0.58072773  0.85553355  1
  O2-  O477  1  0.91172358  0.80908158  0.20336635  1
  O2-  O478  1  0.91547972  0.83509626  0.51770897  1
  O2-  O479  1  0.90613350  0.82533733  0.85471981  1
  O2-  O480  1  0.16838864  0.08429829  0.32159091  1
  O2-  O481  1  0.17367127  0.09780527  0.65400433  1
  O2-  O482  1  0.16949947  0.08171093  0.96913510  1
  O2-  O483  1  0.18338658  0.35900175  0.31330172  1
  O2-  O484  1  0.16070236  0.35080087  0.66112859  1
  O2-  O485  1  0.13139726  0.31162143  0.98047418  1
  O2-  O486  1  0.18202436  0.60054452  0.35070351  1
  O2-  O487  1  0.15375990  0.57972271  0.64890173  1
  O2-  O488  1  0.15451096  0.58316128  0.98805738  1
  O2-  O489  1  0.25775731  0.85216761  0.24853967  1
  O2-  O490  1  0.16847049  0.84884829  0.65479348  1
  O2-  O491  1  0.18150517  0.84156256  0.98018086  1
  O2-  O492  1  0.41902271  0.09436918  0.31873139  1
  O2-  O493  1  0.41523487  0.09515544  0.64803984  1
  O2-  O494  1  0.42128188  0.08058041  0.99302428  1
  O2-  O495  1  0.42531617  0.34765236  0.31726145  1
  O2-  O496  1  0.44443915  0.34531157  0.64797801  1
  O2-  O497  1  0.42483495  0.32198607  0.98068941  1
  O2-  O498  1  0.42216904  0.59083392  0.32047512  1
  O2-  O499  1  0.42734261  0.56822827  0.64438565  1
  O2-  O500  1  0.43884154  0.60734550  0.99609558  1
  O2-  O501  1  0.42272309  0.82397376  0.34695182  1
  O2-  O502  1  0.44028906  0.88494003  0.64492798  1
  O2-  O503  1  0.41994026  0.83618819  0.98794151  1
  O2-  O504  1  0.66497163  0.07737610  0.30836470  1
  O2-  O505  1  0.67853710  0.10814055  0.64365734  1
  O2-  O506  1  0.66275802  0.07933719  0.99067490  1
  O2-  O507  1  0.67045333  0.34833426  0.31848677  1
  O2-  O508  1  0.64761191  0.34342145  0.63443620  1
  O2-  O509  1  0.67365370  0.33532470  0.99186433  1
  O2-  O510  1  0.65090250  0.54244722  0.31964724  1
  O2-  O511  1  0.64378147  0.56849145  0.64812330  1
  O2-  O512  1  0.57669006  0.51747907  0.94706617  1
  O2-  O513  1  0.66754127  0.82435485  0.31776335  1
  O2-  O514  1  0.66642544  0.85202742  0.63669546  1
  O2-  O515  1  0.67585577  0.84509682  1.01632901  1
  O2-  O516  1  0.90783767  0.07544834  0.28527527  1
  O2-  O517  1  0.94097056  0.11972105  0.63851334  1
  O2-  O518  1  0.90251927  0.06956110  0.97867927  1
  O2-  O519  1  0.92964005  0.33531144  0.31760250  1
  O2-  O520  1  0.92757135  0.37520289  0.65229874  1
  O2-  O521  1  0.89210404  0.31309430  0.99055197  1
  O2-  O522  1  0.91820566  0.57923023  0.31504104  1
  O2-  O523  1  0.86904928  0.62032459  0.68024940  1
  O2-  O524  1  0.92687619  0.58399966  0.97773749  1
  O2-  O525  1  0.90809365  0.81421422  0.32730470  1
  O2-  O526  1  0.92775557  0.84046252  0.63501651  1
  O2-  O527  1  0.91993333  0.83363422  0.97920541  1
  O2-  O528  1  0.07133009  0.15020947  0.00720504  1
  O2-  O529  1  0.06036473  0.16374895  0.33893134  1
  O2-  O530  1  0.09556792  0.18429281  0.68635215  1
  O2-  O531  1  0.05736279  0.40735935  0.01967483  1
  O2-  O532  1  0.09281066  0.42563452  0.37257190  1
  O2-  O533  1  0.07919744  0.42548624  0.68998863  1
  O2-  O534  1  0.08894687  0.67684538  0.02385291  1
  O2-  O535  1  0.08088094  0.67318030  0.36370766  1
  O2-  O536  1  0.09616412  0.67967526  0.69911097  1
  O2-  O537  1  0.09554183  0.91695860  0.01331992  1
  O2-  O538  1  0.08009460  0.90895521  0.36291956  1
  O2-  O539  1  0.08056873  0.93024077  0.68853666  1
  O2-  O540  1  0.33000786  0.16068654  0.01881619  1
  O2-  O541  1  0.33663665  0.17850450  0.36059637  1
  O2-  O542  1  0.32612649  0.16971932  0.67872012  1
  O2-  O543  1  0.37889379  0.44335766  0.02855467  1
  O2-  O544  1  0.33971111  0.42679376  0.35785323  1
  O2-  O545  1  0.34222815  0.41324763  0.69535816  1
  O2-  O546  1  0.36657177  0.68775573  0.05106306  1
  O2-  O547  1  0.34216624  0.66503025  0.38558609  1
  O2-  O548  1  0.32078786  0.63088656  0.61922490  1
  O2-  O549  1  0.33855319  0.91560721  0.03480019  1
  O2-  O550  1  0.34993914  0.93107580  0.36210225  1
  O2-  O551  1  0.33281825  0.93544238  0.69750362  1
  O2-  O552  1  0.58433967  0.16237259  0.03660258  1
  O2-  O553  1  0.58872188  0.17557067  0.35140597  1
  O2-  O554  1  0.58664430  0.18229197  0.68764016  1
  O2-  O555  1  0.58492355  0.40543103  0.02582098  1
  O2-  O556  1  0.60463777  0.45479480  0.34633371  1
  O2-  O557  1  0.53553051  0.39561659  0.66811742  1
  O2-  O558  1  0.58609455  0.68020235  0.03851120  1
  O2-  O559  1  0.58623998  0.65735574  0.35270418  1
  O2-  O560  1  0.57786793  0.65791737  0.68212995  1
  O2-  O561  1  0.58698466  0.91892631  0.02934122  1
  O2-  O562  1  0.60063482  0.91698168  0.36799251  1
  O2-  O563  1  0.60109140  0.94562489  0.69339874  1
  O2-  O564  1  0.82051702  0.14708265  0.04426911  1
  O2-  O565  1  0.83585258  0.16166061  0.33694037  1
  O2-  O566  1  0.84419756  0.19168288  0.68652137  1
  O2-  O567  1  0.84396264  0.42482408  0.02664225  1
  O2-  O568  1  0.83769137  0.41172129  0.35236543  1
  O2-  O569  1  0.83718986  0.46234495  0.63793158  1
  O2-  O570  1  0.85899822  0.67359430  0.03202532  1
  O2-  O571  1  0.81818539  0.64415131  0.35932018  1
  O2-  O572  1  0.79806564  0.63272387  0.70159024  1
  O2-  O573  1  0.84717336  0.91843664  0.04186351  1
  O2-  O574  1  0.83218092  0.91369896  0.35176990  1
  O2-  O575  1  0.82629544  0.87862194  0.67925045  1
