# generated using pymatgen
data_H2O
_symmetry_space_group_name_H-M   'P 1'
_cell_length_a   17.99939275
_cell_length_b   17.99362503
_cell_length_c   22.00605033
_cell_angle_alpha   90.01354871
_cell_angle_beta   89.99876074
_cell_angle_gamma   120.00617456
_symmetry_Int_Tables_number   1
_chemical_formula_structural   H2O
_chemical_formula_sum   'H384 O192'
_cell_volume   6171.94736233
_cell_formula_units_Z   192
loop_
 _symmetry_equiv_pos_site_id
 _symmetry_equiv_pos_as_xyz
  1  'x, y, z'
loop_
 _atom_type_symbol
 _atom_type_oxidation_number
  H+  1.0
  O2-  -2.0
loop_
 _atom_site_type_symbol
 _atom_site_label
 _atom_site_symmetry_multiplicity
 _atom_site_fract_x
 _atom_site_fract_y
 _atom_site_fract_z
 _atom_site_occupancy
  H+  H0  1  0.58089588  0.65806792  0.07756249  1
  H+  H1  1  0.22555175  0.87160505  0.51218412  1
  H+  H2  1  0.71272158  0.85582470  0.51418045  1
  H+  H3  1  0.86606896  0.48745726  0.49767849  1
  H+  H4  1  0.41549451  0.07734290  0.27455445  1
  H+  H5  1  0.10325246  0.71419992  0.81799190  1
  H+  H6  1  0.86647209  0.23247467  0.00478987  1
  H+  H7  1  0.68225029  0.47307106  0.86891562  1
  H+  H8  1  0.42706469  0.53951128  0.00476419  1
  H+  H9  1  0.88863384  0.50829193  0.84460876  1
  H+  H10  1  0.11636810  0.90616680  0.51140476  1
  H+  H11  1  0.04485267  0.14574525  0.82166604  1
  H+  H12  1  0.35817865  0.21681447  0.83295803  1
  H+  H13  1  0.10842769  0.47355678  0.35995523  1
  H+  H14  1  0.38639624  0.64952742  0.00452282  1
  H+  H15  1  0.62420025  0.76206913  0.98087860  1
  H+  H16  1  0.36347497  0.14315310  0.34102128  1
  H+  H17  1  0.82841373  0.86459852  0.16962208  1
  H+  H18  1  0.11346519  0.44642009  0.49439544  1
  H+  H19  1  0.86159973  0.38201625  0.16039038  1
  H+  H20  1  0.60870296  0.88082729  0.33516416  1
  H+  H21  1  0.38917909  0.28351937  0.32649784  1
  H+  H22  1  0.16232820  0.57650520  0.48725065  1
  H+  H23  1  0.09774748  0.98487777  0.66790434  1
  H+  H24  1  0.59560865  0.12508609  1.01662803  1
  H+  H25  1  0.38568053  0.64082846  0.50156312  1
  H+  H26  1  0.35710731  0.96596004  0.15335071  1
  H+  H27  1  0.76798127  0.62952891  0.67594110  1
  H+  H28  1  0.85805293  0.38881603  0.34877474  1
  H+  H29  1  0.49812736  0.13495587  0.65615403  1
  H+  H30  1  0.89169781  0.33832882  0.92801038  1
  H+  H31  1  0.36789965  0.13112302  0.48943219  1
  H+  H32  1  0.39444023  0.11087777  0.84554876  1
  H+  H33  1  0.18033503  0.12065813  0.55373750  1
  H+  H34  1  0.97942448  0.35563716  0.17834431  1
  H+  H35  1  0.64202444  0.01718003  1.00561612  1
  H+  H36  1  0.39431696  0.77805520  0.50986957  1
  H+  H37  1  0.36806694  0.73508785  0.83157990  1
  H+  H38  1  0.61026660  0.13011477  0.49291264  1
  H+  H39  1  0.89281182  0.52650120  0.32469436  1
  H+  H40  1  0.37500816  0.25591381  0.66097384  1
  H+  H41  1  0.72952267  0.37259567  0.33656697  1
  H+  H42  1  0.63262051  0.01966196  0.50717935  1
  H+  H43  1  0.39918606  0.36720951  0.17453601  1
  H+  H44  1  0.85226867  0.58873289  0.66400296  1
  H+  H45  1  0.86652381  0.22078132  0.16640079  1
  H+  H46  1  0.38954616  0.25157671  0.14413113  1
  H+  H47  1  0.29513292  0.63296483  0.50147400  1
  H+  H48  1  0.02383409  0.64289978  -0.00889707  1
  H+  H49  1  0.51271852  0.37051258  0.66676415  1
  H+  H50  1  0.06188064  0.16172429  0.14106445  1
  H+  H51  1  0.66410065  0.83135191  0.88905114  1
  H+  H52  1  0.61563585  0.72712606  0.82077986  1
  H+  H53  1  0.89860644  0.01726332  0.84787496  1
  H+  H54  1  0.08391568  0.66146450  0.64667851  1
  H+  H55  1  0.87959453  0.89033622  0.35640403  1
  H+  H56  1  0.33108736  0.15871274  0.77216115  1
  H+  H57  1  0.13966855  0.50483409  0.66099301  1
  H+  H58  1  0.14487862  0.03232476  0.32263757  1
  H+  H59  1  0.46785159  0.59694046  0.66488235  1
  H+  H60  1  0.61658779  0.51565159  0.99282331  1
  H+  H61  1  0.66773647  0.08692154  0.08940633  1
  H+  H62  1  0.76448541  0.13176403  0.50281692  1
  H+  H63  1  0.82926889  0.15966323  0.41078299  1
  H+  H64  1  0.66266220  0.32618318  0.07983316  1
  H+  H65  1  0.58801917  0.43494876  0.43386832  1
  H+  H66  1  0.63983525  0.61648871  0.49943902  1
  H+  H67  1  0.53546018  0.12581060  0.83844599  1
  H+  H68  1  0.40257241  -0.00718255  0.98625399  1
  H+  H69  1  0.85326572  0.72508430  0.00159034  1
  H+  H70  1  0.85862232  0.45737976  0.69799730  1
  H+  H71  1  0.95672463  0.88079547  0.12950247  1
  H+  H72  1  0.14762934  0.24884975  0.15065406  1
  H+  H73  1  0.52796053  0.38734471  0.16136952  1
  H+  H74  1  0.96819280  0.35364572  0.51187732  1
  H+  H75  1  0.12428384  0.89427658  0.34788338  1
  H+  H76  1  0.97558533  0.60195837  0.83570915  1
  H+  H77  1  0.98675997  0.62449553  0.66174668  1
  H+  H78  1  0.70450819  0.85259817  0.16719714  1
  H+  H79  1  0.00255615  0.12603825  0.48999081  1
  H+  H80  1  0.63428057  0.34703094  0.67979737  1
  H+  H81  1  0.22262272  0.85189677  0.82845848  1
  H+  H82  1  0.88554655  0.86593711  -0.00575127  1
  H+  H83  1  0.24161756  0.37565834  0.65040781  1
  H+  H84  1  0.77227028  0.37890219  0.14279440  1
  H+  H85  1  0.77540700  0.12430558  0.34687592  1
  H+  H86  1  0.57593164  0.83301934  0.64637573  1
  H+  H87  1  0.22242250  0.61014407  0.37185513  1
  H+  H88  1  0.27488676  0.88707070  0.35072206  1
  H+  H89  1  0.26971107  0.36532904  0.49901473  1
  H+  H90  1  0.24534025  0.38893326  0.35208535  1
  H+  H91  1  0.17056403  0.13604968  0.16613095  1
  H+  H92  1  0.37793579  0.47567053  0.15912863  1
  H+  H93  1  0.88590704  0.61081152  0.16754582  1
  H+  H94  1  0.60441972  0.63703598  0.66915022  1
  H+  H95  1  0.86739615  0.39808558  0.49982978  1
  H+  H96  1  0.83739890  0.42901023  0.40656082  1
  H+  H97  1  0.63550708  0.37986513  0.00486029  1
  H+  H98  1  0.64149479  0.51863971  0.16153344  1
  H+  H99  1  0.47743735  0.19350001  0.61484685  1
  H+  H100  1  0.89621456  0.14296759  0.65576546  1
  H+  H101  1  -0.04296213  0.83916144  0.12612273  1
  H+  H102  1  0.64240726  0.10136862  0.84851340  1
  H+  H103  1  0.35119349  0.68023659  0.41048864  1
  H+  H104  1  0.54435312  0.62510025  0.14304950  1
  H+  H105  1  0.38105958  0.89376264  0.67724105  1
  H+  H106  1  0.12588349  0.33652012  0.49958937  1
  H+  H107  1  0.38531409  0.02820644  0.33717072  1
  H+  H108  1  0.01828133  0.12684034  0.34259479  1
  H+  H109  1  0.88594007  0.64654550  0.34399416  1
  H+  H110  1  0.09254177  0.78000822  0.65920782  1
  H+  H111  1  0.72309306  0.69418305  0.62564385  1
  H+  H112  1  0.86772526  0.09945187  0.18567186  1
  H+  H113  1  0.29591015  0.41491313  0.01225143  1
  H+  H114  1  0.06768391  0.92426686  0.13817966  1
  H+  H115  1  0.37933052  0.98402551  0.49959133  1
  H+  H116  1  0.83297436  0.50416933  0.62316268  1
  H+  H117  1  -0.08928388  0.59683056  0.56489043  1
  H+  H118  1  0.00582404  0.90158936  0.82848000  1
  H+  H119  1  0.27578503  0.14542629  0.34117783  1
  H+  H120  1  0.11158114  0.13273569  0.33902744  1
  H+  H121  1  0.95802252  0.84883186  0.66164451  1
  H+  H122  1  0.37317780  0.24221581  0.50444564  1
  H+  H123  1  0.57467575  0.61068693  0.98445292  1
  H+  H124  1  0.10829562  0.18228425  0.05053995  1
  H+  H125  1  0.15921880  0.42222846  0.83524351  1
  H+  H126  1  0.14582473  0.12733652  0.83140600  1
  H+  H127  1  0.64927445  0.61080234  0.15201099  1
  H+  H128  1  0.50055272  0.11169598  0.01256479  1
  H+  H129  1  0.13896347  0.77322558  0.33174287  1
  H+  H130  1  0.15474477  0.53440178  0.83593451  1
  H+  H131  1  0.61113122  0.48519102  0.33342988  1
  H+  H132  1  0.13494477  0.01174730  0.54747355  1
  H+  H133  1  0.86680569  0.25252271  0.33527012  1
  H+  H134  1  0.12917353  0.26480582  0.32700557  1
  H+  H135  1  0.97292628  0.35675460  0.66636557  1
  H+  H136  1  0.73394637  0.38190997  0.85960148  1
  H+  H137  1  0.13306519  0.77272658  -0.01588219  1
  H+  H138  1  0.14726065  0.62843378  0.98041181  1
  H+  H139  1  0.50328433  0.38208542  1.00478434  1
  H+  H140  1  0.57246031  0.91467202  0.77044617  1
  H+  H141  1  0.51313656  0.63021210  0.33881138  1
  H+  H142  1  0.63735063  1.02252699  0.14398465  1
  H+  H143  1  0.89303842  0.53796691  0.99172385  1
  H+  H144  1  0.36208891  0.88842374  0.82680667  1
  H+  H145  1  0.76762487  0.89199130  0.81940600  1
  H+  H146  1  0.37265676  0.72713564  0.67592925  1
  H+  H147  1  0.64063121  0.91810167  0.70035227  1
  H+  H148  1  0.33955980  0.92186044  0.76624928  1
  H+  H149  1  0.73155475  0.39202802  1.00561404  1
  H+  H150  1  0.12210416  0.37684783  0.16461923  1
  H+  H151  1  0.85649852  -0.02691929  1.01087358  1
  H+  H152  1  0.64390325  0.82120255  0.26150344  1
  H+  H153  1  0.59693203  0.87774251  0.15969187  1
  H+  H154  1  0.60965562  0.39618911  0.34245003  1
  H+  H155  1  0.52687847  0.13757624  0.33906551  1
  H+  H156  1  0.17303607  0.83626037  0.27509851  1
  H+  H157  1  0.24623596  0.37293924  0.17402675  1
  H+  H158  1  0.09379140  0.65668805  0.49148321  1
  H+  H159  1  0.73223149  0.11066684  0.00507576  1
  H+  H160  1  0.02677825  0.63779854  0.33369042  1
  H+  H161  1  0.93458377  0.39085531  0.83066746  1
  H+  H162  1  0.45424276  0.63156343  0.19699524  1
  H+  H163  1  0.12303276  0.35063743  0.32312151  1
  H+  H164  1  0.23211643  0.11470813  0.83688987  1
  H+  H165  1  0.26425022  0.88422904  0.14483729  1
  H+  H166  1  0.36412931  0.46353997  0.67393346  1
  H+  H167  1  0.52360503  0.62979668  0.49243751  1
  H+  H168  1  0.16429090  0.31872505  0.55950401  1
  H+  H169  1  0.26114316  0.46268593  0.39743270  1
  H+  H170  1  1.02044348  0.39104345  0.33928889  1
  H+  H171  1  0.14253689  0.90552455  0.14520528  1
  H+  H172  1  0.08548480  0.89179200  0.67382206  1
  H+  H173  1  0.58249897  0.47298049  0.82432912  1
  H+  H174  1  0.77410451  0.64639482  0.49206856  1
  H+  H175  1  0.92041996  0.58233288  0.26268465  1
  H+  H176  1  0.63312802  0.27540805  0.49694007  1
  H+  H177  1  0.12307097  0.50824284  0.13406051  1
  H+  H178  1  0.72218166  0.34587761  0.68673297  1
  H+  H179  1  0.42719168  0.08383177  0.56002922  1
  H+  H180  1  0.30451160  0.16616847  0.13376288  1
  H+  H181  1  0.39031957  0.02112608  0.84078878  1
  H+  H182  1  0.11811613  0.38258891  0.67258091  1
  H+  H183  1  0.33569385  0.67431019  0.09114815  1
  H+  H184  1  -0.01013447  0.87802093  0.33020768  1
  H+  H185  1  0.37496242  0.45497696  0.81670263  1
  H+  H186  1  0.14373449  0.53817395  0.97600640  1
  H+  H187  1  0.85292463  0.22363819  0.50308890  1
  H+  H188  1  0.35434976  0.35935900  0.82640342  1
  H+  H189  1  0.48828750  0.86285527  0.66888229  1
  H+  H190  1  0.38183843  0.60111149  0.66442170  1
  H+  H191  1  0.85996048  -0.02455934  0.50361841  1
  H+  H192  1  0.37915646  0.34776720  0.65676056  1
  H+  H193  1  0.07744366  0.80185404  0.20579556  1
  H+  H194  1  0.85170950  0.22256333  0.67266730  1
  H+  H195  1  0.11795647  0.75827469  0.16765769  1
  H+  H196  1  0.85556691  0.63850263  0.99999162  1
  H+  H197  1  0.90998295  0.82682427  0.57187580  1
  H+  H198  1  0.84177670  0.91605219  0.42247282  1
  H+  H199  1  0.38495497  0.77959780  0.33102239  1
  H+  H200  1  0.11446591  0.40185731  0.99799923  1
  H+  H201  1  0.09977401  0.62711864  0.13192463  1
  H+  H202  1  0.37573493  0.77509813  0.17290668  1
  H+  H203  1  0.88677133  0.87879827  0.84020136  1
  H+  H204  1  0.62503293  1.00913166  0.66549872  1
  H+  H205  1  0.36408350  0.13600973  0.67239430  1
  H+  H206  1  0.86157102  0.61556922  0.82159382  1
  H+  H207  1  0.03099044  0.14392706  0.00191595  1
  H+  H208  1  0.09809736  0.93341587  0.40385563  1
  H+  H209  1  0.01521542  0.63160860  0.14890065  1
  H+  H210  1  0.37479677  0.39288933  0.00552704  1
  H+  H211  1  0.76729668  0.59944890  0.82419701  1
  H+  H212  1  0.14449947  0.59386144  0.65921808  1
  H+  H213  1  0.88195102  0.10456134  0.34614911  1
  H+  H214  1  0.61178840  0.88151487  0.00344025  1
  H+  H215  1  0.60105719  0.45770179  0.66557061  1
  H+  H216  1  0.87007721  0.97956692  0.35736449  1
  H+  H217  1  0.14614572  0.29217524  0.98982202  1
  H+  H218  1  0.63006629  0.61193309  0.31525252  1
  H+  H219  1  0.60488788  0.12150742  0.67682932  1
  H+  H220  1  0.35977476  0.88832606  0.05537572  1
  H+  H221  1  0.52569704  0.89216443  0.33680647  1
  H+  H222  1  0.36321265  0.64451473  0.34735269  1
  H+  H223  1  0.83595552  0.95708463  0.16894311  1
  H+  H224  1  0.25266413  0.62960233  0.83404848  1
  H+  H225  1  0.39056848  0.98539901  0.67823704  1
  H+  H226  1  0.51341811  0.88785884  0.16059569  1
  H+  H227  1  0.62229572  0.76260437  0.15773632  1
  H+  H228  1  0.36492789  0.88911599  0.34664393  1
  H+  H229  1  0.45570436  0.35892536  0.84266473  1
  H+  H230  1  0.77062510  0.86740713  0.66896353  1
  H+  H231  1  0.13293148  0.11871037  -0.02045965  1
  H+  H232  1  0.77739347  0.14181604  0.82758764  1
  H+  H233  1  0.13104823  0.79040746  0.50398406  1
  H+  H234  1  0.61325441  0.21480734  0.68742959  1
  H+  H235  1  -0.03293963  0.37020841  -0.02276960  1
  H+  H236  1  0.33015170  0.63214742  0.15551197  1
  H+  H237  1  0.77746861  0.13393859  0.14903026  1
  H+  H238  1  0.77464346  0.62775182  0.15318427  1
  H+  H239  1  0.83281047  0.39659205  0.75802188  1
  H+  H240  1  0.35673472  0.24630288  0.04310498  1
  H+  H241  1  0.57322083  0.74272062  0.64719906  1
  H+  H242  1  0.61674054  0.39906808  0.48989432  1
  H+  H243  1  0.11930817  0.89424898  -0.01224968  1
  H+  H244  1  0.87997280  0.11469038  0.50337676  1
  H+  H245  1  0.06027013  0.39190197  0.83456733  1
  H+  H246  1  0.86373577  0.39976448  1.00281428  1
  H+  H247  1  0.04374343  0.14298739  0.67178376  1
  H+  H248  1  0.37332545  0.86097439  0.17090172  1
  H+  H249  1  0.72749241  0.84570995  0.65348107  1
  H+  H250  1  0.28328279  0.63744276  0.67543672  1
  H+  H251  1  0.47338317  0.86438183  0.84791489  1
  H+  H252  1  0.13336840  0.60865450  0.36820748  1
  H+  H253  1  0.37590976  0.34137490  0.50778364  1
  H+  H254  1  0.10287115  0.17324368  0.76142467  1
  H+  H255  1  0.60681289  0.88384208  0.48894901  1
  H+  H256  1  0.97538257  0.86695139  0.99066894  1
  H+  H257  1  0.17647265  0.05120416  0.16588143  1
  H+  H258  1  0.88448799  0.52058155  0.16962938  1
  H+  H259  1  0.13190282  0.02271272  0.97740498  1
  H+  H260  1  0.61559412  0.22543347  0.34123535  1
  H+  H261  1  0.20310256  0.59992654  0.12039127  1
  H+  H262  1  0.58248646  0.15716781  0.43031895  1
  H+  H263  1  0.27863889  0.47481910  0.87941743  1
  H+  H264  1  0.72109792  0.36331088  0.49965095  1
  H+  H265  1  0.62316452  0.76797384  0.32258883  1
  H+  H266  1  0.60836405  0.13554458  0.15278659  1
  H+  H267  1  0.48191036  0.10301381  0.49777944  1
  H+  H268  1  0.10968482  0.99327541  0.82195812  1
  H+  H269  1  0.36212681  0.51784288  0.33701563  1
  H+  H270  1  0.86373036  0.88690831  0.50679256  1
  H+  H271  1  0.84858109  0.74780458  0.18662713  1
  H+  H272  1  0.37568006  0.88242867  0.49926823  1
  H+  H273  1  0.38955210  0.51308580  0.51333045  1
  H+  H274  1  0.88833682  0.73653682  0.34902329  1
  H+  H275  1  0.48253840  0.09313211  0.17927447  1
  H+  H276  1  0.89087089  0.78223646  0.50662781  1
  H+  H277  1  0.65097045  0.01921512  0.32352236  1
  H+  H278  1  0.71350778  0.10117168  0.66067355  1
  H+  H279  1  0.87935129  0.62774171  0.50596495  1
  H+  H280  1  0.62855411  0.85973894  0.83249483  1
  H+  H281  1  0.17195403  0.56204606  0.55986206  1
  H+  H282  1  0.45567611  0.01019177  0.21756706  1
  H+  H283  1  0.71649209  0.84742163  0.98841685  1
  H+  H284  1  0.26847677  0.12297383  0.67050003  1
  H+  H285  1  0.25440122  0.39093120  0.84666128  1
  H+  H286  1  0.90513399  0.99692289  0.67286119  1
  H+  H287  1  0.22333666  0.85860404  0.97786376  1
  H+  H288  1  0.60732891  0.72259738  0.48736761  1
  H+  H289  1  0.32981902  0.40758544  0.44359540  1
  H+  H290  1  0.83660330  0.66968749  0.09647070  1
  H+  H291  1  0.67246486  0.34372962  0.27708599  1
  H+  H292  1  0.66723296  0.54503504  0.90155503  1
  H+  H293  1  0.40145774  0.30760528  0.57150845  1
  H+  H294  1  0.36373374  0.77828845  -0.00113670  1
  H+  H295  1  0.15966712  0.82223512  0.88420695  1
  H+  H296  1  0.29166300  0.63750166  -0.00284216  1
  H+  H297  1  0.17802268  0.09592679  0.26441898  1
  H+  H298  1  0.06425033  0.35953034  0.10747220  1
  H+  H299  1  0.60909803  0.96902737  0.83291506  1
  H+  H300  1  0.89377426  0.11855216  -0.00134948  1
  H+  H301  1  0.82329848  0.64140467  0.73985868  1
  H+  H302  1  0.18126913  0.33415256  0.23287877  1
  H+  H303  1  0.98097784  0.03526470  0.88184607  1
  H+  H304  1  0.19893814  0.54864944  0.24196362  1
  H+  H305  1  0.67282617  0.35949721  0.91674603  1
  H+  H306  1  0.94275421  0.07830091  0.19506260  1
  H+  H307  1  0.92305931  0.85092829  0.89904220  1
  H+  H308  1  0.19179985  0.36994202  0.94260466  1
  H+  H309  1  0.16403775  0.08812524  0.91218844  1
  H+  H310  1  0.64223440  0.52731688  0.50290809  1
  H+  H311  1  0.22336338  0.43529643  0.60940538  1
  H+  H312  1  0.65984020  0.58072648  0.25645079  1
  H+  H313  1  0.61472741  0.63838310  0.82223955  1
  H+  H314  1  0.37734282  0.60753735  0.85135845  1
  H+  H315  1  0.95354980  0.95294835  0.69913974  1
  H+  H316  1  0.67432235  0.07328318  0.90743001  1
  H+  H317  1  0.84321636  0.67643022  0.43579882  1
  H+  H318  1  0.65651075  0.07363245  0.56982256  1
  H+  H319  1  0.34286934  0.67496892  0.77008398  1
  H+  H320  1  0.81544565  0.28073481  0.29438895  1
  H+  H321  1  0.07229937  0.15454189  0.42813711  1
  H+  H322  1  0.40705606  0.83528272  0.26947793  1
  H+  H323  1  0.91129510  0.33386744  0.57212987  1
  H+  H324  1  0.12778734  0.13642045  0.66553428  1
  H+  H325  1  0.91723595  0.58806590  0.92837087  1
  H+  H326  1  0.42596001  0.33880586  0.23665113  1
  H+  H327  1  0.87955578  0.75239096  0.66255764  1
  H+  H328  1  0.65434413  0.10803735  0.31871969  1
  H+  H329  1  0.43063974  0.83661101  0.60875406  1
  H+  H330  1  0.58051477  0.91730522  0.42956493  1
  H+  H331  1  0.84787639  0.93721104  0.77017292  1
  H+  H332  1  0.91585362  0.32702510  0.23584233  1
  H+  H333  1  0.06696587  0.93238395  0.75959685  1
  H+  H334  1  0.10816374  0.93601443  0.04780809  1
  H+  H335  1  0.85055061  0.17836258  0.06677385  1
  H+  H336  1  0.63020164  0.26601921  0.13843999  1
  H+  H337  1  0.92401461  0.08082285  0.94316870  1
  H+  H338  1  0.54290493  0.42209627  0.76330088  1
  H+  H339  1  0.56553965  0.41751823  0.06385453  1
  H+  H340  1  0.10387822  0.21409292  0.49327640  1
  H+  H341  1  0.09480709  0.41162360  0.73579694  1
  H+  H342  1  0.91100037  0.83539773  0.28011803  1
  H+  H343  1  0.33645265  0.16568938  0.43256797  1
  H+  H344  1  0.08968440  0.45754445  0.04240556  1
  H+  H345  1  0.41848650  0.57293104  0.57208728  1
  H+  H346  1  0.02575541  0.90504494  0.51643721  1
  H+  H347  1  0.89629509  0.06527459  0.28482233  1
  H+  H348  1  0.58876080  0.14710542  0.77807937  1
  H+  H349  1  0.57320894  0.65820259  0.73303203  1
  H+  H350  1  0.61318013  0.38351991  0.14007815  1
  H+  H351  1  0.16463692  0.56058892  0.24488479  1
  H+  H352  1  0.47593331  0.37281915  0.32625090  1
  H+  H353  1  0.82116306  0.90788667  0.06660120  1
  H+  H354  1  0.07052183  0.39017248  0.43496816  1
  H+  H355  1  0.55811702  0.14949659  0.09872709  1
  H+  H356  1  0.41673791  0.58019927  0.90644264  1
  H+  H357  1  0.84802004  0.43318999  0.06578455  1
  H+  H358  1  0.08111651  0.67158014  0.05086166  1
  H+  H359  1  0.98564047  0.20292131  0.62552623  1
  H+  H360  1  0.34566448  0.42085613  0.09798442  1
  H+  H361  1  0.18340637  0.59993507  0.89706653  1
  H+  H362  1  0.57685286  0.66031664  0.39504132  1
  H+  H363  1  0.48147327  0.86934513  0.50354468  1
  H+  H364  1  0.33057637  0.39562431  0.72945228  1
  H+  H365  1  0.57836928  0.90712478  0.06305630  1
  H+  H366  1  0.78816196  0.75239729  0.23548152  1
  H+  H367  1  0.82659818  0.16555654  0.73218615  1
  H+  H368  1  0.36946779  0.56356637  0.27466047  1
  H+  H369  1  0.07177101  0.67720677  0.39740824  1
  H+  H370  1  0.67845647  0.60969452  0.58677187  1
  H+  H371  1  0.34038013  0.91561836  0.43727380  1
  H+  H372  1  0.05939586  0.65873922  0.75954010  1
  H+  H373  1  0.70458433  0.60711014  0.99176761  1
  H+  H374  1  0.83854207  0.24063475  0.81664375  1
  H+  H375  1  0.40033463  0.32279901  0.90626837  1
  H+  H376  1  0.47781505  0.57197637  0.23356145  1
  H+  H377  1  0.92289935  0.10090385  0.56210150  1
  H+  H378  1  0.40346704  0.83663480  0.90324641  1
  H+  H379  1  0.14134822  0.84409140  0.60482054  1
  H+  H380  1  0.88438676  0.35745253  0.67267459  1
  H+  H381  1  0.62822577  0.81365795  0.55921513  1
  H+  H382  1  0.00605838  0.65593370  0.49334257  1
  H+  H383  1  0.41234468  0.06157803  0.93727413  1
  O2-  O384  1  0.12210867  0.19116862  0.12944252  1
  O2-  O385  1  0.06643532  0.15295041  0.47506028  1
  O2-  O386  1  0.10463717  0.17530589  0.80708183  1
  O2-  O387  1  0.08008192  0.39183064  0.14547310  1
  O2-  O388  1  0.07448803  0.38648887  0.48010208  1
  O2-  O389  1  0.11344366  0.43224385  0.81408021  1
  O2-  O390  1  0.07502326  0.66605305  0.13196358  1
  O2-  O391  1  0.06715801  0.68846809  0.47589304  1
  O2-  O392  1  0.06652071  0.65340058  0.80315682  1
  O2-  O393  1  0.12826537  0.94749626  0.12718679  1
  O2-  O394  1  0.08916988  0.94321243  0.50771628  1
  O2-  O395  1  0.06990498  0.93303319  0.80634366  1
  O2-  O396  1  0.35931493  0.20470781  0.11388982  1
  O2-  O397  1  0.33740081  0.16233625  0.47855264  1
  O2-  O398  1  0.32833351  0.15588565  0.81726152  1
  O2-  O399  1  0.34150860  0.41670292  0.14433130  1
  O2-  O400  1  0.33166221  0.39781525  0.48786573  1
  O2-  O401  1  0.33328377  0.39586847  0.80461911  1
  O2-  O402  1  0.31754123  0.67243237  0.13488721  1
  O2-  O403  1  0.35503459  0.67199697  0.48836356  1
  O2-  O404  1  0.33862721  0.67375171  0.81567639  1
  O2-  O405  1  0.32393252  0.90926126  0.13215096  1
  O2-  O406  1  0.34429552  0.91684935  0.48435995  1
  O2-  O407  1  0.33350538  0.91983961  0.81171148  1
  O2-  O408  1  0.56785984  0.15712819  0.14639145  1
  O2-  O409  1  0.57645357  0.15568687  0.47571818  1
  O2-  O410  1  0.59458225  0.14810844  0.82280354  1
  O2-  O411  1  0.58462409  0.41908567  0.13903375  1
  O2-  O412  1  0.59287861  0.43689709  0.47897203  1
  O2-  O413  1  0.52720035  0.43861001  0.80186239  1
  O2-  O414  1  0.59790665  0.66413591  0.12129650  1
  O2-  O415  1  0.58092732  0.66176804  0.47262454  1
  O2-  O416  1  0.58418112  0.66625688  0.80620490  1
  O2-  O417  1  0.57271705  0.91368592  0.14454752  1
  O2-  O418  1  0.57795878  0.91652840  0.47533744  1
  O2-  O419  1  0.57177719  0.90944549  0.81665084  1
  O2-  O420  1  0.84209439  0.16178654  0.14908237  1
  O2-  O421  1  0.82588183  0.16330280  0.48760016  1
  O2-  O422  1  0.83049953  0.18393609  0.80591040  1
  O2-  O423  1  0.83663671  0.41593194  0.14381072  1
  O2-  O424  1  0.83880693  0.42798215  0.48151733  1
  O2-  O425  1  0.83338304  0.40169034  0.82507633  1
  O2-  O426  1  0.83709611  0.66562409  0.14199856  1
  O2-  O427  1  0.83718633  0.67903857  0.48174051  1
  O2-  O428  1  0.82445299  0.63780986  0.80524935  1
  O2-  O429  1  0.80976456  0.90088410  0.14767960  1
  O2-  O430  1  0.83159857  0.91489120  0.48893449  1
  O2-  O431  1  0.83158076  0.92449900  0.81363782  1
  O2-  O432  1  0.19858237  0.10725821  0.18648791  1
  O2-  O433  1  0.18355141  0.07164864  0.57022932  1
  O2-  O434  1  0.16896172  0.08897925  0.84987736  1
  O2-  O435  1  0.18403749  0.33934401  0.18770329  1
  O2-  O436  1  0.15696826  0.30607016  0.51467490  1
  O2-  O437  1  0.22667520  0.41616824  0.87323763  1
  O2-  O438  1  0.14125145  0.56199283  0.11139850  1
  O2-  O439  1  0.18408287  0.55177134  0.51729330  1
  O2-  O440  1  0.18736684  0.59598341  0.85003961  1
  O2-  O441  1  0.13309763  0.81417527  0.18967363  1
  O2-  O442  1  0.16470122  0.84895904  0.52226992  1
  O2-  O443  1  0.16128692  0.81543929  0.83997530  1
  O2-  O444  1  0.43131666  0.04443634  0.20241321  1
  O2-  O445  1  0.42023366  0.07005189  0.51518855  1
  O2-  O446  1  0.42363961  0.07967186  0.85953409  1
  O2-  O447  1  0.43232452  0.34100684  0.19047112  1
  O2-  O448  1  0.40104185  0.30623653  0.52454905  1
  O2-  O449  1  0.39835529  0.31483267  0.86044153  1
  O2-  O450  1  0.45672325  0.57870073  0.19408211  1
  O2-  O451  1  0.42055409  0.57392498  0.52630246  1
  O2-  O452  1  0.37889073  0.55865669  0.87055676  1
  O2-  O453  1  0.40450181  0.83409351  0.19001308  1
  O2-  O454  1  0.42066976  0.84025671  0.52076921  1
  O2-  O455  1  0.41053097  0.83167560  0.85913124  1
  O2-  O456  1  0.67238022  0.08531072  0.13422600  1
  O2-  O457  1  0.66191042  0.07924825  0.52402628  1
  O2-  O458  1  0.67471905  0.07102727  0.86271167  1
  O2-  O459  1  0.66594719  0.32761035  0.12559146  1
  O2-  O460  1  0.65947135  0.33599478  0.50923460  1
  O2-  O461  1  0.68212893  0.38199038  0.87486637  1
  O2-  O462  1  0.67425314  0.58082157  0.17481986  1
  O2-  O463  1  0.67333648  0.59124895  0.51741862  1
  O2-  O464  1  0.67640315  0.52561610  0.86138811  1
  O2-  O465  1  0.64270023  0.81806672  0.17925124  1
  O2-  O466  1  0.64950244  0.82439745  0.51533720  1
  O2-  O467  1  0.66437507  0.83300625  0.84373809  1
  O2-  O468  1  0.88366397  0.05871970  0.20682127  1
  O2-  O469  1  0.91487680  0.08732987  0.51712151  1
  O2-  O470  1  0.94933042  0.06405861  0.87033266  1
  O2-  O471  1  0.91805062  0.32802173  0.19082016  1
  O2-  O472  1  0.90869219  0.33174900  0.52648871  1
  O2-  O473  1  0.87677798  0.35467924  0.84685881  1
  O2-  O474  1  0.91720457  0.58168646  0.18349648  1
  O2-  O475  1  0.91355796  0.59893334  0.51996474  1
  O2-  O476  1  0.91593519  0.57102877  0.85487633  1
  O2-  O477  1  0.84309757  0.78876592  0.21537291  1
  O2-  O478  1  0.91896424  0.84044628  0.52664215  1
  O2-  O479  1  0.92835001  0.86052041  0.85402217  1
  O2-  O480  1  0.17021080  0.09315602  0.30974906  1
  O2-  O481  1  0.17078915  0.07484442  0.63726474  1
  O2-  O482  1  0.15911414  0.08434122  0.96149488  1
  O2-  O483  1  0.15911208  0.32511847  0.31159111  1
  O2-  O484  1  0.19451926  0.37665746  0.62523979  1
  O2-  O485  1  0.17449286  0.35560218  0.98618972  1
  O2-  O486  1  0.16069270  0.57552012  0.38316091  1
  O2-  O487  1  0.17157003  0.56379890  0.64130596  1
  O2-  O488  1  0.17981634  0.60014979  0.96494140  1
  O2-  O489  1  0.17197352  0.83614579  0.31993775  1
  O2-  O490  1  0.12655878  0.84126267  0.64821019  1
  O2-  O491  1  0.16240220  0.83431871  0.96922037  1
  O2-  O492  1  0.41439905  0.08669980  0.31922473  1
  O2-  O493  1  0.45032171  0.13393621  0.62856146  1
  O2-  O494  1  0.40661580  0.04915739  0.98177517  1
  O2-  O495  1  0.41686017  0.34161718  0.30848491  1
  O2-  O496  1  0.40674020  0.31454110  0.64109118  1
  O2-  O497  1  0.40263412  0.34027006  0.98062831  1
  O2-  O498  1  0.39722195  0.57336925  0.31431247  1
  O2-  O499  1  0.40667951  0.56619919  0.64859753  1
  O2-  O500  1  0.45573172  0.59986663  0.98599263  1
  O2-  O501  1  0.41171713  0.83935341  0.31482237  1
  O2-  O502  1  0.42696595  0.83137053  0.65343554  1
  O2-  O503  1  0.34989801  0.82103511  0.98163833  1
  O2-  O504  1  0.68857873  0.08029186  0.31043889  1
  O2-  O505  1  0.65330361  0.07031722  0.64589318  1
  O2-  O506  1  0.66895798  0.08191063  1.00071785  1
  O2-  O507  1  0.66891607  0.33848603  0.32120158  1
  O2-  O508  1  0.66333316  0.31442384  0.66973575  1
  O2-  O509  1  0.66933775  0.34980811  1.00259609  1
  O2-  O510  1  0.65864097  0.58014556  0.30137242  1
  O2-  O511  1  0.68771205  0.63216233  0.63088790  1
  O2-  O512  1  0.64603027  0.57524702  0.97411715  1
  O2-  O513  1  0.64966990  0.82728022  0.30622542  1
  O2-  O514  1  0.57254160  0.78638064  0.61997113  1
  O2-  O515  1  0.65911794  0.82293342  0.96902659  1
  O2-  O516  1  0.90943775  0.07099641  0.32938249  1
  O2-  O517  1  0.94487817  0.14207513  0.63184559  1
  O2-  O518  1  0.92260106  0.08468964  0.98844582  1
  O2-  O519  1  0.87286090  0.30419349  0.31190165  1
  O2-  O520  1  0.91385546  0.33039835  0.64988837  1
  O2-  O521  1  0.90399651  0.33607437  0.97177222  1
  O2-  O522  1  0.92666347  0.58579252  0.30798210  1
  O2-  O523  1  0.87896834  0.55445815  0.64329741  1
  O2-  O524  1  0.92068598  0.59714624  0.97395319  1
  O2-  O525  1  0.92656734  0.84852836  0.32384945  1
  O2-  O526  1  0.90031395  0.81015387  0.64430628  1
  O2-  O527  1  0.91513531  0.83656395  0.97616334  1
  O2-  O528  1  0.09543160  0.17549116  0.00618872  1
  O2-  O529  1  0.07913689  0.15984564  0.35751010  1
  O2-  O530  1  0.10399353  0.17044752  0.68451194  1
  O2-  O531  1  0.08127714  0.43353927  0.00128543  1
  O2-  O532  1  0.07687787  0.40850915  0.35653550  1
  O2-  O533  1  0.08551413  0.40829489  0.69094734  1
  O2-  O534  1  0.08566868  0.67196049  0.00571724  1
  O2-  O535  1  0.08463246  0.67144962  0.35420966  1
  O2-  O536  1  0.04552187  0.66807677  0.67435704  1
  O2-  O537  1  0.09301393  0.92850702  0.00393316  1
  O2-  O538  1  0.09570483  0.92788940  0.35935928  1
  O2-  O539  1  0.05907294  0.92776635  0.68886650  1
  O2-  O540  1  0.33637811  0.25495251  0.00261793  1
  O2-  O541  1  0.33483636  0.17370523  0.35846839  1
  O2-  O542  1  0.32743309  0.15757838  0.68952415  1
  O2-  O543  1  0.35573030  0.43709023  0.02563899  1
  O2-  O544  1  0.29104275  0.43614140  0.37813135  1
  O2-  O545  1  0.33202596  0.40045940  0.68368371  1
  O2-  O546  1  0.34831874  0.67191143  0.01708625  1
  O2-  O547  1  0.33820738  0.67726880  0.36597748  1
  O2-  O548  1  0.34173107  0.66673238  0.69265368  1
  O2-  O549  1  0.39913701  0.89621678  0.02128060  1
  O2-  O550  1  0.33499332  0.91770564  0.36683833  1
  O2-  O551  1  0.35245524  0.92626127  0.69038074  1
  O2-  O552  1  0.55854092  0.14632319  0.03268117  1
  O2-  O553  1  0.58786802  0.16366555  0.35217854  1
  O2-  O554  1  0.57488370  0.15068910  0.69502253  1
  O2-  O555  1  0.56519976  0.41779554  0.01828201  1
  O2-  O556  1  0.57932470  0.42702276  0.35391090  1
  O2-  O557  1  0.57062058  0.40242551  0.68610692  1
  O2-  O558  1  0.54814874  0.64464385  0.00236652  1
  O2-  O559  1  0.57432539  0.66125567  0.34944457  1
  O2-  O560  1  0.56395073  0.65319091  0.68738590  1
  O2-  O561  1  0.58760972  0.91662852  0.01871772  1
  O2-  O562  1  0.58515179  0.91758859  0.35242503  1
  O2-  O563  1  0.58767675  0.91964772  0.69503818  1
  O2-  O564  1  0.84482992  0.17384171  0.02180336  1
  O2-  O565  1  0.83592130  0.15799543  0.36554738  1
  O2-  O566  1  0.82657051  0.16170732  0.68610254  1
  O2-  O567  1  0.84407414  0.43768549  0.02086089  1
  O2-  O568  1  0.83433270  0.42576662  0.36063601  1
  O2-  O569  1  0.83284933  0.39691410  0.70995949  1
  O2-  O570  1  0.82303641  0.66532112  0.01741953  1
  O2-  O571  1  0.86232977  0.67828218  0.36594763  1
  O2-  O572  1  0.82603720  0.64620331  0.69159864  1
  O2-  O573  1  0.82554139  0.91084903  0.02148138  1
  O2-  O574  1  0.84702577  0.91862466  0.37457929  1
  O2-  O575  1  0.92369605  0.98362547  0.71084096  1
