# generated using pymatgen
data_H2O
_symmetry_space_group_name_H-M   'P 1'
_cell_length_a   17.99230022
_cell_length_b   17.99128936
_cell_length_c   22.00097967
_cell_angle_alpha   89.99744578
_cell_angle_beta   89.98355957
_cell_angle_gamma   119.97653190
_symmetry_Int_Tables_number   1
_chemical_formula_structural   H2O
_chemical_formula_sum   'H384 O192'
_cell_volume   6169.13472210
_cell_formula_units_Z   192
loop_
 _symmetry_equiv_pos_site_id
 _symmetry_equiv_pos_as_xyz
  1  'x, y, z'
loop_
 _atom_type_symbol
 _atom_type_oxidation_number
  H+  1.0
  O2-  -2.0
loop_
 _atom_site_type_symbol
 _atom_site_label
 _atom_site_symmetry_multiplicity
 _atom_site_fract_x
 _atom_site_fract_y
 _atom_site_fract_z
 _atom_site_occupancy
  H+  H0  1  0.60428074  0.64799685  0.83797714  1
  H+  H1  1  0.88994203  0.49649383  0.17161221  1
  H+  H2  1  0.89562586  0.18155064  0.82365815  1
  H+  H3  1  0.90385336  0.74644577  0.48814372  1
  H+  H4  1  0.35849847  0.71322128  0.68447414  1
  H+  H5  1  0.11042584  0.97495189  0.83229529  1
  H+  H6  1  0.20634168  0.10598561  0.99282516  1
  H+  H7  1  0.17977894  0.35257381  0.55682490  1
  H+  H8  1  0.10429931  0.13313568  0.15934699  1
  H+  H9  1  0.46540677  0.85217472  0.67522598  1
  H+  H10  1  -0.03565296  0.10471155  0.17153197  1
  H+  H11  1  0.99460947  0.13506502  0.83704471  1
  H+  H12  1  0.60123291  -0.03107467  0.67379859  1
  H+  H13  1  0.73769467  0.64224542  0.50977649  1
  H+  H14  1  0.86535464  0.39021225  1.00440471  1
  H+  H15  1  0.60108834  0.87921805  0.67443562  1
  H+  H16  1  0.66475346  0.87177949  0.49553311  1
  H+  H17  1  0.71542012  0.84424100  -0.00333881  1
  H+  H18  1  0.87593127  0.51799589  0.99303684  1
  H+  H19  1  0.86992221  0.63839631  0.01570991  1
  H+  H20  1  0.47171031  0.86353031  0.17126314  1
  H+  H21  1  0.22430428  0.86294336  0.51523103  1
  H+  H22  1  0.13486932  0.11166177  0.64843527  1
  H+  H23  1  0.13304664  0.51758342  0.50815409  1
  H+  H24  1  0.58159188  0.61893316  0.50418070  1
  H+  H25  1  0.53969262  0.89136513  0.49794658  1
  H+  H26  1  0.71841870  0.61770018  0.16298715  1
  H+  H27  1  0.83822412  0.66931628  0.76713866  1
  H+  H28  1  0.57564201  0.15506087  0.05942680  1
  H+  H29  1  0.24054676  0.61931572  0.83036169  1
  H+  H30  1  0.36874851  0.10720007  0.17444751  1
  H+  H31  1  0.83597224  0.41282173  0.72989561  1
  H+  H32  1  0.17788649  0.54908851  0.31989823  1
  H+  H33  1  0.23301345  0.36131951  0.83471729  1
  H+  H34  1  0.40726425  0.32661384  0.32412603  1
  H+  H35  1  0.38185545  0.60923864  0.37098793  1
  H+  H36  1  0.50885427  0.63018490  0.14246259  1
  H+  H37  1  0.06550936  0.36842783  0.32839990  1
  H+  H38  1  0.63382629  0.39281267  0.67402377  1
  H+  H39  1  -0.07820681  0.33844146  0.33201954  1
  H+  H40  1  0.83953877  0.43120023  0.57070168  1
  H+  H41  1  0.33173455  0.92113510  0.43901528  1
  H+  H42  1  0.71367019  0.85053298  0.17007879  1
  H+  H43  1  0.77916185  0.38502273  0.82527632  1
  H+  H44  1  0.92270427  0.31671936  0.83485633  1
  H+  H45  1  0.71821003  0.61572579  0.30821919  1
  H+  H46  1  0.84225985  0.12949489  0.67446544  1
  H+  H47  1  0.84629089  0.96799063  0.33646511  1
  H+  H48  1  0.26835862  0.13771720  0.82373095  1
  H+  H49  1  0.18943094  0.37794852  0.31916611  1
  H+  H50  1  0.61978049  0.89711263  0.83018354  1
  H+  H51  1  0.31680931  0.37096538  0.29388872  1
  H+  H52  1  0.87273568  0.01616009  0.17004277  1
  H+  H53  1  0.26473272  0.11388582  0.31069717  1
  H+  H54  1  0.63200267  0.11104824  0.83696020  1
  H+  H55  1  0.46814270  0.86076063  0.98358321  1
  H+  H56  1  0.67598451  0.39013200  0.33105445  1
  H+  H57  1  0.12232908  -0.01298018  0.48190365  1
  H+  H58  1  0.59979987  0.62355389  0.98821271  1
  H+  H59  1  0.13595674  0.60698942  -0.00168028  1
  H+  H60  1  0.88569080  0.79330544  0.16963528  1
  H+  H61  1  0.05784213  0.50549855  0.68067582  1
  H+  H62  1  0.91044921  1.02865123  -0.03669226  1
  H+  H63  1  0.97057373  0.61279088  0.83876787  1
  H+  H64  1  0.70430280  0.10097227  0.66475183  1
  H+  H65  1  0.11545859  0.64504737  0.16264417  1
  H+  H66  1  0.04471468  0.44437381  0.33268335  1
  H+  H67  1  0.63394173  0.01809315  0.98724507  1
  H+  H68  1  0.14900779  0.89476029  0.99440938  1
  H+  H69  1  0.61925403  0.47606807  0.15261923  1
  H+  H70  1  0.72346724  0.36188213  0.50460339  1
  H+  H71  1  0.02760111  0.89449255  0.48981333  1
  H+  H72  1  0.71600480  0.85173254  0.32379346  1
  H+  H73  1  0.39910356  0.57566835  1.05715802  1
  H+  H74  1  0.11632247  0.23845636  0.33285788  1
  H+  H75  1  0.69374707  0.17156341  0.27702972  1
  H+  H76  1  0.39716618  0.08680818  0.26440785  1
  H+  H77  1  0.36078615  0.74318856  0.14758423  1
  H+  H78  1  0.20507801  0.15284902  0.32339221  1
  H+  H79  1  0.33949269  0.68419436  0.41458939  1
  H+  H80  1  0.02086879  0.88490750  0.83071827  1
  H+  H81  1  0.37824949  0.53036662  0.33775014  1
  H+  H82  1  0.37609908  0.12173018  0.66337094  1
  H+  H83  1  0.39625589  0.01050347  0.84708537  1
  H+  H84  1  0.78036236  0.64184574  0.67394887  1
  H+  H85  1  0.22402178  0.11647569  0.15965367  1
  H+  H86  1  0.62869857  0.47802639  0.68347176  1
  H+  H87  1  0.88863043  0.29003743  -0.01162907  1
  H+  H88  1  0.23424777  0.10883397  0.48620287  1
  H+  H89  1  0.77430958  0.89853069  0.84610887  1
  H+  H90  1  0.11592548  0.74067322  0.68024113  1
  H+  H91  1  0.63144268  0.10633450  0.98896958  1
  H+  H92  1  0.36015721  0.89005497  0.68410854  1
  H+  H93  1  0.62388171  0.60578649  0.15913762  1
  H+  H94  1  0.38271920  0.52678263  0.51628925  1
  H+  H95  1  0.97925651  0.87922557  0.17215826  1
  H+  H96  1  0.12988727  0.77373275  0.84591970  1
  H+  H97  1  0.89132319  0.77208093  0.65534386  1
  H+  H98  1  0.51432987  0.37241495  0.48146184  1
  H+  H99  1  0.62270880  0.51241863  0.97510977  1
  H+  H100  1  0.71215477  0.09610450  0.16409820  1
  H+  H101  1  0.65212922  0.81725484  0.22797771  1
  H+  H102  1  0.40351249  0.12889142  0.99828951  1
  H+  H103  1  0.62084923  0.47816153  0.33444045  1
  H+  H104  1  0.02756236  0.63143720  0.33676917  1
  H+  H105  1  0.38045436  0.44953745  0.15739632  1
  H+  H106  1  0.88401136  0.85947646  0.84903640  1
  H+  H107  1  0.03188685  0.38719547  0.00501520  1
  H+  H108  1  0.61675427  0.38052665  -0.00134149  1
  H+  H109  1  0.52056202  0.86125239  0.47113535  1
  H+  H110  1  0.86160526  0.13715165  0.48936367  1
  H+  H111  1  0.36425353  0.46181955  0.01472048  1
  H+  H112  1  0.09935414  0.63191147  0.82767702  1
  H+  H113  1  0.13293546  0.86398714  0.84047507  1
  H+  H114  1  0.87752021  0.40586142  0.82496868  1
  H+  H115  1  0.61035417  0.21614885  0.49377858  1
  H+  H116  1  0.84955458  0.12634513  0.15393061  1
  H+  H117  1  0.86360311  0.63683186  0.82812422  1
  H+  H118  1  0.39117456  0.53412721  0.83785148  1
  H+  H119  1  0.14521446  0.52269477  0.99619570  1
  H+  H120  1  0.75669690  0.37725400  0.16487642  1
  H+  H121  1  0.63554482  0.26369773  0.99269136  1
  H+  H122  1  0.63362006  0.76974394  0.50348772  1
  H+  H123  1  0.63755707  0.78355647  0.84269920  1
  H+  H124  1  0.62417547  0.75981428  0.98787441  1
  H+  H125  1  0.85673460  0.89011515  0.16551138  1
  H+  H126  1  0.63528225  0.10366489  0.50753972  1
  H+  H127  1  0.01760503  0.62454620  0.00661675  1
  H+  H128  1  0.47637181  0.36108734  0.83604317  1
  H+  H129  1  0.87028686  0.03147204  0.96876946  1
  H+  H130  1  0.91759696  0.82930953  0.93986828  1
  H+  H131  1  0.11154410  -0.01538656  0.15998711  1
  H+  H132  1  0.28212305  0.40305565  0.48508075  1
  H+  H133  1  0.50648952  0.12946491  0.34500847  1
  H+  H134  1  0.51806699  0.62357851  0.68561974  1
  H+  H135  1  0.64241019  0.26500676  0.84468960  1
  H+  H136  1  0.38889923  0.87094565  0.33121001  1
  H+  H137  1  0.33551407  0.18430637  0.72853060  1
  H+  H138  1  0.65761123  0.38319438  0.17095337  1
  H+  H139  1  0.14328923  0.27046375  -0.00819610  1
  H+  H140  1  0.62524548  0.76495122  0.32684594  1
  H+  H141  1  0.53149755  0.24086818  0.72348921  1
  H+  H142  1  0.35995548  0.76263536  0.52493231  1
  H+  H143  1  0.13549172  0.10375299  0.84588710  1
  H+  H144  1  1.00415543  0.41247630  0.84333473  1
  H+  H145  1  0.12417247  0.63266413  0.48975950  1
  H+  H146  1  0.76933222  0.37726788  1.00738499  1
  H+  H147  1  0.86823139  0.56879412  0.16827888  1
  H+  H148  1  0.57341614  0.90828335  0.05782957  1
  H+  H149  1  0.23185029  0.63119236  0.16143087  1
  H+  H150  1  0.61760977  0.97709236  0.31931920  1
  H+  H151  1  0.35131040  0.88722520  0.50181856  1
  H+  H152  1  0.13798270  0.87143351  0.66799394  1
  H+  H153  1  0.58596360  0.49117029  0.51922580  1
  H+  H154  1  0.18702534  0.60463108  0.22640821  1
  H+  H155  1  0.59893817  0.71624941  0.15231768  1
  H+  H156  1  0.75013769  0.86833143  0.65780352  1
  H+  H157  1  0.52461627  0.12404232  0.83673010  1
  H+  H158  1  0.23279158  0.35717035  -0.00635403  1
  H+  H159  1  1.00414881  0.17975265  0.98900040  1
  H+  H160  1  0.79956293  0.62921759  0.37981209  1
  H+  H161  1  0.27317536  0.89356863  0.68110349  1
  H+  H162  1  0.02324419  0.63650241  0.16361137  1
  H+  H163  1  0.88211884  0.77494406  0.32024775  1
  H+  H164  1  0.36084522  0.21336272  0.15725020  1
  H+  H165  1  0.60243073  0.96050281  0.15305095  1
  H+  H166  1  0.88175035  0.85524470  0.64854769  1
  H+  H167  1  0.50801524  0.12277247  0.15723676  1
  H+  H168  1  0.37765871  0.77330684  0.98810406  1
  H+  H169  1  0.35648351  0.98322703  0.34384968  1
  H+  H170  1  0.88151043  0.76883375  0.84227057  1
  H+  H171  1  0.86997564  1.00806067  0.66357058  1
  H+  H172  1  0.59215100  0.41666959  0.05625430  1
  H+  H173  1  0.17935611  0.37303561  0.66729940  1
  H+  H174  1  0.38125899  0.30121283  0.65438929  1
  H+  H175  1  0.87979653  0.52493537  0.83417748  1
  H+  H176  1  0.34537079  0.16792763  0.09208397  1
  H+  H177  1  0.67243651  -0.00246165  0.47859122  1
  H+  H178  1  0.82995501  0.11892208  0.33771698  1
  H+  H179  1  0.63751561  0.61538169  0.67287288  1
  H+  H180  1  0.91615470  0.84088649  0.26440537  1
  H+  H181  1  0.91943379  0.63334120  0.49595061  1
  H+  H182  1  0.86746783  0.38144865  0.67174918  1
  H+  H183  1  0.35884964  0.89302628  0.16357904  1
  H+  H184  1  0.22505086  0.35322357  0.17229826  1
  H+  H185  1  0.51326740  0.62577277  0.35802775  1
  H+  H186  1  0.61859756  0.12591881  0.32430528  1
  H+  H187  1  0.37688058  0.74150269  0.35270710  1
  H+  H188  1  0.93273257  0.09008455  0.70030731  1
  H+  H189  1  0.77658861  0.87618265  0.49350807  1
  H+  H190  1  0.26287693  0.63641328  1.00008269  1
  H+  H191  1  0.37109891  0.01921916  0.18139817  1
  H+  H192  1  0.89583079  0.86667563  0.50226694  1
  H+  H193  1  0.14581486  0.37268846  0.16539775  1
  H+  H194  1  0.14800001  0.11428882  0.49176003  1
  H+  H195  1  0.85799400  0.62544766  0.32747784  1
  H+  H196  1  1.02277608  0.89050679  0.67476942  1
  H+  H197  1  0.98171184  0.87127824  0.99763640  1
  H+  H198  1  0.38099409  0.35542723  0.48900692  1
  H+  H199  1  0.07971645  0.13745709  0.33735962  1
  H+  H200  1  0.63409494  0.27819219  0.66006547  1
  H+  H201  1  0.33762926  0.52872947  0.14870371  1
  H+  H202  1  0.35516988  0.84276710  0.83811739  1
  H+  H203  1  0.35685246  0.62198138  0.68395593  1
  H+  H204  1  0.74444431  0.12635146  0.34113216  1
  H+  H205  1  0.38352294  0.43538588  0.65610530  1
  H+  H206  1  0.60560032  0.87869056  1.00047041  1
  H+  H207  1  0.14755989  0.33656896  0.25480497  1
  H+  H208  1  0.10854901  0.88291213  0.33996993  1
  H+  H209  1  0.25324650  0.64119466  0.33300182  1
  H+  H210  1  0.46786438  0.61692137  0.51819685  1
  H+  H211  1  0.53886555  0.37976919  0.15586879  1
  H+  H212  1  0.44792089  0.22680048  0.05185471  1
  H+  H213  1  0.73079792  0.61267452  0.82554890  1
  H+  H214  1  0.40426012  0.19895666  0.32426261  1
  H+  H215  1  0.85873083  0.24982152  0.17399148  1
  H+  H216  1  0.84753568  0.21938562  0.66725427  1
  H+  H217  1  0.27171937  0.89228537  0.34245280  1
  H+  H218  1  0.60713542  0.38029099  0.48889643  1
  H+  H219  1  0.13273047  0.78004462  0.17551040  1
  H+  H220  1  -0.01905235  0.36301249  0.50363127  1
  H+  H221  1  0.86857898  0.67672894  0.17078207  1
  H+  H222  1  0.13046651  0.23127114  0.82692476  1
  H+  H223  1  0.37036099  0.13140602  0.49166895  1
  H+  H224  1  0.38623683  1.02482970  0.51501348  1
  H+  H225  1  0.62239457  0.76222355  0.65779573  1
  H+  H226  1  0.07577155  0.65797243  0.06574526  1
  H+  H227  1  0.14657122  0.28757849  0.50097857  1
  H+  H228  1  0.64303723  0.35425618  0.84229988  1
  H+  H229  1  0.94402019  0.11305345  0.32063355  1
  H+  H230  1  0.10638593  0.16614319  0.76964587  1
  H+  H231  1  0.52186816  0.13201520  -0.00217362  1
  H+  H232  1  0.14616826  0.76842815  0.51743394  1
  H+  H233  1  0.10696198  -0.00663558  1.00155601  1
  H+  H234  1  0.47852860  0.87185390  0.32716500  1
  H+  H235  1  0.87668355  0.73100325  1.01512273  1
  H+  H236  1  0.09940712  0.21909136  0.15918238  1
  H+  H237  1  0.86881547  0.63910533  0.67354887  1
  H+  H238  1  1.01823096  0.88289872  0.33935393  1
  H+  H239  1  0.36200922  0.89676943  0.00968988  1
  H+  H240  1  0.35922100  0.63849850  0.50872649  1
  H+  H241  1  0.97758600  0.61848731  0.66467804  1
  H+  H242  1  0.26278878  0.87852625  0.83149142  1
  H+  H243  1  0.27846662  0.90775394  1.01059257  1
  H+  H244  1  0.11806752  0.39070327  0.48638868  1
  H+  H245  1  0.36816926  0.62640569  0.13765364  1
  H+  H246  1  0.37353848  0.40029629  0.81845824  1
  H+  H247  1  0.85561139  0.88398866  0.33573385  1
  H+  H248  1  0.12129656  0.65499958  0.67824024  1
  H+  H249  1  0.08572132  0.16855473  0.57126961  1
  H+  H250  1  0.41378142  0.08657051  0.57421857  1
  H+  H251  1  0.40057648  0.34526343  0.17365823  1
  H+  H252  1  0.90978787  0.53536492  0.51468956  1
  H+  H253  1  0.77351797  0.14424474  0.00159524  1
  H+  H254  1  0.39864160  0.27138949  -0.00520433  1
  H+  H255  1  0.87283407  0.51421007  0.32352936  1
  H+  H256  1  0.73714861  0.68358819  0.51170554  1
  H+  H257  1  0.38002151  0.26461313  0.48942102  1
  H+  H258  1  0.17691367  0.32779167  0.89537503  1
  H+  H259  1  0.13516703  0.48795986  0.15437621  1
  H+  H260  1  0.88106625  1.01409979  0.49704159  1
  H+  H261  1  0.61434137  0.88685169  0.32503315  1
  H+  H262  1  0.84001964  0.67973890  0.09971469  1
  H+  H263  1  0.26726490  0.63196094  0.50267179  1
  H+  H264  1  0.10866374  0.89405030  0.16156071  1
  H+  H265  1  0.34645021  0.73866205  0.84115059  1
  H+  H266  1  0.59892648  0.86961556  0.15408257  1
  H+  H267  1  0.14032756  0.77834445  0.32690015  1
  H+  H268  1  0.51361705  0.64645005  0.83433876  1
  H+  H269  1  0.35111668  0.23094609  0.82286405  1
  H+  H270  1  0.64513253  0.57983246  0.78812655  1
  H+  H271  1  0.85272720  0.35877582  0.15960449  1
  H+  H272  1  0.47895792  0.36377310  0.98462988  1
  H+  H273  1  0.52137799  0.12901859  0.50196796  1
  H+  H274  1  0.64676257  0.07000592  0.22031049  1
  H+  H275  1  0.83774833  0.24868583  0.33428754  1
  H+  H276  1  0.97129103  0.34423094  0.65626856  1
  H+  H277  1  0.11047608  0.12998505  0.00027661  1
  H+  H278  1  0.91980561  0.32681081  0.59377266  1
  H+  H279  1  0.27402950  0.15169656  0.67336944  1
  H+  H280  1  0.87599775  0.17594828  1.00270083  1
  H+  H281  1  0.39128397  0.03221221  0.99930259  1
  H+  H282  1  0.63045959  1.01179602  0.83495315  1
  H+  H283  1  0.88924940  0.27437639  0.50210266  1
  H+  H284  1  0.35253441  0.14690128  0.42336489  1
  H+  H285  1  0.85616029  0.86050913  0.01174378  1
  H+  H286  1  0.38090805  0.03355663  0.66972866  1
  H+  H287  1  0.60106223  0.62861242  0.33900267  1
  H+  H288  1  0.84647252  0.95265638  0.79739343  1
  H+  H289  1  0.85382151  0.20074713  0.76664002  1
  H+  H290  1  0.80728007  0.87844805  0.71458764  1
  H+  H291  1  0.27802168  0.31326079  0.35110181  1
  H+  H292  1  0.16117986  0.57648711  0.56912520  1
  H+  H293  1  0.58810442  0.10923931  0.15005232  1
  H+  H294  1  0.46443114  0.60402754  1.00277267  1
  H+  H295  1  0.70211317  0.36884294  0.23441955  1
  H+  H296  1  0.16990635  0.83696226  0.61107913  1
  H+  H297  1  0.82159541  0.16341395  0.43484681  1
  H+  H298  1  0.12175296  0.64092995  0.33490576  1
  H+  H299  1  0.57322277  0.65727105  0.44020157  1
  H+  H300  1  0.65177988  0.82003605  0.59566261  1
  H+  H301  1  0.52276469  0.49554589  0.56598527  1
  H+  H302  1  0.89121340  0.52824040  0.66572635  1
  H+  H303  1  0.50120018  0.15738874  0.68538499  1
  H+  H304  1  1.01917377  0.13308116  0.62530389  1
  H+  H305  1  0.44365805  0.85195773  0.53130346  1
  H+  H306  1  0.66119718  0.07796601  0.89956557  1
  H+  H307  1  0.35361229  0.45967054  0.43508635  1
  H+  H308  1  0.82996721  0.39973994  0.09491470  1
  H+  H309  1  0.66427449  0.83728783  0.90420593  1
  H+  H310  1  0.57825439  0.67064597  0.74273900  1
  H+  H311  1  0.90681062  0.57766215  0.93346494  1
  H+  H312  1  0.11862958  0.38171506  0.00241509  1
  H+  H313  1  0.42600959  0.07568161  0.90384976  1
  H+  H314  1  0.40648715  0.56120230  0.61224353  1
  H+  H315  1  0.40299722  0.34098488  0.58909948  1
  H+  H316  1  0.07233834  0.41199985  0.43090748  1
  H+  H317  1  0.13661897  0.27703700  0.64074847  1
  H+  H318  1  0.33909054  0.39234248  0.09842743  1
  H+  H319  1  0.07909415  0.92897228  0.06244407  1
  H+  H320  1  0.10434140  0.42548555  0.09582167  1
  H+  H321  1  0.67157410  0.32577340  0.93428685  1
  H+  H322  1  0.02015267  0.13904484  0.48799752  1
  H+  H323  1  0.07990600  0.91567145  0.41989465  1
  H+  H324  1  0.90481341  0.07315537  0.55524650  1
  H+  H325  1  0.84655765  0.94296716  0.01220384  1
  H+  H326  1  0.89323269  0.07464189  0.25892201  1
  H+  H327  1  0.12055650  0.50470883  0.76748706  1
  H+  H328  1  0.65414555  0.06742928  0.60283225  1
  H+  H329  1  0.32816542  0.68679352  0.08298356  1
  H+  H330  1  0.32599194  0.91016553  0.77264552  1
  H+  H331  1  0.13610264  0.03066923  0.67723130  1
  H+  H332  1  0.90246783  0.05836440  0.85785313  1
  H+  H333  1  0.38049628  0.61596872  0.84468334  1
  H+  H334  1  0.81335836  0.36674402  0.33380413  1
  H+  H335  1  0.07738999  0.91673429  0.73707716  1
  H+  H336  1  0.87535221  0.39621219  0.52000456  1
  H+  H337  1  0.64834412  0.57242119  0.61382669  1
  H+  H338  1  0.58690683  0.92256529  0.76933300  1
  H+  H339  1  0.64255024  0.56709912  0.91436653  1
  H+  H340  1  0.73233068  0.35587384  0.65564717  1
  H+  H341  1  0.43899512  0.31607743  0.22942851  1
  H+  H342  1  0.73035033  0.11912443  0.51206334  1
  H+  H343  1  0.59299583  0.40470396  0.76920126  1
  H+  H344  1  0.40745981  0.52404669  0.24634216  1
  H+  H345  1  0.93007487  0.35599455  0.93222258  1
  H+  H346  1  0.15785178  0.07256365  0.90787141  1
  H+  H347  1  1.01085492  0.62463907  0.49602621  1
  H+  H348  1  0.35607877  0.63995170  0.00479274  1
  H+  H349  1  0.39544323  0.81922863  0.62156971  1
  H+  H350  1  0.64962098  0.94600096  0.41674848  1
  H+  H351  1  0.90566505  0.70608776  0.42476209  1
  H+  H352  1  0.87175489  0.30433095  0.23543562  1
  H+  H353  1  0.59563905  0.42105432  0.39624300  1
  H+  H354  1  0.56631433  0.15033020  0.40481476  1
  H+  H355  1  0.22629928  0.60708348  0.66715252  1
  H+  H356  1  0.91474272  0.57057385  0.26538557  1
  H+  H357  1  0.82963286  0.90813190  0.43149535  1
  H+  H358  1  0.07498399  0.67266194  0.77252704  1
  H+  H359  1  0.65237764  0.57886594  0.25358950  1
  H+  H360  1  0.31544644  0.65278424  0.77724847  1
  H+  H361  1  0.09224918  0.18262408  0.43642715  1
  H+  H362  1  0.33137630  0.92496771  0.10407364  1
  H+  H363  1  0.66298199  0.32789959  0.56090655  1
  H+  H364  1  0.57985209  0.16918324  0.77622571  1
  H+  H365  1  0.41544562  0.33642860  0.89406466  1
  H+  H366  1  0.42614507  0.57202394  0.24909200  1
  H+  H367  1  0.92908111  0.83926436  0.56239834  1
  H+  H368  1  0.36837435  0.37367886  0.00531809  1
  H+  H369  1  0.39134323  0.81591713  0.90069654  1
  H+  H370  1  0.16625599  0.83846330  0.26788965  1
  H+  H371  1  0.82086365  0.16246024  0.09602582  1
  H+  H372  1  0.34956907  0.44029760  0.76125664  1
  H+  H373  1  0.50429129  0.34680928  0.32390569  1
  H+  H374  1  0.09630607  0.66602982  0.42842767  1
  H+  H375  1  0.58121821  0.65686814  0.05182744  1
  H+  H376  1  0.17951200  0.85975374  0.93865066  1
  H+  H377  1  0.22188832  0.86909922  0.17495753  1
  H+  H378  1  0.81931731  0.90262258  0.10347540  1
  H+  H379  1  0.95414061  0.17069721  0.92789786  1
  H+  H380  1  0.08093049  0.16269744  0.06120821  1
  H+  H381  1  0.41341824  0.83616610  0.23195678  1
  H+  H382  1  0.61643305  0.46147255  0.82837477  1
  H+  H383  1  0.17895091  0.09664593  0.22406748  1
  O2-  O384  1  0.06779758  0.15822036  0.14635870  1
  O2-  O385  1  0.08341245  0.17510750  0.48120513  1
  O2-  O386  1  0.09468510  0.16759846  0.81272504  1
  O2-  O387  1  0.11185361  0.42781843  0.14112117  1
  O2-  O388  1  0.08237259  0.41767606  0.47535938  1
  O2-  O389  1  0.11006506  0.49400715  0.81152609  1
  O2-  O390  1  0.08294140  0.67442573  0.15039347  1
  O2-  O391  1  0.09533600  0.66456719  0.47414218  1
  O2-  O392  1  0.07143942  0.66774164  0.81768460  1
  O2-  O393  1  0.07738790  0.92317451  0.14655542  1
  O2-  O394  1  0.08598887  0.92283345  0.46912684  1
  O2-  O395  1  0.07993327  0.91502795  0.81361280  1
  O2-  O396  1  0.32549775  0.15598663  0.13862227  1
  O2-  O397  1  0.34197302  0.15675317  0.46587623  1
  O2-  O398  1  0.32396298  0.17404536  0.80301231  1
  O2-  O399  1  0.33907016  0.39090699  0.14538777  1
  O2-  O400  1  0.34512126  0.43417004  0.47578364  1
  O2-  O401  1  0.34329920  0.43179196  0.80566131  1
  O2-  O402  1  0.32807081  0.68427945  0.12972584  1
  O2-  O403  1  0.32947328  0.66869436  0.49186542  1
  O2-  O404  1  0.30912770  0.65471897  0.82201155  1
  O2-  O405  1  0.32703155  0.92225744  0.14999090  1
  O2-  O406  1  0.32977836  0.92383686  0.48428804  1
  O2-  O407  1  0.32439735  0.90192667  0.81797166  1
  O2-  O408  1  0.56293067  0.14400881  0.13569117  1
  O2-  O409  1  0.57962114  0.15425526  0.48274158  1
  O2-  O410  1  0.58702273  0.16057386  0.82002030  1
  O2-  O411  1  0.59925647  0.41517754  0.14046268  1
  O2-  O412  1  0.57709898  0.41009140  0.47231313  1
  O2-  O413  1  0.58695427  0.40083762  0.81533786  1
  O2-  O414  1  0.57091315  0.65694294  0.13436011  1
  O2-  O415  1  0.56755137  0.66064144  0.48517328  1
  O2-  O416  1  0.57741712  0.67895978  0.82013153  1
  O2-  O417  1  0.56879357  0.89962340  0.13825548  1
  O2-  O418  1  0.68433048  0.95814211  0.45396818  1
  O2-  O419  1  0.59220337  0.92964750  0.81460989  1
  O2-  O420  1  0.81486607  0.15305388  0.14158036  1
  O2-  O421  1  0.83470078  0.17225007  0.47934067  1
  O2-  O422  1  0.87469571  0.21966655  0.80835638  1
  O2-  O423  1  0.83015541  0.39871634  0.14172047  1
  O2-  O424  1  0.84842398  0.43305482  0.52670300  1
  O2-  O425  1  0.83664213  0.42232333  0.80619495  1
  O2-  O426  1  0.82838625  0.68583262  0.14685089  1
  O2-  O427  1  0.88867689  0.69077461  0.46705741  1
  O2-  O428  1  0.83199580  0.66670137  0.81248934  1
  O2-  O429  1  0.81903310  0.91162398  0.14847137  1
  O2-  O430  1  0.83642978  0.91025801  0.47678796  1
  O2-  O431  1  0.83881964  0.93242150  0.83917719  1
  O2-  O432  1  0.16567816  0.09034304  0.17966644  1
  O2-  O433  1  0.17381631  0.07878349  0.50146904  1
  O2-  O434  1  0.16215354  0.07056615  0.86084365  1
  O2-  O435  1  0.16560809  0.33322682  0.18610742  1
  O2-  O436  1  0.17835355  0.34975240  0.51094148  1
  O2-  O437  1  0.17441831  0.32254876  0.85021204  1
  O2-  O438  1  0.17474407  0.59736894  0.18245705  1
  O2-  O439  1  0.16375645  0.57788664  0.52377051  1
  O2-  O440  1  0.15053474  0.58010761  0.83824351  1
  O2-  O441  1  0.16189929  0.84019378  0.19149092  1
  O2-  O442  1  0.16942983  0.82512115  0.53643678  1
  O2-  O443  1  0.16456361  0.83570391  0.85698857  1
  O2-  O444  1  0.39761838  0.07964028  0.19774699  1
  O2-  O445  1  0.41829995  0.08615684  0.52867815  1
  O2-  O446  1  0.43502332  0.07056692  0.85950731  1
  O2-  O447  1  0.43706666  0.32007490  0.18427935  1
  O2-  O448  1  0.41006493  0.32490500  0.50472135  1
  O2-  O449  1  0.41631957  0.34144038  0.84872092  1
  O2-  O450  1  0.38848894  0.58214647  0.13687640  1
  O2-  O451  1  0.40899280  0.58434081  0.53663796  1
  O2-  O452  1  0.42007386  0.59405963  0.85373522  1
  O2-  O453  1  0.41125844  0.83796237  0.18686227  1
  O2-  O454  1  0.38300283  0.82187203  0.54292768  1
  O2-  O455  1  0.38090908  0.80608374  0.85475369  1
  O2-  O456  1  0.64977214  0.06192908  0.17618633  1
  O2-  O457  1  0.66971880  0.07790101  0.52299172  1
  O2-  O458  1  0.66123250  0.07766056  0.85288362  1
  O2-  O459  1  0.69376141  0.35905196  0.18927309  1
  O2-  O460  1  0.66214274  0.32859530  0.51520025  1
  O2-  O461  1  0.67645978  0.32684232  0.85713474  1
  O2-  O462  1  0.65747327  0.57939345  0.17550857  1
  O2-  O463  1  0.57854374  0.53154798  0.54685033  1
  O2-  O464  1  0.66535377  0.58054110  0.82937903  1
  O2-  O465  1  0.65178248  0.81721006  0.18256811  1
  O2-  O466  1  0.67213145  0.82838051  0.52008491  1
  O2-  O467  1  0.67047938  0.84383901  0.85854266  1
  O2-  O468  1  0.90317535  0.07652479  0.18622608  1
  O2-  O469  1  0.91189545  0.07606595  0.51113222  1
  O2-  O470  1  0.93718319  0.12099868  0.85396019  1
  O2-  O471  1  0.88368252  0.30923219  0.19123083  1
  O2-  O472  1  0.92099347  0.33375955  0.52019768  1
  O2-  O473  1  0.94354804  0.37433453  0.85514102  1
  O2-  O474  1  0.91003234  0.55644687  0.18698950  1
  O2-  O475  1  0.94758843  0.60029629  0.51381706  1
  O2-  O476  1  0.90870164  0.58366130  0.85269849  1
  O2-  O477  1  0.91849836  0.85092887  0.18916242  1
  O2-  O478  1  0.93258335  0.84254006  0.51660671  1
  O2-  O479  1  0.91403139  0.82795871  0.86003735  1
  O2-  O480  1  0.20975454  0.11037186  0.29883466  1
  O2-  O481  1  0.16534472  0.09437641  0.67701067  1
  O2-  O482  1  0.14773516  0.07784398  0.97735123  1
  O2-  O483  1  0.13513378  0.33501443  0.30110488  1
  O2-  O484  1  0.16896623  0.33876802  0.63075880  1
  O2-  O485  1  0.17415670  0.33128644  0.97617154  1
  O2-  O486  1  0.19529358  0.60880361  0.31178028  1
  O2-  O487  1  0.16719998  0.58766642  0.64868999  1
  O2-  O488  1  0.17372841  0.58407661  0.98415361  1
  O2-  O489  1  0.16785447  0.83904692  0.31380975  1
  O2-  O490  1  0.16989885  0.84085131  0.65687106  1
  O2-  O491  1  0.18862783  0.87365467  0.98243040  1
  O2-  O492  1  0.40324029  0.08849440  0.31306864  1
  O2-  O493  1  0.40956593  0.09209945  0.65145305  1
  O2-  O494  1  0.42347870  0.08936880  0.97892829  1
  O2-  O495  1  0.44503575  0.30589645  0.30815741  1
  O2-  O496  1  0.40301664  0.35630183  0.63216537  1
  O2-  O497  1  0.41732535  0.32981036  0.97307550  1
  O2-  O498  1  0.40166022  0.56619490  0.37378653  1
  O2-  O499  1  0.41203470  0.56008457  0.65806253  1
  O2-  O500  1  0.40148947  0.57195799  1.01222680  1
  O2-  O501  1  0.41639924  0.83789962  0.31630811  1
  O2-  O502  1  0.40200921  0.81869272  0.66651803  1
  O2-  O503  1  0.40687729  0.83348649  0.97080734  1
  O2-  O504  1  0.66156385  0.11627870  0.29768729  1
  O2-  O505  1  0.64628342  0.06398868  0.64773059  1
  O2-  O506  1  0.66353088  0.07835284  0.97158342  1
  O2-  O507  1  0.71045335  0.36793938  0.30947706  1
  O2-  O508  1  0.67387801  0.33169803  0.63743239  1
  O2-  O509  1  0.66828115  0.32582243  0.97984386  1
  O2-  O510  1  0.65610472  0.58137367  0.29920881  1
  O2-  O511  1  0.66897374  0.58710678  0.65636928  1
  O2-  O512  1  0.64079415  0.57051461  0.95861422  1
  O2-  O513  1  0.65603942  0.82290357  0.30754558  1
  O2-  O514  1  0.65235534  0.82203698  0.64141175  1
  O2-  O515  1  0.65755205  0.82329638  0.97843059  1
  O2-  O516  1  0.88681928  0.07370294  0.30523035  1
  O2-  O517  1  0.90608859  0.07221655  0.66026304  1
  O2-  O518  1  0.96193543  0.19317521  0.96980838  1
  O2-  O519  1  0.86168561  0.30830356  0.31750899  1
  O2-  O520  1  0.91404726  0.32382389  0.63975247  1
  O2-  O521  1  0.92407144  0.35170266  0.97757723  1
  O2-  O522  1  0.91282786  0.57478174  0.31051972  1
  O2-  O523  1  0.91702936  0.58771929  0.65055316  1
  O2-  O524  1  0.90742004  0.57856313  0.97882905  1
  O2-  O525  1  0.91314810  0.83664493  0.31026491  1
  O2-  O526  1  0.91956460  0.83197395  0.63781905  1
  O2-  O527  1  0.91851171  0.83191896  0.98515081  1
  O2-  O528  1  0.08702281  0.16943840  0.01669319  1
  O2-  O529  1  0.11698600  0.19200164  0.35756728  1
  O2-  O530  1  0.08072052  0.16617373  0.61558095  1
  O2-  O531  1  0.09209911  0.41440853  0.01981740  1
  O2-  O532  1  0.03301976  0.39073841  0.35191700  1
  O2-  O533  1  0.11233235  0.50531097  0.68088850  1
  O2-  O534  1  0.07703454  0.64882177  0.02171742  1
  O2-  O535  1  0.08728925  0.66529859  0.35224855  1
  O2-  O536  1  0.08516332  0.67820513  0.69293457  1
  O2-  O537  1  0.07679186  0.92787200  0.01753320  1
  O2-  O538  1  0.07655695  0.91010420  0.35769714  1
  O2-  O539  1  0.08187783  0.91970193  0.69142092  1
  O2-  O540  1  0.39057835  0.19634726  0.03393652  1
  O2-  O541  1  0.36482689  0.13770154  0.33763364  1
  O2-  O542  1  0.33715733  0.18483337  0.68244593  1
  O2-  O543  1  0.33704837  0.40017136  0.02705127  1
  O2-  O544  1  0.32874499  0.36476651  0.33630927  1
  O2-  O545  1  0.35888502  0.46911856  0.67652152  1
  O2-  O546  1  0.32823826  0.67482957  0.01311896  1
  O2-  O547  1  0.34403920  0.68126931  0.36929053  1
  O2-  O548  1  0.32426220  0.65062970  0.69576577  1
  O2-  O549  1  0.33858202  0.93044256  0.02890840  1
  O2-  O550  1  0.33195998  0.92293753  0.35828370  1
  O2-  O551  1  0.33378184  0.92477609  0.69687934  1
  O2-  O552  1  0.58322174  0.15968901  0.01402313  1
  O2-  O553  1  0.56621843  0.15375880  0.35953728  1
  O2-  O554  1  0.55290274  0.20440517  0.70751442  1
  O2-  O555  1  0.58762328  0.41328094  0.01137933  1
  O2-  O556  1  0.60271806  0.41990618  0.35088826  1
  O2-  O557  1  0.60483379  0.41813656  0.69755650  1
  O2-  O558  1  0.57460571  0.65782734  0.00709947  1
  O2-  O559  1  0.57702891  0.66079928  0.36034274  1
  O2-  O560  1  0.57874938  0.66324807  0.69742035  1
  O2-  O561  1  0.57616915  0.91115644  0.01247026  1
  O2-  O562  1  0.59000957  0.92261016  0.34126106  1
  O2-  O563  1  0.57226719  0.90869447  0.69246858  1
  O2-  O564  1  0.82856363  0.18303823  0.02224404  1
  O2-  O565  1  0.80317958  0.14871919  0.35884603  1
  O2-  O566  1  0.81607599  0.16315857  0.68850212  1
  O2-  O567  1  0.82902573  0.41191864  0.02438222  1
  O2-  O568  1  0.79382379  0.40971679  0.34110828  1
  O2-  O569  1  0.83623345  0.41159010  0.68397978  1
  O2-  O570  1  0.84841416  0.67390348  0.03570347  1
  O2-  O571  1  0.82617576  0.65569910  0.34102437  1
  O2-  O572  1  0.84113039  0.67339408  0.68799942  1
  O2-  O573  1  0.81805720  0.88408194  0.02785530  1
  O2-  O574  1  0.82075366  0.90861466  0.35255802  1
  O2-  O575  1  0.81286118  0.89829110  0.67269526  1
