# generated using pymatgen
data_H2O
_symmetry_space_group_name_H-M   'P 1'
_cell_length_a   17.96324722
_cell_length_b   17.97114871
_cell_length_c   22.00409246
_cell_angle_alpha   90.00289275
_cell_angle_beta   89.98456905
_cell_angle_gamma   119.99995618
_symmetry_Int_Tables_number   1
_chemical_formula_structural   H2O
_chemical_formula_sum   'H384 O192'
_cell_volume   6151.69721731
_cell_formula_units_Z   192
loop_
 _symmetry_equiv_pos_site_id
 _symmetry_equiv_pos_as_xyz
  1  'x, y, z'
loop_
 _atom_type_symbol
 _atom_type_oxidation_number
  H+  1.0
  O2-  -2.0
loop_
 _atom_site_type_symbol
 _atom_site_label
 _atom_site_symmetry_multiplicity
 _atom_site_fract_x
 _atom_site_fract_y
 _atom_site_fract_z
 _atom_site_occupancy
  H+  H0  1  0.13316811  0.15746763  0.83024315  1
  H+  H1  1  0.48601665  0.86494512  0.49899944  1
  H+  H2  1  0.60858797  0.97482029  0.16064035  1
  H+  H3  1  0.52253691  0.84181269  0.67038568  1
  H+  H4  1  0.71181461  0.28752009  0.95581451  1
  H+  H5  1  0.65344144  0.88606015  0.50651159  1
  H+  H6  1  0.61129444  0.13689745  0.33971268  1
  H+  H7  1  0.06242343  0.26975368  0.27018227  1
  H+  H8  1  0.30597738  0.38631774  0.34162893  1
  H+  H9  1  0.72103812  0.61135674  0.83978080  1
  H+  H10  1  0.62872041  0.51999789  0.65825710  1
  H+  H11  1  0.36753057  -0.03433254  0.67171838  1
  H+  H12  1  0.65366566  0.15340777  0.65298934  1
  H+  H13  1  0.09687713  0.40398255  0.62517460  1
  H+  H14  1  0.00573755  0.38110569  0.34692121  1
  H+  H15  1  0.13015996  0.48252614  0.16733730  1
  H+  H16  1  0.22946576  0.86762046  -0.01706132  1
  H+  H17  1  0.64281964  0.77390506  0.99195714  1
  H+  H18  1  0.63154339  0.75573350  0.49432765  1
  H+  H19  1  0.64497973  0.11839752  0.84896523  1
  H+  H20  1  0.35960121  0.21319335  0.49826873  1
  H+  H21  1  0.77785186  0.14534910  0.82946681  1
  H+  H22  1  0.91357477  0.90954622  0.00948313  1
  H+  H23  1  0.86178360  0.72817386  0.33657300  1
  H+  H24  1  0.40373631  0.59283231  0.33302905  1
  H+  H25  1  0.48838561  0.34701716  0.33634224  1
  H+  H26  1  0.09574186  0.62537665  0.81590868  1
  H+  H27  1  0.08922948  0.67654812  0.24689800  1
  H+  H28  1  0.16871219  0.82816657  0.89077230  1
  H+  H29  1  0.38062888  0.29578883  0.03725816  1
  H+  H30  1  0.74199556  0.62520755  0.16413357  1
  H+  H31  1  0.48041626  0.84937726  0.84323183  1
  H+  H32  1  0.28263463  0.74807624  0.77456567  1
  H+  H33  1  0.86436891  0.97628893  0.33503727  1
  H+  H34  1  0.64399536  0.61710002  0.65278057  1
  H+  H35  1  0.63759487  0.77158062  0.16791638  1
  H+  H36  1  0.71786545  0.59899879  0.32351105  1
  H+  H37  1  0.73356260  0.86244716  0.84111346  1
  H+  H38  1  0.12197749  0.72807011  0.33754936  1
  H+  H39  1  0.60909839  0.46202276  0.49067468  1
  H+  H40  1  0.89220195  0.86588797  0.32498478  1
  H+  H41  1  0.22890499  0.38144340  0.97184706  1
  H+  H42  1  0.64089230  0.87052354  0.66269288  1
  H+  H43  1  0.94491822  0.85296252  0.65143208  1
  H+  H44  1  0.47501411  0.10496225  0.66761273  1
  H+  H45  1  0.87472797  0.23857138  0.67532512  1
  H+  H46  1  0.38796264  0.37436489  0.34724098  1
  H+  H47  1  -0.02926997  0.37952980  0.65658913  1
  H+  H48  1  0.26932632  0.12371797  0.50076003  1
  H+  H49  1  0.38273874  0.77515789  0.84050509  1
  H+  H50  1  0.43795678  0.58554893  0.69759540  1
  H+  H51  1  0.12642893  0.87258530  0.15764750  1
  H+  H52  1  0.64214851  0.01461356  0.70053009  1
  H+  H53  1  0.47642517  0.35641252  0.83233827  1
  H+  H54  1  0.13366643  0.61844375  0.96549302  1
  H+  H55  1  0.09889724  -0.04770876  0.65857676  1
  H+  H56  1  0.86710805  0.89388139  0.82684850  1
  H+  H57  1  0.86145037  0.97909720  0.16411896  1
  H+  H58  1  0.36828316  0.22865494  0.82242474  1
  H+  H59  1  0.09871508  0.62747398  0.48129552  1
  H+  H60  1  0.53624397  0.62882465  0.15668297  1
  H+  H61  1  0.27754774  0.15622724  0.02317525  1
  H+  H62  1  0.31626840  0.36775987  0.16606882  1
  H+  H63  1  -0.03395129  0.85418796  0.50539357  1
  H+  H64  1  0.11417658  0.73442937  -0.00906616  1
  H+  H65  1  0.15081847  0.62318450  0.17966617  1
  H+  H66  1  0.38816605  1.03974231  0.17178119  1
  H+  H67  1  0.27925878  0.52489499  0.39099339  1
  H+  H68  1  0.88698886  0.27677491  0.81961969  1
  H+  H69  1  0.38011786  0.47463484  0.49852286  1
  H+  H70  1  0.26564625  0.86260298  0.49015724  1
  H+  H71  1  0.60828720  0.61485986  -0.00472582  1
  H+  H72  1  0.12363810  -0.01370591  0.99989863  1
  H+  H73  1  0.01995670  0.38783302  0.00468795  1
  H+  H74  1  0.85410577  0.48739405  0.66654819  1
  H+  H75  1  0.63985496  0.85998353  -0.00797934  1
  H+  H76  1  0.61298291  0.38829972  0.82417767  1
  H+  H77  1  0.10946063  0.87831861  0.49567795  1
  H+  H78  1  0.71869324  0.11169526  0.17403474  1
  H+  H79  1  0.89078003  0.12498426  0.84055196  1
  H+  H80  1  0.36128293  0.13425984  0.82321589  1
  H+  H81  1  0.37550261  0.72722574  0.50174844  1
  H+  H82  1  0.87787593  0.61865582  0.65464033  1
  H+  H83  1  0.11475607  0.86311733  0.81078670  1
  H+  H84  1  0.97358976  0.47211357  0.23375891  1
  H+  H85  1  0.64564764  0.01477674  1.00851721  1
  H+  H86  1  0.42155795  0.08435943  0.23612422  1
  H+  H87  1  0.63483366  0.27505149  0.17202242  1
  H+  H88  1  0.37343619  0.88553741  0.82688207  1
  H+  H89  1  0.65443475  0.07901502  0.26200451  1
  H+  H90  1  0.34137213  0.90739903  0.76382177  1
  H+  H91  1  0.87330575  -0.01615385  0.49098905  1
  H+  H92  1  0.40611978  0.83471639  0.21912663  1
  H+  H93  1  -0.02630247  0.10482695  0.33046509  1
  H+  H94  1  0.32357926  0.16098970  0.08372615  1
  H+  H95  1  0.00123809  0.41381092  0.19870727  1
  H+  H96  1  0.71368657  0.59645497  0.49965120  1
  H+  H97  1  0.38260349  0.09786772  0.66487145  1
  H+  H98  1  0.72407510  0.86289204  0.16846083  1
  H+  H99  1  0.88294152  0.51634248  0.98957986  1
  H+  H100  1  0.85640304  0.63637218  0.82143148  1
  H+  H101  1  0.39248725  0.10750213  0.51134295  1
  H+  H102  1  0.27380098  0.89829256  0.14357590  1
  H+  H103  1  0.74741397  0.36667298  0.34357575  1
  H+  H104  1  0.12858415  0.52776648  0.96468257  1
  H+  H105  1  0.38820839  0.35537560  0.82916466  1
  H+  H106  1  0.22982023  0.85114792  0.83215787  1
  H+  H107  1  0.87408193  0.76793271  0.49981996  1
  H+  H108  1  0.76731771  0.38535526  0.00627975  1
  H+  H109  1  0.85011430  0.13114472  0.17891065  1
  H+  H110  1  0.63472697  0.26660256  0.50563647  1
  H+  H111  1  0.38928411  0.76836718  0.64674073  1
  H+  H112  1  -0.02480294  0.60603601  -0.01664824  1
  H+  H113  1  0.26519325  0.63768240  0.65435877  1
  H+  H114  1  0.12897808  0.09155356  0.66525700  1
  H+  H115  1  0.55224540  0.65754607  0.49470282  1
  H+  H116  1  0.11676349  0.97186446  0.34618966  1
  H+  H117  1  0.13631853  0.86518397  0.34185725  1
  H+  H118  1  0.38825489  0.02178836  0.83476745  1
  H+  H119  1  0.13571283  0.76381913  0.49633910  1
  H+  H120  1  0.62371383  0.38687885  0.16006668  1
  H+  H121  1  0.84193592  0.46055938  0.34442309  1
  H+  H122  1  0.88031417  0.36677798  0.50604243  1
  H+  H123  1  0.63448462  0.11230415  0.49618803  1
  H+  H124  1  0.41577123  0.61457816  0.51515141  1
  H+  H125  1  0.53590967  0.64318182  0.80105346  1
  H+  H126  1  0.67801822  1.02311322  0.72200404  1
  H+  H127  1  0.41787015  0.31535624  0.59484381  1
  H+  H128  1  0.22641587  0.09833362  0.33849608  1
  H+  H129  1  0.60554119  0.38482749  0.66858387  1
  H+  H130  1  0.76657839  0.38260096  0.49583835  1
  H+  H131  1  0.78011009  0.13564344  0.49755242  1
  H+  H132  1  0.13602623  0.36439497  0.81719093  1
  H+  H133  1  0.39714375  0.60901758  0.81428990  1
  H+  H134  1  0.72798648  0.21114135  0.60807633  1
  H+  H135  1  0.10738876  0.96633875  0.49813869  1
  H+  H136  1  0.38669837  0.86664026  0.32466721  1
  H+  H137  1  0.62755852  0.74983660  0.33669219  1
  H+  H138  1  0.87298050  0.65337875  0.15716030  1
  H+  H139  1  0.11668076  0.49455272  0.65075817  1
  H+  H140  1  0.48218582  0.10907820  0.33226186  1
  H+  H141  1  0.03638034  0.15386167  -0.00012576  1
  H+  H142  1  0.13426735  0.10473220  0.50798531  1
  H+  H143  1  0.32372537  0.64417177  0.54170153  1
  H+  H144  1  0.36387243  0.45730629  0.65854377  1
  H+  H145  1  0.37192548  0.12347150  0.98952766  1
  H+  H146  1  0.32040307  0.67497355  0.71383268  1
  H+  H147  1  0.70020497  0.88287330  0.58704275  1
  H+  H148  1  0.19026728  0.38537809  0.17716256  1
  H+  H149  1  0.46269934  0.13204352  -0.01367231  1
  H+  H150  1  0.52834335  0.13842216  0.82849053  1
  H+  H151  1  -0.02277559  0.61065094  0.83641916  1
  H+  H152  1  1.03407745  0.89579208  0.98924617  1
  H+  H153  1  0.65752760  0.32939929  0.59773678  1
  H+  H154  1  0.24562894  0.65572879  0.80277663  1
  H+  H155  1  0.35625014  0.20913046  0.66840641  1
  H+  H156  1  0.14811080  0.13027687  1.00275982  1
  H+  H157  1  0.62881908  0.11183446  0.16648414  1
  H+  H158  1  0.16779959  0.34186239  0.88243518  1
  H+  H159  1  0.96347161  0.60804860  0.49945879  1
  H+  H160  1  0.52094372  0.14367992  0.16018385  1
  H+  H161  1  0.11143374  0.24194712  0.15690121  1
  H+  H162  1  0.88505531  0.77426721  0.83229876  1
  H+  H163  1  0.12526565  0.24223206  -0.00453322  1
  H+  H164  1  0.13811685  0.09965384  0.33532352  1
  H+  H165  1  0.97634534  0.62227995  0.18616548  1
  H+  H166  1  0.42728008  0.49988075  0.18047612  1
  H+  H167  1  0.13621098  0.37235250  -0.03022120  1
  H+  H168  1  0.58745264  0.17097771  0.73597002  1
  H+  H169  1  0.85672809  0.38939706  0.02186721  1
  H+  H170  1  0.61026116  0.47610442  0.82298667  1
  H+  H171  1  0.88603035  0.87002466  0.17504288  1
  H+  H172  1  0.61857128  0.69196376  0.72102576  1
  H+  H173  1  0.21354900  0.60822377  0.49332652  1
  H+  H174  1  0.97787173  0.85651139  0.82737134  1
  H+  H175  1  0.84714062  0.92371127  0.10451708  1
  H+  H176  1  0.47301821  0.34867484  0.65702303  1
  H+  H177  1  0.11256897  0.38434335  0.49436843  1
  H+  H178  1  0.63135691  0.35431316  0.50413147  1
  H+  H179  1  0.73324050  0.86860078  0.32118131  1
  H+  H180  1  0.36208178  0.74525799  0.03814661  1
  H+  H181  1  0.71746398  0.36702235  0.65697949  1
  H+  H182  1  0.37324719  0.98090433  0.34515625  1
  H+  H183  1  0.36268789  0.74456454  0.13262919  1
  H+  H184  1  0.61547767  0.88718924  0.33531542  1
  H+  H185  1  0.12634021  0.61931532  0.64922500  1
  H+  H186  1  0.47290384  0.86825379  0.16473826  1
  H+  H187  1  0.63440303  0.61355116  0.83263932  1
  H+  H188  1  0.15237921  0.05773187  0.86016210  1
  H+  H189  1  0.89196647  0.31556308  0.96247945  1
  H+  H190  1  0.01229720  0.88371866  0.14696745  1
  H+  H191  1  0.62391354  0.72935139  0.82087382  1
  H+  H192  1  0.02866178  0.13760221  0.49679314  1
  H+  H193  1  0.36642724  0.20911751  0.35367644  1
  H+  H194  1  -0.03470504  0.60374025  0.32710141  1
  H+  H195  1  0.91755702  1.03955959  -0.00282641  1
  H+  H196  1  0.27954320  0.89231593  0.34635571  1
  H+  H197  1  0.98035565  0.86324115  0.32753140  1
  H+  H198  1  0.37819743  0.60510329  0.65878496  1
  H+  H199  1  0.09319424  0.41775911  0.74036434  1
  H+  H200  1  0.72365652  0.36555885  0.17676901  1
  H+  H201  1  0.61478735  0.98040508  0.49082702  1
  H+  H202  1  0.85594129  0.39865479  0.66979371  1
  H+  H203  1  0.38777277  0.55694306  0.99337924  1
  H+  H204  1  0.78732553  0.86369457  0.65191794  1
  H+  H205  1  0.57539784  0.69470508  0.65945524  1
  H+  H206  1  0.62003323  0.51860867  -0.01156198  1
  H+  H207  1  0.27991642  0.87559183  0.66761724  1
  H+  H208  1  0.10246268  0.71804328  0.82267050  1
  H+  H209  1  0.87058625  0.74100040  0.15549372  1
  H+  H210  1  0.64627979  0.58048833  0.92686114  1
  H+  H211  1  0.61260009  0.45695652  0.33526893  1
  H+  H212  1  0.86884088  0.35778271  0.34213479  1
  H+  H213  1  0.40108971  0.86152190  0.65452375  1
  H+  H214  1  0.88816169  0.26453016  1.02081532  1
  H+  H215  1  0.36842988  0.36778372  0.65776126  1
  H+  H216  1  0.46903750  0.38305743  0.02797182  1
  H+  H217  1  0.88204678  0.14124062  1.01898602  1
  H+  H218  1  0.54221026  0.64730581  0.34328439  1
  H+  H219  1  0.13249190  0.52196590  0.81465422  1
  H+  H220  1  0.74623865  0.88714416  0.50470770  1
  H+  H221  1  0.24602014  0.13681468  0.84177110  1
  H+  H222  1  0.10108057  0.34348400  0.31842347  1
  H+  H223  1  0.15033403  0.34406560  0.66994845  1
  H+  H224  1  0.60843087  0.88429498  0.16272534  1
  H+  H225  1  0.61759197  0.86412178  0.82802067  1
  H+  H226  1  0.47960756  0.35041774  0.50177534  1
  H+  H227  1  0.86412351  0.88943784  0.48969918  1
  H+  H228  1  0.09963080  0.46544261  0.33854716  1
  H+  H229  1  0.23594022  0.62440311  0.15590772  1
  H+  H230  1  0.39664415  0.64387153  1.01659689  1
  H+  H231  1  0.78889102  0.13173917  1.02222083  1
  H+  H232  1  0.88197116  0.51289327  0.83254113  1
  H+  H233  1  0.52621837  0.13485830  0.49457379  1
  H+  H234  1  0.89055496  0.11642241  0.66359277  1
  H+  H235  1  0.35964443  -0.01244240  0.99399739  1
  H+  H236  1  0.36625129  0.86935821  0.49074329  1
  H+  H237  1  0.61431311  0.22976866  0.34203248  1
  H+  H238  1  0.86472740  0.39539712  0.81024600  1
  H+  H239  1  0.39169693  0.35366871  0.50681011  1
  H+  H240  1  0.87359386  0.64724706  -0.00069522  1
  H+  H241  1  0.12947972  0.25474038  0.82205471  1
  H+  H242  1  0.39290502  0.52120371  0.79695356  1
  H+  H243  1  0.60540581  0.23092658  0.67674236  1
  H+  H244  1  0.61130754  0.24370794  0.99785727  1
  H+  H245  1  0.97013558  0.36650291  0.50859987  1
  H+  H246  1  0.23369202  0.36674894  0.50712130  1
  H+  H247  1  0.01671813  0.12118289  0.68149130  1
  H+  H248  1  0.51853927  0.64225139  0.00980358  1
  H+  H249  1  0.35656720  0.41205756  1.01738431  1
  H+  H250  1  0.84615405  0.72315048  0.66904862  1
  H+  H251  1  0.65639118  0.53287572  0.16247173  1
  H+  H252  1  0.72402853  0.36815713  0.83669860  1
  H+  H253  1  0.39114048  0.87436799  0.99409272  1
  H+  H254  1  0.60709577  0.38625084  0.99851458  1
  H+  H255  1  0.52644348  0.88839437  0.01001019  1
  H+  H256  1  -0.02089082  0.12422825  0.84098183  1
  H+  H257  1  0.12024857  0.95004205  0.79104627  1
  H+  H258  1  0.90765177  0.34215303  0.60058531  1
  H+  H259  1  0.38902230  0.10210398  0.33478461  1
  H+  H260  1  0.63198777  1.02192762  0.32236620  1
  H+  H261  1  0.02674866  0.38459399  0.79565661  1
  H+  H262  1  0.12751670  0.51570703  0.49687161  1
  H+  H263  1  0.87291646  0.02105973  0.66049273  1
  H+  H264  1  0.37934114  0.29315117  0.18989084  1
  H+  H265  1  0.12865197  1.02082520  0.14646256  1
  H+  H266  1  0.19234328  0.33366944  0.23192906  1
  H+  H267  1  0.27937321  0.38709505  0.80893629  1
  H+  H268  1  0.90298972  0.78230132  0.98595442  1
  H+  H269  1  0.11926292  0.22545037  0.49433280  1
  H+  H270  1  0.61778041  0.36721103  0.34077828  1
  H+  H271  1  -0.03260102  0.12173935  0.17185456  1
  H+  H272  1  1.00972385  0.63505872  0.66393341  1
  H+  H273  1  0.85853290  0.63756399  0.34017934  1
  H+  H274  1  0.85361852  0.63527641  0.48931192  1
  H+  H275  1  0.57911656  0.14287545  -0.00270534  1
  H+  H276  1  0.86268771  -0.02046625  0.83241322  1
  H+  H277  1  0.89467612  0.11689383  0.51171352  1
  H+  H278  1  0.52523515  0.88495439  0.33634260  1
  H+  H279  1  0.11021680  0.20633777  0.67473426  1
  H+  H280  1  0.66257256  0.10493625  1.03149058  1
  H+  H281  1  0.86506710  0.22632893  0.50640744  1
  H+  H282  1  0.23525041  0.34170613  0.65643622  1
  H+  H283  1  0.58130086  0.40126011  0.43041848  1
  H+  H284  1  0.22518421  0.58999615  0.32984489  1
  H+  H285  1  0.10375681  0.21232988  0.34005715  1
  H+  H286  1  0.12317872  0.63737579  0.33092471  1
  H+  H287  1  0.93698476  0.35399821  0.86636262  1
  H+  H288  1  0.10735230  0.44708202  0.04076268  1
  H+  H289  1  0.36161213  0.89672621  0.14724779  1
  H+  H290  1  0.15543701  0.59264648  0.58647182  1
  H+  H291  1  0.33419257  0.92950377  0.05369963  1
  H+  H292  1  0.87484494  0.51858511  0.50242424  1
  H+  H293  1  0.86822722  0.41473499  0.16568540  1
  H+  H294  1  0.66984751  0.33599906  0.89891630  1
  H+  H295  1  0.60097456  0.69719768  0.40823538  1
  H+  H296  1  0.88440871  0.10813840  0.32350274  1
  H+  H297  1  0.61247811  0.94912969  0.81447321  1
  H+  H298  1  0.83249764  0.16954569  0.76595365  1
  H+  H299  1  0.18320942  0.58163007  0.26409133  1
  H+  H300  1  0.88790989  0.82247608  0.59336906  1
  H+  H301  1  0.96981428  0.98259534  0.05603472  1
  H+  H302  1  0.21908764  0.09363471  0.66188516  1
  H+  H303  1  0.57483217  0.85755946  0.73426673  1
  H+  H304  1  0.66833112  0.57026830  0.26156575  1
  H+  H305  1  0.88348491  0.53681483  0.17316021  1
  H+  H306  1  0.15873604  0.06991580  0.56773549  1
  H+  H307  1  0.54363462  0.40294390  0.15571839  1
  H+  H308  1  0.07015258  0.65914972  0.42322439  1
  H+  H309  1  0.85706369  0.21664388  0.33418866  1
  H+  H310  1  0.90581014  0.58644477  0.59405351  1
  H+  H311  1  0.67079508  0.82760046  0.90047291  1
  H+  H312  1  0.42863137  0.83637571  0.56039558  1
  H+  H313  1  0.44599197  0.58390338  0.57216354  1
  H+  H314  1  0.82719175  0.42882049  0.10418057  1
  H+  H315  1  0.33647390  0.40189605  0.74965094  1
  H+  H316  1  0.32689009  0.15644579  0.73072166  1
  H+  H317  1  0.92423820  0.09360381  0.93613097  1
  H+  H318  1  0.19674104  0.90963383  0.20716358  1
  H+  H319  1  0.91123858  0.34729163  0.28222257  1
  H+  H320  1  0.67969477  0.09224184  0.90720325  1
  H+  H321  1  0.58893427  0.91789824  0.43217453  1
  H+  H322  1  0.14117127  0.86925861  0.98182592  1
  H+  H323  1  0.78589970  0.15662910  0.66881148  1
  H+  H324  1  0.41763266  0.82835186  0.94420720  1
  H+  H325  1  0.38616178  0.37725383  0.11543088  1
  H+  H326  1  0.08361824  0.16030378  0.40270464  1
  H+  H327  1  0.34935446  0.41548090  0.43883799  1
  H+  H328  1  0.38501600  0.77809776  0.31815238  1
  H+  H329  1  0.13532478  0.76494112  0.65056196  1
  H+  H330  1  0.83004409  0.43213627  0.75745543  1
  H+  H331  1  0.65937972  0.56452310  0.56009303  1
  H+  H332  1  0.32351261  0.61722913  0.41797084  1
  H+  H333  1  0.07908488  0.90785236  0.40464531  1
  H+  H334  1  0.27670467  0.14016123  0.18704202  1
  H+  H335  1  0.09213040  0.66975480  0.04617011  1
  H+  H336  1  0.85263851  0.68427229  0.05857224  1
  H+  H337  1  0.41162982  0.29644030  0.28544705  1
  H+  H338  1  0.67056475  0.83477600  0.26149932  1
  H+  H339  1  0.58379717  0.91089316  0.06993186  1
  H+  H340  1  0.06531996  0.88079631  0.70969636  1
  H+  H341  1  0.07675855  0.40817830  0.43455553  1
  H+  H342  1  0.82492731  0.66481345  0.76233022  1
  H+  H343  1  0.63029971  0.64160634  0.15246103  1
  H+  H344  1  0.57605650  0.41307165  0.72898256  1
  H+  H345  1  0.58661464  0.66086559  0.06702231  1
  H+  H346  1  0.92548534  0.84034309  0.92451824  1
  H+  H347  1  0.11938203  0.74204460  0.19235997  1
  H+  H348  1  0.82501061  0.66653165  0.43003252  1
  H+  H349  1  0.19218960  0.11493237  0.94592998  1
  H+  H350  1  0.76384638  0.62873704  0.67033992  1
  H+  H351  1  0.44538602  0.56767757  0.23230213  1
  H+  H352  1  0.07212037  0.19572869  0.09518268  1
  H+  H353  1  0.83521976  0.16878728  0.11970606  1
  H+  H354  1  0.17172017  0.82094626  0.55791356  1
  H+  H355  1  0.61582829  0.22933923  0.82998820  1
  H+  H356  1  0.92347343  0.84073925  0.23123346  1
  H+  H357  1  0.16825586  0.83798488  0.28277595  1
  H+  H358  1  0.66853007  0.09167841  0.55637735  1
  H+  H359  1  0.83359114  0.91707911  0.39438023  1
  H+  H360  1  0.90306589  0.57981459  0.27061567  1
  H+  H361  1  0.82109467  0.40978086  0.43378701  1
  H+  H362  1  0.91386796  0.57148348  0.90222537  1
  H+  H363  1  0.07150887  0.90898114  0.08419608  1
  H+  H364  1  0.09011121  0.16841203  0.76483855  1
  H+  H365  1  0.58288987  0.16600947  0.43227939  1
  H+  H366  1  0.57276595  0.17585626  0.09731870  1
  H+  H367  1  0.42398828  0.51784190  0.33262841  1
  H+  H368  1  0.06740411  0.66073472  0.72437882  1
  H+  H369  1  0.41397355  0.22613981  0.19897313  1
  H+  H370  1  0.17224843  0.33000276  0.56510307  1
  H+  H371  1  0.30619631  0.44901136  0.05277829  1
  H+  H372  1  0.42614656  0.08010643  0.56878522  1
  H+  H373  1  0.40994873  0.08451300  0.89226479  1
  H+  H374  1  0.91829084  0.07931829  0.23530345  1
  H+  H375  1  0.59746826  0.42067959  0.06293523  1
  H+  H376  1  0.13565758  0.85239941  0.64387526  1
  H+  H377  1  0.07677701  0.38883577  0.13549169  1
  H+  H378  1  0.33159224  0.14536294  0.40995709  1
  H+  H379  1  0.15580924  0.58020443  0.87673348  1
  H+  H380  1  0.77049398  0.12796748  0.32605910  1
  H+  H381  1  0.33573524  0.90574849  0.42810175  1
  H+  H382  1  0.92541205  0.08240774  0.56755735  1
  H+  H383  1  0.66488732  0.32374198  0.27893374  1
  O2-  O384  1  0.05637029  0.20654092  0.13602363  1
  O2-  O385  1  0.08925987  0.16460526  0.48084252  1
  O2-  O386  1  0.09792511  0.18216296  0.81117443  1
  O2-  O387  1  0.09674415  0.41865742  0.17420421  1
  O2-  O388  1  0.08097130  0.41373160  0.48000168  1
  O2-  O389  1  0.08938966  0.41332584  0.78543074  1
  O2-  O390  1  0.09225508  0.67992560  0.20210788  1
  O2-  O391  1  0.07133878  0.66139020  0.46815703  1
  O2-  O392  1  0.06408011  0.65781263  0.80729895  1
  O2-  O393  1  0.07225747  0.91141425  0.12972441  1
  O2-  O394  1  0.07592499  0.90555855  0.48271231  1
  O2-  O395  1  0.08144257  0.88816816  0.79086167  1
  O2-  O396  1  0.25058138  0.09637307  0.15446691  1
  O2-  O397  1  0.32975488  0.15150927  0.48568902  1
  O2-  O398  1  0.33053233  0.16503630  0.80969673  1
  O2-  O399  1  0.37671636  0.38120876  0.15971054  1
  O2-  O400  1  0.34171498  0.41506592  0.48381845  1
  O2-  O401  1  0.33922774  0.41298385  0.79455802  1
  O2-  O402  1  0.33213862  0.68296382  0.11861682  1
  O2-  O403  1  0.34190458  0.66181796  0.49968241  1
  O2-  O404  1  0.29910358  0.70510716  0.78399218  1
  O2-  O405  1  0.33476451  0.92980633  0.13089772  1
  O2-  O406  1  0.32909681  0.89358256  0.47473597  1
  O2-  O407  1  0.33681317  0.90763064  0.80923582  1
  O2-  O408  1  0.58038957  0.17274680  0.14178675  1
  O2-  O409  1  0.58714239  0.16577849  0.47803661  1
  O2-  O410  1  0.58994595  0.16834160  0.81585605  1
  O2-  O411  1  0.60104969  0.42322369  0.13935508  1
  O2-  O412  1  0.57801414  0.39962103  0.47617923  1
  O2-  O413  1  0.58167198  0.41629201  0.80664384  1
  O2-  O414  1  0.59490644  0.66769809  0.13811187  1
  O2-  O415  1  0.60305875  0.70051616  0.47179776  1
  O2-  O416  1  0.59969406  0.67312880  0.79838768  1
  O2-  O417  1  0.57723502  0.91315637  0.14655110  1
  O2-  O418  1  0.58769556  0.91779077  0.47773296  1
  O2-  O419  1  0.58092108  0.88691828  0.80755208  1
  O2-  O420  1  0.82175072  0.16294697  0.16351440  1
  O2-  O421  1  0.84357745  0.16530620  0.49640888  1
  O2-  O422  1  0.83759013  0.17621629  0.81139939  1
  O2-  O423  1  0.82872257  0.43360282  0.14962600  1
  O2-  O424  1  0.82705048  0.41457644  0.47993976  1
  O2-  O425  1  0.83589136  0.42999179  0.80365381  1
  O2-  O426  1  0.84358702  0.68178391  0.13759860  1
  O2-  O427  1  0.82386041  0.66658003  0.47571232  1
  O2-  O428  1  0.82619148  0.66647221  0.80839316  1
  O2-  O429  1  0.83159718  0.91804984  0.14817473  1
  O2-  O430  1  0.83723255  0.92376439  0.47492722  1
  O2-  O431  1  0.83179649  0.92034047  0.81660327  1
  O2-  O432  1  0.16342732  0.08483403  0.15122068  1
  O2-  O433  1  0.16099242  0.07059860  0.52242511  1
  O2-  O434  1  0.18704374  0.12015750  0.86228911  1
  O2-  O435  1  0.21258346  0.34756248  0.18936311  1
  O2-  O436  1  0.17217421  0.33735280  0.52044123  1
  O2-  O437  1  0.16537282  0.33402270  0.83595291  1
  O2-  O438  1  0.18202388  0.59073372  0.18073764  1
  O2-  O439  1  0.15408286  0.57876970  0.50848102  1
  O2-  O440  1  0.15364509  0.58115899  0.82989872  1
  O2-  O441  1  0.16738527  0.85881805  0.18129943  1
  O2-  O442  1  0.17363390  0.82367771  0.51196929  1
  O2-  O443  1  0.16803593  0.82119473  0.84528757  1
  O2-  O444  1  0.42293709  0.09611740  0.19178722  1
  O2-  O445  1  0.42976425  0.08396720  0.52394642  1
  O2-  O446  1  0.41628978  0.08312503  0.84716988  1
  O2-  O447  1  0.37474863  0.24441073  0.21485174  1
  O2-  O448  1  0.41918435  0.32007951  0.51962107  1
  O2-  O449  1  0.41492352  0.32275728  0.84507242  1
  O2-  O450  1  0.44416108  0.56048453  0.18782506  1
  O2-  O451  1  0.44626028  0.58400529  0.52720944  1
  O2-  O452  1  0.42477998  0.58497636  0.78929488  1
  O2-  O453  1  0.40952275  0.83926338  0.17425912  1
  O2-  O454  1  0.42435100  0.83172514  0.51455630  1
  O2-  O455  1  0.42205957  0.83042703  0.86048949  1
  O2-  O456  1  0.65441561  0.07790539  0.18280529  1
  O2-  O457  1  0.66347804  0.07990511  0.51218738  1
  O2-  O458  1  0.67952587  0.09179994  0.86245830  1
  O2-  O459  1  0.66219322  0.33457940  0.18930915  1
  O2-  O460  1  0.66330065  0.32673102  0.52261529  1
  O2-  O461  1  0.66463612  0.33685394  0.85254510  1
  O2-  O462  1  0.68078986  0.59211316  0.17860956  1
  O2-  O463  1  0.65479794  0.55808475  0.51526405  1
  O2-  O464  1  0.65978061  0.58111008  0.85335157  1
  O2-  O465  1  0.66397870  0.83128961  0.18480187  1
  O2-  O466  1  0.68727380  0.86099550  0.52582520  1
  O2-  O467  1  0.67110255  0.82654918  0.85430092  1
  O2-  O468  1  0.91106310  0.07876626  0.18996869  1
  O2-  O469  1  0.92654848  0.08491518  0.52253518  1
  O2-  O470  1  0.92079051  0.09565047  0.85809213  1
  O2-  O471  1  0.95013254  0.41690981  0.21305440  1
  O2-  O472  1  0.91129141  0.33910039  0.52580433  1
  O2-  O473  1  0.92293138  0.34278160  0.82334823  1
  O2-  O474  1  0.91354622  0.59528282  0.19264307  1
  O2-  O475  1  0.90481327  0.57996581  0.51713135  1
  O2-  O476  1  0.91443984  0.57494351  0.85346319  1
  O2-  O477  1  0.91990505  0.84120158  0.18567871  1
  O2-  O478  1  0.90413481  0.82864127  0.51613019  1
  O2-  O479  1  0.92095895  0.83478816  0.84665760  1
  O2-  O480  1  0.16591788  0.06595360  0.32385459  1
  O2-  O481  1  0.15806143  0.06247863  0.64688355  1
  O2-  O482  1  0.18111016  0.10126267  0.98962270  1
  O2-  O483  1  0.11388279  0.30318806  0.29483967  1
  O2-  O484  1  0.17088690  0.31115477  0.64726736  1
  O2-  O485  1  0.16984113  0.34597967  0.95399421  1
  O2-  O486  1  0.17147926  0.57704787  0.30860048  1
  O2-  O487  1  0.15998029  0.59297233  0.63178929  1
  O2-  O488  1  0.15828829  0.58562414  0.94638605  1
  O2-  O489  1  0.17086762  0.83608406  0.32709146  1
  O2-  O490  1  0.17045666  0.82429208  0.63382290  1
  O2-  O491  1  0.16856001  0.83531752  0.96752222  1
  O2-  O492  1  0.41996441  0.07279031  0.31799514  1
  O2-  O493  1  0.41516580  0.06895202  0.65197889  1
  O2-  O494  1  0.40261468  0.09651611  0.97034262  1
  O2-  O495  1  0.42252481  0.31527633  0.32866895  1
  O2-  O496  1  0.41263185  0.31429865  0.64060011  1
  O2-  O497  1  0.40809223  0.35997467  1.03980179  1
  O2-  O498  1  0.44681179  0.57834041  0.31826281  1
  O2-  O499  1  0.41539930  0.57849774  0.65584978  1
  O2-  O500  1  0.42587264  0.61982372  0.99186646  1
  O2-  O501  1  0.41601537  0.83771269  0.30465005  1
  O2-  O502  1  0.42918498  0.83029101  0.63649484  1
  O2-  O503  1  0.41849132  0.83806537  0.98873428  1
  O2-  O504  1  0.65971562  0.08194077  0.30728766  1
  O2-  O505  1  0.70121843  0.15481475  0.62751698  1
  O2-  O506  1  0.68125743  0.07942319  1.00019044  1
  O2-  O507  1  0.66384807  0.32219636  0.32357340  1
  O2-  O508  1  0.65655245  0.33169874  0.64372362  1
  O2-  O509  1  0.68487357  0.32029308  0.96945267  1
  O2-  O510  1  0.66080503  0.55960499  0.30581115  1
  O2-  O511  1  0.66648305  0.57815437  0.64061503  1
  O2-  O512  1  0.64059015  0.57837483  0.97290031  1
  O2-  O513  1  0.67114487  0.83737287  0.30736042  1
  O2-  O514  1  0.70462813  0.90441998  0.63464129  1
  O2-  O515  1  0.67072439  0.83215210  0.97452112  1
  O2-  O516  1  0.91555760  0.07571862  0.31133119  1
  O2-  O517  1  0.91730077  0.08134147  0.65173772  1
  O2-  O518  1  0.93294101  0.09774863  0.98118754  1
  O2-  O519  1  0.90637722  0.33383637  0.32602784  1
  O2-  O520  1  0.90891662  0.34454836  0.64669972  1
  O2-  O521  1  0.91169754  0.32617800  1.00450154  1
  O2-  O522  1  0.90406622  0.57541496  0.31587385  1
  O2-  O523  1  0.90832318  0.58771154  0.63976819  1
  O2-  O524  1  0.91510510  0.57335766  0.96734059  1
  O2-  O525  1  0.92156969  0.83497637  0.30916941  1
  O2-  O526  1  0.88396657  0.82362572  0.63877305  1
  O2-  O527  1  0.93304961  0.84374074  0.96968635  1
  O2-  O528  1  0.09700220  0.18556284  0.01593348  1
  O2-  O529  1  0.07974048  0.15403573  0.35742289  1
  O2-  O530  1  0.07824861  0.14995648  0.69638430  1
  O2-  O531  1  0.08440386  0.42378859  0.00068535  1
  O2-  O532  1  0.06969135  0.40699928  0.35637986  1
  O2-  O533  1  0.08913053  0.43076480  0.66138025  1
  O2-  O534  1  0.08285177  0.67131680  0.00264093  1
  O2-  O535  1  0.08612618  0.66360043  0.33737171  1
  O2-  O536  1  0.07087873  0.66171611  0.67935033  1
  O2-  O537  1  0.09323357  0.92338126  0.00840840  1
  O2-  O538  1  0.08396385  0.90799884  0.35926765  1
  O2-  O539  1  0.06601245  0.88868798  0.66509130  1
  O2-  O540  1  0.33639368  0.18450833  0.04195593  1
  O2-  O541  1  0.33393789  0.14675945  0.36426006  1
  O2-  O542  1  0.32419759  0.14954496  0.68552187  1
  O2-  O543  1  0.32173759  0.44140607  0.01164703  1
  O2-  O544  1  0.36304846  0.41335605  0.35993155  1
  O2-  O545  1  0.33474666  0.39677224  0.67250918  1
  O2-  O546  1  0.32890227  0.68362882  0.05136254  1
  O2-  O547  1  0.30789653  0.58539560  0.37916534  1
  O2-  O548  1  0.32552231  0.66375066  0.66987498  1
  O2-  O549  1  0.33329054  0.92674563  0.00804831  1
  O2-  O550  1  0.34046837  0.91771935  0.36027776  1
  O2-  O551  1  0.33925255  0.90325638  0.68449005  1
  O2-  O552  1  0.56393155  0.18299807  0.01546945  1
  O2-  O553  1  0.57995850  0.16517888  0.35632323  1
  O2-  O554  1  0.58230074  0.17012547  0.69064662  1
  O2-  O555  1  0.58502206  0.42017180  0.01826572  1
  O2-  O556  1  0.58306265  0.39811890  0.35390894  1
  O2-  O557  1  0.57259346  0.41273070  0.68348985  1
  O2-  O558  1  0.58085778  0.65877553  0.02037959  1
  O2-  O559  1  0.60072601  0.69141902  0.35964005  1
  O2-  O560  1  0.62660852  0.69672042  0.67593878  1
  O2-  O561  1  0.58734097  0.91491609  0.02432032  1
  O2-  O562  1  0.58420722  0.91481239  0.35339859  1
  O2-  O563  1  0.56946965  0.83654857  0.69093860  1
  O2-  O564  1  0.84917580  0.16757160  0.03706445  1
  O2-  O565  1  0.83145355  0.15392066  0.33893130  1
  O2-  O566  1  0.84317429  0.17714241  0.68837962  1
  O2-  O567  1  0.82722142  0.42309906  0.02640714  1
  O2-  O568  1  0.81443451  0.40153874  0.36085056  1
  O2-  O569  1  0.82445395  0.42783821  0.68491356  1
  O2-  O570  1  0.85525972  0.68741815  0.01332716  1
  O2-  O571  1  0.82865408  0.66883162  0.35350914  1
  O2-  O572  1  0.82468589  0.66389402  0.68625533  1
  O2-  O573  1  0.91373872  0.95565567  0.03615715  1
  O2-  O574  1  0.83283410  0.91416721  0.34909188  1
  O2-  O575  1  0.77767934  0.91003990  0.66809243  1
