# generated using pymatgen
data_H2O
_symmetry_space_group_name_H-M   'P 1'
_cell_length_a   17.98835594
_cell_length_b   17.98170438
_cell_length_c   22.01046639
_cell_angle_alpha   90.01429058
_cell_angle_beta   90.01720027
_cell_angle_gamma   119.99421288
_symmetry_Int_Tables_number   1
_chemical_formula_structural   H2O
_chemical_formula_sum   'H384 O192'
_cell_volume   6166.05593306
_cell_formula_units_Z   192
loop_
 _symmetry_equiv_pos_site_id
 _symmetry_equiv_pos_as_xyz
  1  'x, y, z'
loop_
 _atom_type_symbol
 _atom_type_oxidation_number
  H+  1.0
  O2-  -2.0
loop_
 _atom_site_type_symbol
 _atom_site_label
 _atom_site_symmetry_multiplicity
 _atom_site_fract_x
 _atom_site_fract_y
 _atom_site_fract_z
 _atom_site_occupancy
  H+  H0  1  0.98501833  0.62584568  0.51034363  1
  H+  H1  1  0.96495820  0.35622715  0.65844838  1
  H+  H2  1  0.35776346  0.72954438  0.83153132  1
  H+  H3  1  0.13826423  0.77758570  0.16544781  1
  H+  H4  1  0.29233192  0.65120604  0.16250891  1
  H+  H5  1  0.86679558  0.63785371  0.15836451  1
  H+  H6  1  0.80161688  0.25578138  0.95471651  1
  H+  H7  1  0.27754238  0.63529217  0.49071240  1
  H+  H8  1  0.83760504  0.99615725  0.69483164  1
  H+  H9  1  0.61614121  0.38480275  0.15030561  1
  H+  H10  1  0.39056662  0.77848032  0.98978962  1
  H+  H11  1  0.11910903  0.89309731  0.16757625  1
  H+  H12  1  0.77814221  0.63204942  0.33493335  1
  H+  H13  1  0.14307129  0.61891820  0.48478824  1
  H+  H14  1  0.39575117  0.03322002  0.53229095  1
  H+  H15  1  0.32787656  0.14861241  0.40317498  1
  H+  H16  1  0.37025871  0.63128331  0.68523861  1
  H+  H17  1  0.14712271  0.11217354  0.52056700  1
  H+  H18  1  0.08364565  0.39467481  -0.01995731  1
  H+  H19  1  0.71526129  0.88090337  0.68196429  1
  H+  H20  1  0.36267719  0.12445190  0.84432196  1
  H+  H21  1  0.17992172  0.08661990  0.57931837  1
  H+  H22  1  0.74763537  0.65276970  0.48644039  1
  H+  H23  1  0.37941523  0.33431219  0.11126833  1
  H+  H24  1  0.85612537  0.36605831  0.17690516  1
  H+  H25  1  0.51126237  0.88486541  0.33261066  1
  H+  H26  1  0.87787045  0.01384440  0.17851150  1
  H+  H27  1  0.03349064  0.14800027  0.83331569  1
  H+  H28  1  0.37038937  0.22241932  0.49389376  1
  H+  H29  1  0.00646468  0.10981593  0.01390286  1
  H+  H30  1  -0.11198590  0.85629248  0.35896678  1
  H+  H31  1  -0.01435975  0.61940705  0.16794225  1
  H+  H32  1  0.88317406  0.37471685  0.32484561  1
  H+  H33  1  0.14519284  0.86753889  0.83641388  1
  H+  H34  1  0.37465885  0.85716616  0.98638079  1
  H+  H35  1  0.38100297  0.27486393  0.35464750  1
  H+  H36  1  0.85927868  0.47252667  0.67215519  1
  H+  H37  1  0.16021721  0.07858516  0.24568356  1
  H+  H38  1  0.82725858  -0.05328205  0.34359503  1
  H+  H39  1  0.84968003  -0.04307419  0.50203876  1
  H+  H40  1  0.61153805  0.75023259  0.32472459  1
  H+  H41  1  0.37496803  0.85338966  0.83627391  1
  H+  H42  1  0.63007942  0.60047445  0.98946964  1
  H+  H43  1  0.27377491  0.88040775  0.52413480  1
  H+  H44  1  0.39980220  0.86989765  0.52671547  1
  H+  H45  1  0.25964164  0.63127532  0.83291550  1
  H+  H46  1  0.22998373  0.86353934  0.16931342  1
  H+  H47  1  0.87871330  0.39968922  0.48754356  1
  H+  H48  1  0.86217463  0.23585006  0.34899874  1
  H+  H49  1  0.14774676  0.05805211  0.93738155  1
  H+  H50  1  0.36493349  0.64775250  0.00210773  1
  H+  H51  1  0.14881612  0.62618050  0.83378340  1
  H+  H52  1  0.62981946  1.09649020  0.67651381  1
  H+  H53  1  0.85929094  0.63944135  0.84431458  1
  H+  H54  1  0.28598068  0.42885698  0.94154513  1
  H+  H55  1  0.76883362  0.13378992  0.49869051  1
  H+  H56  1  0.47146463  0.11000649  0.14888282  1
  H+  H57  1  0.88595702  0.77277567  0.17067172  1
  H+  H58  1  0.14479165  0.37248576  0.18582000  1
  H+  H59  1  0.44698246  0.63802468  0.92570877  1
  H+  H60  1  0.91937271  0.06985591  0.44647121  1
  H+  H61  1  0.14582202  0.27905472  0.34704167  1
  H+  H62  1  0.11965251  0.07788587  0.00200367  1
  H+  H63  1  0.86623105  0.62928700  0.34291288  1
  H+  H64  1  0.61457735  0.39269360  0.34717194  1
  H+  H65  1  0.65181722  0.12194526  0.83539288  1
  H+  H66  1  0.59201725  0.92993298  0.25268480  1
  H+  H67  1  0.53698922  0.65127764  0.66461171  1
  H+  H68  1  0.78292266  0.63302069  0.68115186  1
  H+  H69  1  0.95017564  0.31137551  0.17918216  1
  H+  H70  1  0.11178169  0.72562397  0.47604376  1
  H+  H71  1  0.12830907  1.01531644  0.17781295  1
  H+  H72  1  0.73534059  0.37564621  0.32861469  1
  H+  H73  1  0.37767485  0.09063870  -0.00958582  1
  H+  H74  1  0.39077902  0.60908283  0.51090675  1
  H+  H75  1  0.10134931  0.63666590  0.33349403  1
  H+  H76  1  0.47544834  0.59952404  0.51286297  1
  H+  H77  1  0.01871867  0.88406700  0.32975091  1
  H+  H78  1  0.05612630  0.66629937  0.82434014  1
  H+  H79  1  0.38727296  0.61698420  0.33762901  1
  H+  H80  1  0.16759306  0.34810437  0.57059208  1
  H+  H81  1  0.07205841  0.66454940  0.41830822  1
  H+  H82  1  0.74537430  0.13207379  0.83656730  1
  H+  H83  1  -0.03112264  0.85820636  0.83204540  1
  H+  H84  1  0.61443645  0.42123502  0.49930252  1
  H+  H85  1  0.24502255  0.35111229  0.68169440  1
  H+  H86  1  0.12473166  0.73685767  0.67584136  1
  H+  H87  1  0.12427537  0.76240462  0.31944557  1
  H+  H88  1  0.27740190  0.90211777  0.68513825  1
  H+  H89  1  0.12704885  0.00933942  0.31396682  1
  H+  H90  1  0.10972267  0.97552397  0.67982326  1
  H+  H91  1  0.38123988  0.22990702  0.11836500  1
  H+  H92  1  0.89497379  0.12535904  0.83526155  1
  H+  H93  1  0.77225587  0.62390853  1.00240976  1
  H+  H94  1  0.70800797  0.36854763  0.65558308  1
  H+  H95  1  0.12836740  0.64759717  0.67195844  1
  H+  H96  1  0.36988143  0.85921393  0.32184084  1
  H+  H97  1  0.13621553  0.52960917  0.65927004  1
  H+  H98  1  0.83356605  0.08611879  0.33026887  1
  H+  H99  1  0.13590379  0.52862448  0.32553609  1
  H+  H100  1  0.03276123  0.14254846  0.50129936  1
  H+  H101  1  0.11383040  0.96482270  0.53038877  1
  H+  H102  1  0.35653020  0.72608787  0.34412744  1
  H+  H103  1  0.60418540  0.46186364  0.83249597  1
  H+  H104  1  0.39435473  0.45760429  0.99827584  1
  H+  H105  1  0.41674058  0.53532259  0.66428232  1
  H+  H106  1  0.52493290  0.63658045  0.00467561  1
  H+  H107  1  0.38354964  0.36515091  0.35880882  1
  H+  H108  1  0.22689160  0.29538568  0.62497689  1
  H+  H109  1  0.85529277  0.23453928  0.17535599  1
  H+  H110  1  0.60995997  0.70281503  0.49239772  1
  H+  H111  1  0.86211223  0.19311755  0.02198841  1
  H+  H112  1  0.13362724  0.29260875  0.95895960  1
  H+  H113  1  0.72784815  0.40409416  0.50842604  1
  H+  H114  1  0.63117753  1.01710319  0.50515188  1
  H+  H115  1  0.34621796  0.19739222  -0.01677080  1
  H+  H116  1  0.64135877  0.04313840  0.98791968  1
  H+  H117  1  0.62519643  0.25485866  0.36535443  1
  H+  H118  1  0.70950179  0.83547534  0.50260411  1
  H+  H119  1  0.76825327  0.16119253  0.34055020  1
  H+  H120  1  0.16692587  0.27997834  -0.04795631  1
  H+  H121  1  0.62214171  0.89681481  0.19619053  1
  H+  H122  1  0.10754909  0.38713154  0.66999914  1
  H+  H123  1  0.73788056  0.86894723  0.17666340  1
  H+  H124  1  0.12733150  0.65460888  0.15442728  1
  H+  H125  1  0.89749797  0.03761950  0.83636929  1
  H+  H126  1  0.18342431  0.60711675  0.23675922  1
  H+  H127  1  0.02496828  0.87590106  0.51788821  1
  H+  H128  1  0.13650195  0.14875224  0.35479276  1
  H+  H129  1  0.88001292  0.36664261  0.81755050  1
  H+  H130  1  0.60591735  0.54598036  0.49995110  1
  H+  H131  1  0.83876941  0.11168375  0.16596639  1
  H+  H132  1  0.85874523  0.13330210  0.66625904  1
  H+  H133  1  0.16159083  0.55137528  0.17744660  1
  H+  H134  1  0.59034414  0.66843122  0.06097558  1
  H+  H135  1  0.90036460  0.52894930  0.17848826  1
  H+  H136  1  0.45875692  0.85108114  0.66632778  1
  H+  H137  1  0.65317283  0.61591922  0.65455694  1
  H+  H138  1  0.85797812  0.87212748  0.49564442  1
  H+  H139  1  0.85374418  0.22011136  0.66537914  1
  H+  H140  1  0.63914597  0.52412362  0.66907221  1
  H+  H141  1  0.51652487  0.90940667  -0.00514827  1
  H+  H142  1  0.62824132  0.59331210  0.83365065  1
  H+  H143  1  0.14796944  0.56148947  0.98724877  1
  H+  H144  1  0.22863272  0.60961807  0.66993780  1
  H+  H145  1  0.70648581  0.10956160  0.16640989  1
  H+  H146  1  0.09940746  0.68657146  0.09362143  1
  H+  H147  1  0.42973662  0.07527705  0.90127532  1
  H+  H148  1  0.11731603  0.94737831  0.01123535  1
  H+  H149  1  0.27669579  0.89078861  0.83173358  1
  H+  H150  1  0.35709834  0.13297255  0.33717584  1
  H+  H151  1  0.92661845  0.56811825  -0.02884290  1
  H+  H152  1  0.22524234  0.61682847  0.33160393  1
  H+  H153  1  0.13889248  0.11200768  0.67287905  1
  H+  H154  1  0.22111510  0.10013476  0.32451798  1
  H+  H155  1  0.60101237  0.13161875  0.13747501  1
  H+  H156  1  0.34328384  -0.04806728  1.00570505  1
  H+  H157  1  0.90278528  0.74754671  0.66412520  1
  H+  H158  1  0.52980806  0.18595729  0.38073293  1
  H+  H159  1  0.14097916  0.53006167  0.49336342  1
  H+  H160  1  0.61958497  0.36785070  0.65523292  1
  H+  H161  1  0.87530346  0.23631540  0.81123400  1
  H+  H162  1  0.20836205  0.81594476  0.00770737  1
  H+  H163  1  0.39082165  0.01516936  0.84306481  1
  H+  H164  1  0.36991451  0.72043731  0.49994074  1
  H+  H165  1  0.59032605  0.92840399  0.41507241  1
  H+  H166  1  0.36682757  0.12817065  0.13594395  1
  H+  H167  1  0.81969617  0.40915020  0.75903975  1
  H+  H168  1  0.02740950  0.87545702  0.67434345  1
  H+  H169  1  0.10542443  0.38884877  0.34277547  1
  H+  H170  1  0.15270581  0.65515046  0.99045372  1
  H+  H171  1  0.52681571  0.62070245  0.80075533  1
  H+  H172  1  0.82125456  0.92451828  0.87612640  1
  H+  H173  1  0.73074303  0.60761283  0.16679903  1
  H+  H174  1  0.62960855  0.26839104  0.16698325  1
  H+  H175  1  0.63904778  0.14723634  0.32190506  1
  H+  H176  1  0.32547899  0.41608007  0.44470139  1
  H+  H177  1  0.36452118  0.96985144  0.14916490  1
  H+  H178  1  0.47106552  0.33439723  0.96645235  1
  H+  H179  1  0.25477252  0.10902401  -0.00640500  1
  H+  H180  1  0.87051439  0.88447865  0.16888656  1
  H+  H181  1  0.14078768  0.87817769  0.67795618  1
  H+  H182  1  0.11450852  0.48496895  0.82147307  1
  H+  H183  1  0.11751545  0.21985878  0.68211431  1
  H+  H184  1  0.36918480  0.36640952  -0.02788510  1
  H+  H185  1  0.01786327  0.39317330  0.33880898  1
  H+  H186  1  0.86525771  -0.03274143  1.00598606  1
  H+  H187  1  0.28314537  0.13153851  0.50116959  1
  H+  H188  1  0.50588161  0.70791151  0.23023885  1
  H+  H189  1  0.89625668  0.31227867  0.97853938  1
  H+  H190  1  0.76586896  0.37436857  0.82030562  1
  H+  H191  1  0.47194930  0.36085736  0.50278606  1
  H+  H192  1  0.21944536  0.46214466  0.94036290  1
  H+  H193  1  0.62285695  0.34808360  0.83647002  1
  H+  H194  1  0.15839161  0.82155471  0.25723664  1
  H+  H195  1  0.25081164  0.87881975  0.31869897  1
  H+  H196  1  0.76118324  0.11912938  1.00363227  1
  H+  H197  1  0.91327847  0.07731670  0.93242875  1
  H+  H198  1  0.86871853  0.87866328  0.67859522  1
  H+  H199  1  0.71873957  0.35179726  0.18140401  1
  H+  H200  1  0.63519092  0.77173864  0.66657818  1
  H+  H201  1  0.10347754  0.88112078  0.31008374  1
  H+  H202  1  0.79818759  0.86547017  0.01667977  1
  H+  H203  1  0.36985503  0.14556029  0.69453236  1
  H+  H204  1  0.54746710  0.65263028  0.15889791  1
  H+  H205  1  0.61091530  0.47374662  0.99421762  1
  H+  H206  1  0.52043043  0.13002139  0.71567009  1
  H+  H207  1  0.46169790  0.09767985  0.29765568  1
  H+  H208  1  0.35782718  0.46886327  0.50653268  1
  H+  H209  1  0.88117409  0.27337171  0.50541994  1
  H+  H210  1  0.10777274  0.85329433  0.02101818  1
  H+  H211  1  0.97982533  0.11175495  0.66771247  1
  H+  H212  1  0.52269589  0.13582507  0.51682188  1
  H+  H213  1  0.59738121  0.90097319  -0.00645669  1
  H+  H214  1  0.22072590  0.10265755  0.85282004  1
  H+  H215  1  0.13631160  0.11117564  0.84675874  1
  H+  H216  1  0.99292682  0.08238579  0.31017263  1
  H+  H217  1  0.36030995  0.89109150  0.68187614  1
  H+  H218  1  0.63965014  0.52093691  0.32056948  1
  H+  H219  1  0.99303956  0.86015137  0.98793444  1
  H+  H220  1  0.61777747  0.85915223  0.66319006  1
  H+  H221  1  0.46397837  0.09196004  1.00845785  1
  H+  H222  1  0.71867155  0.10114328  0.66290832  1
  H+  H223  1  0.37862658  0.34677102  0.50754160  1
  H+  H224  1  0.51706500  0.37263229  0.84111824  1
  H+  H225  1  0.39582683  0.12128080  0.51892379  1
  H+  H226  1  0.00276886  0.62828378  0.33297841  1
  H+  H227  1  0.13069951  0.85479535  0.53076516  1
  H+  H228  1  0.62184431  0.76879932  -0.01422934  1
  H+  H229  1  0.98498623  0.60988528  0.67070993  1
  H+  H230  1  0.13808435  0.36859193  0.81391617  1
  H+  H231  1  0.84690969  0.37866053  0.66859221  1
  H+  H232  1  0.05118540  0.43463810  0.20626309  1
  H+  H233  1  0.15718460  0.78501836  0.83291243  1
  H+  H234  1  0.12236095  0.10596320  0.18130224  1
  H+  H235  1  0.39715034  0.77850353  0.17099038  1
  H+  H236  1  0.84644473  0.40407441  -0.02743115  1
  H+  H237  1  0.84222969  0.71612622  0.84590232  1
  H+  H238  1  0.36824552  0.01710254  0.29828144  1
  H+  H239  1  0.61964838  0.02749007  0.18479378  1
  H+  H240  1  0.02225129  0.39795503  0.81644953  1
  H+  H241  1  0.91564204  0.87817506  -0.00903128  1
  H+  H242  1  0.38381194  0.25221167  0.87021301  1
  H+  H243  1  0.59186907  0.86233145  0.81088959  1
  H+  H244  1  0.86788563  0.62717593  0.68504430  1
  H+  H245  1  0.42586176  0.66074253  0.18482377  1
  H+  H246  1  0.65101555  0.78097600  0.16649806  1
  H+  H247  1  0.48011986  0.35805659  0.12437733  1
  H+  H248  1  0.26842715  0.39405138  0.35135551  1
  H+  H249  1  0.59561416  0.96261038  0.66924879  1
  H+  H250  1  0.37445044  0.45594301  0.17777137  1
  H+  H251  1  0.93194837  0.83691824  0.44350660  1
  H+  H252  1  0.69124090  0.86872211  0.97845507  1
  H+  H253  1  0.36098248  0.71636160  0.68648400  1
  H+  H254  1  0.51656940  0.11691009  0.81521830  1
  H+  H255  1  0.10776151  0.21945811  0.16852586  1
  H+  H256  1  0.88703973  0.55755831  0.51682716  1
  H+  H257  1  0.22556053  0.36990538  0.51150436  1
  H+  H258  1  0.52409903  0.39121451  0.35379786  1
  H+  H259  1  0.97473783  0.86083248  0.17671859  1
  H+  H260  1  0.50377458  0.41220212  0.68641374  1
  H+  H261  1  0.99913545  0.73538073  0.85538367  1
  H+  H262  1  0.61989925  0.37673209  0.98917183  1
  H+  H263  1  0.22864489  0.11377804  0.67792384  1
  H+  H264  1  0.62704572  0.63640826  0.15187131  1
  H+  H265  1  0.72085295  0.37914663  -0.02558937  1
  H+  H266  1  0.62539462  0.83617267  0.48398687  1
  H+  H267  1  0.24068117  0.33248510  0.11711273  1
  H+  H268  1  0.48242040  0.86767390  0.19076685  1
  H+  H269  1  -0.02767194  0.36125068  0.50591491  1
  H+  H270  1  0.00516614  0.05497347  0.29177450  1
  H+  H271  1  0.87183510  0.49622442  0.33027843  1
  H+  H272  1  0.52396071  0.62416430  0.34795181  1
  H+  H273  1  0.83511760  0.85351947  0.65517074  1
  H+  H274  1  0.08687434  0.91556558  0.10733797  1
  H+  H275  1  0.35974543  0.48162419  0.35057066  1
  H+  H276  1  0.58969486  0.64619694  0.40232758  1
  H+  H277  1  0.71076394  0.84542457  0.82971976  1
  H+  H278  1  0.60424403  0.21269647  1.04047363  1
  H+  H279  1  0.87314886  0.09002157  -0.00525590  1
  H+  H280  1  0.61177691  0.71059704  0.81458146  1
  H+  H281  1  0.52888608  0.88763584  0.47130558  1
  H+  H282  1  0.50488550  0.86540985  0.81573858  1
  H+  H283  1  0.27950276  0.65542171  0.00589276  1
  H+  H284  1  0.33329968  0.16379885  0.79109108  1
  H+  H285  1  0.61329930  0.12482758  0.51143292  1
  H+  H286  1  0.35594353  0.45151972  0.20921073  1
  H+  H287  1  1.01313821  0.65482254  0.99227996  1
  H+  H288  1  0.15767432  0.32551868  0.28284617  1
  H+  H289  1  0.82102634  0.16811760  0.43595338  1
  H+  H290  1  0.65192189  0.56648864  0.92754242  1
  H+  H291  1  0.31535982  0.93496762  0.37152528  1
  H+  H292  1  0.80991519  0.13567663  0.10308582  1
  H+  H293  1  0.39288781  1.03514214  0.67841966  1
  H+  H294  1  0.92985049  0.49052402  0.45899384  1
  H+  H295  1  0.32981954  0.66043431  0.77065064  1
  H+  H296  1  0.33472643  0.66777978  0.40443348  1
  H+  H297  1  0.93110009  0.80690215  0.60297407  1
  H+  H298  1  0.80721805  0.93858182  0.75476254  1
  H+  H299  1  0.32599377  0.14694040  0.07266329  1
  H+  H300  1  0.07903386  0.91316103  0.77091970  1
  H+  H301  1  0.83840408  0.16589911  0.75818275  1
  H+  H302  1  0.13748738  0.91052293  0.42176922  1
  H+  H303  1  0.34644547  0.67467204  0.10033625  1
  H+  H304  1  0.12086852  0.18074875  0.41976441  1
  H+  H305  1  0.84556998  0.91948300  0.10953696  1
  H+  H306  1  0.42389958  0.58871713  0.60543501  1
  H+  H307  1  0.09874767  0.19125623  0.01343386  1
  H+  H308  1  0.48167680  0.87009777  0.55606364  1
  H+  H309  1  0.36806074  0.88269237  0.15925839  1
  H+  H310  1  0.64426505  0.81448924  0.88451707  1
  H+  H311  1  0.38161906  0.58332542  0.81934544  1
  H+  H312  1  0.37050685  0.44370118  0.78913330  1
  H+  H313  1  0.91732654  0.58945525  0.27304080  1
  H+  H314  1  0.68749077  0.10563326  0.93073364  1
  H+  H315  1  0.89246774  0.76856989  0.35875717  1
  H+  H316  1  0.92914329  0.58785972  0.61092675  1
  H+  H317  1  0.90638258  0.33332633  0.87546561  1
  H+  H318  1  0.59947198  0.67272995  0.72217072  1
  H+  H319  1  0.83871222  0.42743074  0.38768332  1
  H+  H320  1  0.81164275  0.65733641  0.43433772  1
  H+  H321  1  0.66742710  0.12931241  0.25740168  1
  H+  H322  1  0.18218460  0.86556727  0.61805975  1
  H+  H323  1  0.10795771  0.38926387  0.49368928  1
  H+  H324  1  0.83206775  0.66221598  0.09869933  1
  H+  H325  1  0.64919964  0.32368575  0.92397735  1
  H+  H326  1  0.12469743  0.23501388  0.82329689  1
  H+  H327  1  0.95930126  0.10837268  0.18478944  1
  H+  H328  1  0.97134053  0.65875054  0.90126495  1
  H+  H329  1  0.71644311  0.59432700  0.84881321  1
  H+  H330  1  0.42644420  0.59653933  0.27970490  1
  H+  H331  1  0.13282374  0.94979137  0.42109008  1
  H+  H332  1  0.92200799  0.06994616  0.60878593  1
  H+  H333  1  0.33694414  0.91484925  0.46953611  1
  H+  H334  1  0.58849315  0.41192467  0.05575692  1
  H+  H335  1  0.40181010  0.82487205  0.26725605  1
  H+  H336  1  0.66699072  0.57494195  0.22420335  1
  H+  H337  1  0.17691490  0.60358464  0.89847213  1
  H+  H338  1  0.81299280  0.89637671  0.40579835  1
  H+  H339  1  0.05898639  0.42984789  0.13526674  1
  H+  H340  1  0.43307725  0.10502971  0.62594222  1
  H+  H341  1  0.56100942  0.89769419  0.72721865  1
  H+  H342  1  0.08241415  0.16201258  0.74193141  1
  H+  H343  1  0.32421840  0.89596890  0.06584162  1
  H+  H344  1  0.34022459  0.92245938  0.77341554  1
  H+  H345  1  0.90259374  0.32346513  0.27274727  1
  H+  H346  1  0.07974137  0.42002768  0.72749738  1
  H+  H347  1  0.10618900  0.67610609  0.76081249  1
  H+  H348  1  0.66284502  0.36065257  0.56333190  1
  H+  H349  1  0.88224716  0.11230546  0.48958101  1
  H+  H350  1  0.86414975  0.88105216  0.83715570  1
  H+  H351  1  0.62433423  0.25975177  0.83270071  1
  H+  H352  1  0.15193295  0.43638591  0.03143365  1
  H+  H353  1  0.59262896  0.18219139  0.45806564  1
  H+  H354  1  0.36216251  0.22980404  0.69869261  1
  H+  H355  1  0.42445144  0.30867593  0.23829558  1
  H+  H356  1  0.64604677  0.81170486  0.26568197  1
  H+  H357  1  0.40947900  0.08351285  0.20796548  1
  H+  H358  1  0.83254360  0.40535616  0.12231239  1
  H+  H359  1  0.07593524  0.41636945  0.43350301  1
  H+  H360  1  0.58288934  0.44020723  0.43741745  1
  H+  H361  1  0.11940973  0.23276098  0.51068552  1
  H+  H362  1  0.10439343  0.96748649  0.83270270  1
  H+  H363  1  0.85743170  0.05274239  0.27097972  1
  H+  H364  1  0.36226735  0.55185917  0.94089159  1
  H+  H365  1  0.56176853  0.40920788  0.73907992  1
  H+  H366  1  0.21661500  0.37925590  0.85070544  1
  H+  H367  1  0.62047333  0.47669654  0.14794936  1
  H+  H368  1  0.64134825  0.60902984  0.31892775  1
  H+  H369  1  0.83866966  0.46033826  0.02469855  1
  H+  H370  1  0.90758186  0.32874293  0.59855283  1
  H+  H371  1  0.87127491  0.65063917  1.00289502  1
  H+  H372  1  0.65441103  0.06673622  0.57153559  1
  H+  H373  1  0.14006597  0.77503139  0.55903234  1
  H+  H374  1  0.92235295  0.83882212  0.89578370  1
  H+  H375  1  0.29188573  0.34783200  0.05549546  1
  H+  H376  1  0.66085073  0.32734710  0.27830503  1
  H+  H377  1  0.38611540  0.80929965  0.61564551  1
  H+  H378  1  0.38490606  0.31269925  0.23755721  1
  H+  H379  1  0.07103119  0.15442652  0.11207745  1
  H+  H380  1  0.87859542  0.76511715  0.49062649  1
  H+  H381  1  0.40557650  0.82337301  0.89598268  1
  H+  H382  1  0.23353581  0.37953690  0.20360885  1
  H+  H383  1  0.58937352  0.86805238  0.32994833  1
  O2-  O384  1  0.07392576  0.15829991  0.15742275  1
  O2-  O385  1  0.09609289  0.17142234  0.49834954  1
  O2-  O386  1  0.09278732  0.17066608  0.81737999  1
  O2-  O387  1  0.08385890  0.42649021  0.17395490  1
  O2-  O388  1  0.07433916  0.41601810  0.47890663  1
  O2-  O389  1  0.08393480  0.42691412  0.80302967  1
  O2-  O390  1  0.09137516  0.67829565  0.13949775  1
  O2-  O391  1  0.07777730  0.66472355  0.46476595  1
  O2-  O392  1  0.11307399  0.67914542  0.80674399  1
  O2-  O393  1  0.08913872  0.92402329  0.15258532  1
  O2-  O394  1  0.08363455  0.90162171  0.53628902  1
  O2-  O395  1  0.07590470  0.90772829  0.81657144  1
  O2-  O396  1  0.33861330  0.16084950  0.11828621  1
  O2-  O397  1  0.34196238  0.15812162  0.48322489  1
  O2-  O398  1  0.33110922  0.15638466  0.83611026  1
  O2-  O399  1  0.27438229  0.31379764  0.09368098  1
  O2-  O400  1  0.32258129  0.40945302  0.49011738  1
  O2-  O401  1  0.39083128  0.48089896  0.82651887  1
  O2-  O402  1  0.35169605  0.67742648  0.14575107  1
  O2-  O403  1  0.34194652  0.66292809  0.48169814  1
  O2-  O404  1  0.32658525  0.66344787  0.81778238  1
  O2-  O405  1  0.33329250  0.90696200  0.14119035  1
  O2-  O406  1  0.33706607  0.91507235  0.51380391  1
  O2-  O407  1  0.34005855  0.91752425  0.81873151  1
  O2-  O408  1  0.57231281  0.16547946  0.12232343  1
  O2-  O409  1  0.58602962  0.16322647  0.50256575  1
  O2-  O410  1  0.57682910  0.15149596  0.79765697  1
  O2-  O411  1  0.59259460  0.41747943  0.12881150  1
  O2-  O412  1  0.57773408  0.44447616  0.48233591  1
  O2-  O413  1  0.57221575  0.39959572  0.81900049  1
  O2-  O414  1  0.60135298  0.67106442  0.13558628  1
  O2-  O415  1  0.57986871  0.63847567  0.48105525  1
  O2-  O416  1  0.59060994  0.65295125  0.79561757  1
  O2-  O417  1  0.58896118  0.92577776  0.20761579  1
  O2-  O418  1  0.58968123  0.92497593  0.46093829  1
  O2-  O419  1  0.56150832  0.89159787  0.79519836  1
  O2-  O420  1  0.80810159  0.14137787  0.14834292  1
  O2-  O421  1  0.82755614  0.16516621  0.48161289  1
  O2-  O422  1  0.84670342  0.17286560  0.80329530  1
  O2-  O423  1  0.83236469  0.40439410  0.16649668  1
  O2-  O424  1  0.87108699  0.44532013  0.46708053  1
  O2-  O425  1  0.82496868  0.40633936  0.80441411  1
  O2-  O426  1  0.83265970  0.66447269  0.14451685  1
  O2-  O427  1  0.80727172  0.66751944  0.47845320  1
  O2-  O428  1  0.81341709  0.65305918  0.85103902  1
  O2-  O429  1  0.84114219  0.91819758  0.15439679  1
  O2-  O430  1  0.81750800  0.89552731  0.49187945  1
  O2-  O431  1  0.83039562  0.91455738  0.83390341  1
  O2-  O432  1  0.15531530  0.07715850  0.19538160  1
  O2-  O433  1  0.17803546  0.08203394  0.53399076  1
  O2-  O434  1  0.15818266  0.07354484  0.86280794  1
  O2-  O435  1  0.17291204  0.33847849  0.19502656  1
  O2-  O436  1  0.16333070  0.34147204  0.52623207  1
  O2-  O437  1  0.17450317  0.34213278  0.82020130  1
  O2-  O438  1  0.18903136  0.61134694  0.19079821  1
  O2-  O439  1  0.17806210  0.59304994  0.49755992  1
  O2-  O440  1  0.17656283  0.59335715  0.85321845  1
  O2-  O441  1  0.16940663  0.83680743  0.18401327  1
  O2-  O442  1  0.16778825  0.82407352  0.53156064  1
  O2-  O443  1  0.18179366  0.84379335  0.85011979  1
  O2-  O444  1  0.40988043  0.07911016  0.16271459  1
  O2-  O445  1  0.42926246  0.09586269  0.53961455  1
  O2-  O446  1  0.42504862  0.07764524  0.85632011  1
  O2-  O447  1  0.42341319  0.31679961  0.10652939  1
  O2-  O448  1  0.41242360  0.31823946  0.51561066  1
  O2-  O449  1  0.41773240  0.31362792  0.88590591  1
  O2-  O450  1  0.46930435  0.65359797  0.20861968  1
  O2-  O451  1  0.41678523  0.57676258  0.53000677  1
  O2-  O452  1  0.41878612  0.56526971  0.79929499  1
  O2-  O453  1  0.41804451  0.83561445  0.19126745  1
  O2-  O454  1  0.43041564  0.83648539  0.53134955  1
  O2-  O455  1  0.40097465  0.81711329  0.84996212  1
  O2-  O456  1  0.64616168  0.09105646  0.17919881  1
  O2-  O457  1  0.65638171  0.07430158  0.52628931  1
  O2-  O458  1  0.69068105  0.10968085  0.85935154  1
  O2-  O459  1  0.65586262  0.32413776  0.18845172  1
  O2-  O460  1  0.66689142  0.37070999  0.51780272  1
  O2-  O461  1  0.65240848  0.31671222  0.85258060  1
  O2-  O462  1  0.66793320  0.57525616  0.17835724  1
  O2-  O463  1  0.63305447  0.60920312  0.51183730  1
  O2-  O464  1  0.65135291  0.56063848  0.85565226  1
  O2-  O465  1  0.67538825  0.83706246  0.18774122  1
  O2-  O466  1  0.64559363  0.80150160  0.50509998  1
  O2-  O467  1  0.64879627  0.81219588  0.83944509  1
  O2-  O468  1  0.89708905  0.07456744  0.19298549  1
  O2-  O469  1  0.91576312  0.08086893  0.48955184  1
  O2-  O470  1  0.92423405  0.09544547  0.85465812  1
  O2-  O471  1  0.89221336  0.29580160  0.19186368  1
  O2-  O472  1  0.91123885  0.33375920  0.52052767  1
  O2-  O473  1  0.91728343  0.34010420  0.83157076  1
  O2-  O474  1  0.92637006  0.59105538  0.18500375  1
  O2-  O475  1  0.93413392  0.60701628  0.53698342  1
  O2-  O476  1  0.97763653  0.67372037  0.85638198  1
  O2-  O477  1  0.91324655  0.83204922  0.18750077  1
  O2-  O478  1  0.92231346  0.82961999  0.48890360  1
  O2-  O479  1  0.90982735  0.83184580  0.85016408  1
  O2-  O480  1  0.16238308  0.07629238  0.30682473  1
  O2-  O481  1  0.17136563  0.08384426  0.65793528  1
  O2-  O482  1  0.15235766  0.05331778  0.98281340  1
  O2-  O483  1  0.16036522  0.33602209  0.32677760  1
  O2-  O484  1  0.19860630  0.31774537  0.65110181  1
  O2-  O485  1  0.26885596  0.46568268  0.91854715  1
  O2-  O486  1  0.16798977  0.58942695  0.31082137  1
  O2-  O487  1  0.17200054  0.59193172  0.65180967  1
  O2-  O488  1  0.18168293  0.62089897  0.97279030  1
  O2-  O489  1  0.15852573  0.82367906  0.30305076  1
  O2-  O490  1  0.17751241  0.85316661  0.66170630  1
  O2-  O491  1  0.14567809  0.78663208  0.99785556  1
  O2-  O492  1  0.40286721  0.07944836  0.28565930  1
  O2-  O493  1  0.42574802  0.09881152  0.67055345  1
  O2-  O494  1  0.41195707  0.06182256  0.98302448  1
  O2-  O495  1  0.41911430  0.33750016  0.35492070  1
  O2-  O496  1  0.40361434  0.42633549  0.68084141  1
  O2-  O497  1  0.41036901  0.30359692  0.95270442  1
  O2-  O498  1  0.41678687  0.58499419  0.32396088  1
  O2-  O499  1  0.43117258  0.59377831  0.65093792  1
  O2-  O500  1  0.41517927  0.60136975  0.95988523  1
  O2-  O501  1  0.40034614  0.82725286  0.31286357  1
  O2-  O502  1  0.39421266  0.81798918  0.65980240  1
  O2-  O503  1  0.41176988  0.83494740  0.96903131  1
  O2-  O504  1  0.68849266  0.15724900  0.29747678  1
  O2-  O505  1  0.65610031  0.07023143  0.65113749  1
  O2-  O506  1  0.68618923  0.10392818  0.97698840  1
  O2-  O507  1  0.67030747  0.33832964  0.32235585  1
  O2-  O508  1  0.65055300  0.34150083  0.63627279  1
  O2-  O509  1  0.65778701  0.33800260  0.96968568  1
  O2-  O510  1  0.67043842  0.57921793  0.30106592  1
  O2-  O511  1  0.68109588  0.58109215  0.65241683  1
  O2-  O512  1  0.65407002  0.56489594  0.97397731  1
  O2-  O513  1  0.60317031  0.79092716  0.29895578  1
  O2-  O514  1  0.66183981  0.83944870  0.65663940  1
  O2-  O515  1  0.63674331  0.82314419  0.96281858  1
  O2-  O516  1  0.82853233  0.03440239  0.31075074  1
  O2-  O517  1  0.91915540  0.08207841  0.65160813  1
  O2-  O518  1  0.90837591  0.06563722  0.97725882  1
  O2-  O519  1  0.91335918  0.34045333  0.31590721  1
  O2-  O520  1  0.90443909  0.32389637  0.64397031  1
  O2-  O521  1  0.85271007  0.31306681  0.95257999  1
  O2-  O522  1  0.91778580  0.58331456  0.31738984  1
  O2-  O523  1  0.92487512  0.57698189  0.65592232  1
  O2-  O524  1  0.95465711  0.63087196  0.97138238  1
  O2-  O525  1  0.92691016  0.83184492  0.36722298  1
  O2-  O526  1  0.94898621  0.80384120  0.64400308  1
  O2-  O527  1  0.94406781  0.85605555  0.96432827  1
  O2-  O528  1  0.06476787  0.13549106  0.03334926  1
  O2-  O529  1  0.13718977  0.19682607  0.37671150  1
  O2-  O530  1  0.07993562  0.15957216  0.69605394  1
  O2-  O531  1  0.13242744  0.44878371  -0.00653994  1
  O2-  O532  1  0.07875663  0.42431274  0.35371258  1
  O2-  O533  1  0.07479848  0.41462559  0.68185438  1
  O2-  O534  1  0.10906737  0.69717269  0.02006072  1
  O2-  O535  1  0.07103540  0.66693345  0.34707509  1
  O2-  O536  1  0.09596123  0.67596816  0.68873591  1
  O2-  O537  1  0.08429619  0.89147962  0.03251917  1
  O2-  O538  1  0.07500118  0.91614268  0.30766121  1
  O2-  O539  1  0.08399131  0.91633605  0.69661712  1
  O2-  O540  1  0.31837478  0.14057771  0.00366540  1
  O2-  O541  1  0.32162736  0.15258874  0.35822806  1
  O2-  O542  1  0.33380412  0.16959793  0.71100224  1
  O2-  O543  1  0.34482509  0.40148941  -0.01078091  1
  O2-  O544  1  0.32762980  0.42262940  0.36837354  1
  O2-  O545  1  0.34178831  0.38928189  0.72186906  1
  O2-  O546  1  0.33867034  0.67785466  0.02329396  1
  O2-  O547  1  0.32958085  0.66554041  0.35898504  1
  O2-  O548  1  0.33626892  0.65672112  0.70280863  1
  O2-  O549  1  0.31591784  0.89160462  0.02048562  1
  O2-  O550  1  0.31585136  0.91994531  0.32910800  1
  O2-  O551  1  0.33998337  0.93014939  0.69671897  1
  O2-  O552  1  0.56716545  0.15389593  0.05568810  1
  O2-  O553  1  0.58822109  0.19753556  0.38718043  1
  O2-  O554  1  0.57203417  0.12991074  0.73252006  1
  O2-  O555  1  0.58387489  0.40984853  0.00919349  1
  O2-  O556  1  0.58816474  0.42736141  0.35957027  1
  O2-  O557  1  0.55985669  0.41678301  0.69452066  1
  O2-  O558  1  0.58639405  0.66846781  0.01493852  1
  O2-  O559  1  0.58638162  0.65184720  0.35754452  1
  O2-  O560  1  0.59922323  0.68450651  0.67724005  1
  O2-  O561  1  0.57772951  0.93989059  0.00774856  1
  O2-  O562  1  0.57469795  0.91435584  0.33810298  1
  O2-  O563  1  0.56140997  0.90013586  0.67989088  1
  O2-  O564  1  0.82075075  0.13252208  0.02743787  1
  O2-  O565  1  0.82287249  0.17550848  0.36224210  1
  O2-  O566  1  0.82424577  0.15902645  0.68069336  1
  O2-  O567  1  0.82885454  0.44736058  -0.01853090  1
  O2-  O568  1  0.83548783  0.42730677  0.34268658  1
  O2-  O569  1  0.81923362  0.41100854  0.68353583  1
  O2-  O570  1  0.82689851  0.65792208  0.02406292  1
  O2-  O571  1  0.83331188  0.65867152  0.35753672  1
  O2-  O572  1  0.84327250  0.66374994  0.69675464  1
  O2-  O573  1  0.85216917  0.91424035  0.02991693  1
  O2-  O574  1  0.82092383  0.89310684  0.36179387  1
  O2-  O575  1  0.78665888  0.95480602  0.71861302  1
