# generated using pymatgen
data_H2O
_symmetry_space_group_name_H-M   'P 1'
_cell_length_a   17.99539767
_cell_length_b   17.98728469
_cell_length_c   22.00689344
_cell_angle_alpha   90.01113766
_cell_angle_beta   89.98556452
_cell_angle_gamma   120.02438753
_symmetry_Int_Tables_number   1
_chemical_formula_structural   H2O
_chemical_formula_sum   'H384 O192'
_cell_volume   6167.50678035
_cell_formula_units_Z   192
loop_
 _symmetry_equiv_pos_site_id
 _symmetry_equiv_pos_as_xyz
  1  'x, y, z'
loop_
 _atom_type_symbol
 _atom_type_oxidation_number
  H+  1.0
  O2-  -2.0
loop_
 _atom_site_type_symbol
 _atom_site_label
 _atom_site_symmetry_multiplicity
 _atom_site_fract_x
 _atom_site_fract_y
 _atom_site_fract_z
 _atom_site_occupancy
  H+  H0  1  0.92730456  0.83991699  0.59999907  1
  H+  H1  1  0.04784473  0.65076408  0.83966894  1
  H+  H2  1  0.61026381  0.38848001  0.34443379  1
  H+  H3  1  0.86250133  0.38854571  0.48779412  1
  H+  H4  1  0.85952878  0.14042046  0.34309021  1
  H+  H5  1  0.60763666  0.47608347  0.34535371  1
  H+  H6  1  0.92482055  0.79910409  0.82883837  1
  H+  H7  1  1.02187200  0.64038157  0.48516456  1
  H+  H8  1  0.37931061  0.60767082  0.49932800  1
  H+  H9  1  0.87699378  0.11075674  -0.00403831  1
  H+  H10  1  0.86874912  0.89363753  1.01539705  1
  H+  H11  1  0.78193861  0.38333560  0.19212126  1
  H+  H12  1  0.60515213  0.22809196  0.33606861  1
  H+  H13  1  0.35741224  0.46653624  0.00879391  1
  H+  H14  1  0.43082239  0.33615387  0.24403395  1
  H+  H15  1  0.89154483  0.12527226  0.84362475  1
  H+  H16  1  0.13275865  0.26810819  0.17297639  1
  H+  H17  1  0.02883652  0.40036607  0.82560574  1
  H+  H18  1  0.22653324  0.11937205  0.67522757  1
  H+  H19  1  0.13575431  0.77128537  0.49899876  1
  H+  H20  1  0.40967884  0.16099424  0.54934173  1
  H+  H21  1  0.11979977  0.24347207  0.49350558  1
  H+  H22  1  0.61955156  0.47337936  0.16612897  1
  H+  H23  1  -0.01773218  0.13190822  0.51466808  1
  H+  H24  1  0.10712888  0.89155119  0.66618673  1
  H+  H25  1  0.61195495  0.46261288  0.50661448  1
  H+  H26  1  0.35812790  0.38900602  0.34366744  1
  H+  H27  1  0.78315876  0.66356145  0.67848690  1
  H+  H28  1  0.59854869  0.33129140  0.52068314  1
  H+  H29  1  0.35862676  -0.02483336  1.01401571  1
  H+  H30  1  0.38674740  0.77292836  0.17991690  1
  H+  H31  1  0.23016102  0.37542838  0.51160011  1
  H+  H32  1  0.22382087  0.11647668  0.99482514  1
  H+  H33  1  0.62408032  0.86684426  0.32158177  1
  H+  H34  1  0.35006237  0.46661039  0.16125418  1
  H+  H35  1  0.21939306  0.10921620  0.31732565  1
  H+  H36  1  0.39396107  0.52965139  0.33852885  1
  H+  H37  1  0.26649016  0.88615478  0.33524762  1
  H+  H38  1  0.37663211  0.29159865  0.84778178  1
  H+  H39  1  0.35104463  0.63891404  0.82464641  1
  H+  H40  1  0.88681323  0.28212578  0.32578495  1
  H+  H41  1  0.09899284  0.38267638  0.67263085  1
  H+  H42  1  0.96936935  0.36589046  0.66007533  1
  H+  H43  1  0.13882407  0.27811859  0.83600911  1
  H+  H44  1  0.42173981  0.86566370  0.85427387  1
  H+  H45  1  0.34951531  0.68542966  0.76313459  1
  H+  H46  1  0.64056267  0.89678087  0.82049876  1
  H+  H47  1  0.35222293  0.73235924  0.67134388  1
  H+  H48  1  0.70422171  0.61673381  0.81206111  1
  H+  H49  1  0.72238476  0.85905948  0.42731218  1
  H+  H50  1  0.62526419  0.97740806  0.48819324  1
  H+  H51  1  0.65860075  0.54500275  0.67392552  1
  H+  H52  1  0.12039567  0.77400836  0.16323295  1
  H+  H53  1  0.22373425  0.37248654  0.84114982  1
  H+  H54  1  0.13740553  0.52102622  1.00426067  1
  H+  H55  1  0.35160978  -0.02404923  0.33605176  1
  H+  H56  1  0.37157460  0.73239059  0.32531574  1
  H+  H57  1  0.36115437  0.23643144  0.67904659  1
  H+  H58  1  0.72102782  0.60844727  0.32725782  1
  H+  H59  1  0.98861816  0.63577959  0.16543509  1
  H+  H60  1  0.31847358  0.35521410  0.68892381  1
  H+  H61  1  0.56692121  0.41210985  0.65976139  1
  H+  H62  1  0.02222258  0.13094128  0.16161236  1
  H+  H63  1  0.33308721  0.66228435  0.10917692  1
  H+  H64  1  0.13598697  0.52106109  0.84638734  1
  H+  H65  1  0.78492128  0.14258855  0.17163260  1
  H+  H66  1  0.62821821  0.11577270  0.32644203  1
  H+  H67  1  0.58654046  0.71068110  0.82959237  1
  H+  H68  1  0.39681410  0.26994563  0.18077973  1
  H+  H69  1  0.77178468  0.14259186  0.34465169  1
  H+  H70  1  0.28948389  0.63242660  0.17485409  1
  H+  H71  1  0.39221342  0.03696276  0.69023639  1
  H+  H72  1  0.22417499  0.36082397  0.17247385  1
  H+  H73  1  0.37671487  0.87790785  0.68596283  1
  H+  H74  1  0.14608608  0.14545438  0.50665267  1
  H+  H75  1  0.10850062  0.88789565  0.15975013  1
  H+  H76  1  0.02412265  0.88721333  0.00402115  1
  H+  H77  1  0.18490027  0.84530053  0.93430840  1
  H+  H78  1  0.62170766  0.22987324  0.68496860  1
  H+  H79  1  0.13616594  0.60932425  0.34249749  1
  H+  H80  1  0.27037241  0.37602081  0.00512484  1
  H+  H81  1  0.61068641  0.61642730  0.99139297  1
  H+  H82  1  0.61546594  0.72366684  0.34331568  1
  H+  H83  1  0.51765255  0.11718868  0.48593999  1
  H+  H84  1  0.26582976  0.13686576  0.48266807  1
  H+  H85  1  0.85056744  -0.02990522  0.33961906  1
  H+  H86  1  0.63981752  0.23998119  0.83160017  1
  H+  H87  1  0.10985911  0.47173900  0.35116923  1
  H+  H88  1  0.07847946  0.15807296  0.10030837  1
  H+  H89  1  0.90419479  0.54089187  0.18133326  1
  H+  H90  1  0.12493638  0.97749568  0.49395617  1
  H+  H91  1  0.89141266  0.12575659  0.51206877  1
  H+  H92  1  0.64166787  0.27571138  -0.01080034  1
  H+  H93  1  0.72841085  0.60583388  0.17966476  1
  H+  H94  1  0.82005644  0.67191919  0.81938403  1
  H+  H95  1  0.88898968  0.62092708  0.32799384  1
  H+  H96  1  0.10988651  0.38945164  0.49786792  1
  H+  H97  1  0.86866612  0.64154762  0.16975505  1
  H+  H98  1  0.88260350  0.00006875  0.52145747  1
  H+  H99  1  0.36552939  0.48721278  0.49614602  1
  H+  H100  1  0.98272165  0.62855059  0.98838376  1
  H+  H101  1  0.61727883  0.01434473  0.99348297  1
  H+  H102  1  0.87959213  0.76596871  1.00426310  1
  H+  H103  1  0.50549361  0.88802203  1.00924257  1
  H+  H104  1  0.51807279  0.89586797  0.33758011  1
  H+  H105  1  0.88190902  0.02444549  0.17632180  1
  H+  H106  1  0.34959940  0.13544012  0.32210960  1
  H+  H107  1  0.36257728  0.10326754  0.85631772  1
  H+  H108  1  0.87195446  0.90990744  0.66580360  1
  H+  H109  1  0.73247040  0.03382406  0.22382233  1
  H+  H110  1  0.21418255  0.86009523  0.17217794  1
  H+  H111  1  -0.01059867  0.66212969  0.63831447  1
  H+  H112  1  0.62871690  0.10964236  0.98781255  1
  H+  H113  1  0.11563501  0.98549671  0.67546323  1
  H+  H114  1  0.47447922  0.62737218  0.65537935  1
  H+  H115  1  0.74682488  0.11794241  0.00850512  1
  H+  H116  1  0.22787291  0.60761784  1.00339470  1
  H+  H117  1  0.12961503  0.86438950  0.32180476  1
  H+  H118  1  0.97012517  0.86485017  0.17196566  1
  H+  H119  1  0.40403124  0.07938342  0.94763460  1
  H+  H120  1  0.86912599  0.69997267  0.75691425  1
  H+  H121  1  0.96986623  0.11439438  0.33230710  1
  H+  H122  1  0.86232881  0.97962649  0.00870946  1
  H+  H123  1  0.11100103  0.23013400  0.33937135  1
  H+  H124  1  0.87005166  0.48445634  0.33123608  1
  H+  H125  1  0.87457334  0.39584793  -0.00256418  1
  H+  H126  1  0.12277104  1.01187362  0.32455428  1
  H+  H127  1  0.90842182  0.28334164  0.96162214  1
  H+  H128  1  0.09707681  0.72672656  0.68375506  1
  H+  H129  1  0.91945750  0.63559838  0.82795957  1
  H+  H130  1  0.47157759  0.59786440  0.98668722  1
  H+  H131  1  0.50910826  0.19963342  0.55547151  1
  H+  H132  1  0.62961125  0.86752525  0.65272454  1
  H+  H133  1  0.38257805  0.27317679  0.49378070  1
  H+  H134  1  0.73345716  0.35399847  0.66081563  1
  H+  H135  1  0.60797990  0.00869436  0.65257320  1
  H+  H136  1  0.86914682  0.75737143  0.67287418  1
  H+  H137  1  0.76405205  0.88288415  0.32706607  1
  H+  H138  1  0.52709128  0.14452873  0.69610900  1
  H+  H139  1  0.92216031  1.05394665  0.68709932  1
  H+  H140  1  0.58609005  0.49284953  0.83796927  1
  H+  H141  1  0.26770588  0.88810603  0.01099270  1
  H+  H142  1  0.88578210  0.03269040  0.84057528  1
  H+  H143  1  0.63345580  0.14169981  0.83248210  1
  H+  H144  1  0.37710805  -0.05558366  0.53388620  1
  H+  H145  1  0.60565881  0.35960378  0.82050320  1
  H+  H146  1  0.41237102  0.59442432  0.59822697  1
  H+  H147  1  0.14209293  0.62260411  0.85511543  1
  H+  H148  1  0.41658972  0.08062145  0.09896631  1
  H+  H149  1  0.13700096  1.02511329  -0.00681612  1
  H+  H150  1  0.36199129  0.39513375  0.49401898  1
  H+  H151  1  0.61741814  -0.03035157  0.16837465  1
  H+  H152  1  0.13573241  0.77717538  -0.01111204  1
  H+  H153  1  0.87226158  0.39291827  0.32934250  1
  H+  H154  1  0.63575836  0.10360767  0.49878956  1
  H+  H155  1  0.62118836  0.10305257  0.65968750  1
  H+  H156  1  0.35641201  0.71496883  0.01470839  1
  H+  H157  1  0.06163025  0.90412080  0.81983184  1
  H+  H158  1  0.82830614  0.66550480  0.39673494  1
  H+  H159  1  0.11732719  0.37502230  0.17081726  1
  H+  H160  1  0.10607859  0.13072849  0.00441410  1
  H+  H161  1  0.13298248  0.26213247  0.99028094  1
  H+  H162  1  0.36299754  0.64825581  0.66953850  1
  H+  H163  1  0.71597783  0.85899147  0.13124446  1
  H+  H164  1  0.43600743  0.39323785  0.64565952  1
  H+  H165  1  0.36799008  0.15148269  0.68998758  1
  H+  H166  1  0.78711251  0.91604718  0.66880971  1
  H+  H167  1  0.19255289  0.33952728  0.67289092  1
  H+  H168  1  0.89162620  0.92883742  0.48489302  1
  H+  H169  1  0.61865740  0.73627902  0.67381408  1
  H+  H170  1  0.47299943  0.86377124  0.17756901  1
  H+  H171  1  0.11433963  0.36663022  0.00187302  1
  H+  H172  1  0.61333579  0.70927956  0.13384546  1
  H+  H173  1  0.67784961  0.34060881  0.89616093  1
  H+  H174  1  0.29084558  0.64147676  0.33812557  1
  H+  H175  1  0.86453057  0.71148182  0.49166113  1
  H+  H176  1  0.36930208  0.84980492  1.00545808  1
  H+  H177  1  0.33689201  0.11087983  0.46690495  1
  H+  H178  1  0.72558723  0.59357735  0.51204882  1
  H+  H179  1  0.15704837  0.60004456  0.20013381  1
  H+  H180  1  0.49982705  0.87857450  0.67161853  1
  H+  H181  1  0.85579709  0.62221746  0.48004139  1
  H+  H182  1  0.02530009  0.64128083  0.33806194  1
  H+  H183  1  0.98901050  0.36708853  0.98532166  1
  H+  H184  1  0.70301657  0.58454056  0.78932754  1
  H+  H185  1  0.88357879  0.16411026  0.69468733  1
  H+  H186  1  0.61123630  0.37769513  1.00836322  1
  H+  H187  1  0.15155445  0.51039416  0.19690850  1
  H+  H188  1  0.31525588  0.40320306  0.10419611  1
  H+  H189  1  0.46049903  0.38494443  0.85170277  1
  H+  H190  1  0.59781626  0.20690870  0.49098329  1
  H+  H191  1  0.68299557  0.07708512  0.25086072  1
  H+  H192  1  0.15397634  0.03581304  0.83452670  1
  H+  H193  1  0.47998735  0.36444433  0.33013456  1
  H+  H194  1  0.39823770  0.60810173  0.17166569  1
  H+  H195  1  0.85442667  0.88802734  0.16478887  1
  H+  H196  1  0.40255578  0.62122811  0.32534638  1
  H+  H197  1  0.29829425  0.90912864  0.75896811  1
  H+  H198  1  0.52284368  0.38138879  0.01121091  1
  H+  H199  1  0.77437692  0.14126159  0.49672075  1
  H+  H200  1  0.87073936  0.49345437  0.81942595  1
  H+  H201  1  0.88323751  0.86821492  0.32736484  1
  H+  H202  1  0.00560568  0.82981306  0.51752811  1
  H+  H203  1  0.84578271  0.41667988  0.24762180  1
  H+  H204  1  0.01731455  0.89653994  0.33849810  1
  H+  H205  1  0.39685491  0.96246895  0.77067921  1
  H+  H206  1  0.14175141  0.73085771  0.82173379  1
  H+  H207  1  0.38828098  0.36373929  0.00316202  1
  H+  H208  1  0.30918941  0.40789633  0.74334495  1
  H+  H209  1  0.63552784  0.30147043  0.57832354  1
  H+  H210  1  0.61453221  0.73296399  0.48723078  1
  H+  H211  1  0.73030400  0.36636626  -0.01033100  1
  H+  H212  1  0.35946001  0.62681207  0.01271207  1
  H+  H213  1  0.97944091  0.88164512  0.66028960  1
  H+  H214  1  0.85924690  0.38812026  0.66728614  1
  H+  H215  1  0.63352726  0.61113228  0.32885514  1
  H+  H216  1  0.90384963  0.66584890  0.63756093  1
  H+  H217  1  0.88429433  0.27918608  0.50738699  1
  H+  H218  1  0.65536383  0.83028583  0.07305533  1
  H+  H219  1  0.49421168  0.36266678  0.17771598  1
  H+  H220  1  0.36764500  0.42589149  0.84277992  1
  H+  H221  1  0.52761476  0.13003606  0.15139534  1
  H+  H222  1  0.38625437  0.27662669  0.32276429  1
  H+  H223  1  0.52693143  0.63364809  0.34610972  1
  H+  H224  1  0.86834882  0.63977955  0.00922205  1
  H+  H225  1  0.64178434  0.75654422  0.99271077  1
  H+  H226  1  0.11347108  0.88869506  0.00252282  1
  H+  H227  1  0.36209383  0.13531401  0.15799691  1
  H+  H228  1  0.89450010  0.29249394  0.83425277  1
  H+  H229  1  0.52336297  0.14329594  0.00599326  1
  H+  H230  1  0.43569961  0.57640019  0.82865626  1
  H+  H231  1  0.27519645  0.13907870  0.16976293  1
  H+  H232  1  0.78773294  0.15713777  0.83527958  1
  H+  H233  1  0.38343215  0.11877448  0.00512365  1
  H+  H234  1  0.11452225  0.72964113  0.33501002  1
  H+  H235  1  0.88847716  0.27664375  0.15702916  1
  H+  H236  1  0.27700658  0.15643198  0.83586935  1
  H+  H237  1  0.47558015  0.59146730  0.16185553  1
  H+  H238  1  0.13116733  0.01787032  0.17232055  1
  H+  H239  1  0.72394751  0.36477849  0.32815797  1
  H+  H240  1  0.36190644  0.23233002  0.01038318  1
  H+  H241  1  0.64653221  0.35615229  0.66489018  1
  H+  H242  1  0.10366047  0.13711256  0.33889564  1
  H+  H243  1  0.35696930  0.88053385  0.16627483  1
  H+  H244  1  0.77588931  0.63120009  0.01562987  1
  H+  H245  1  0.85894041  0.72848781  0.33898620  1
  H+  H246  1  0.56693025  0.61363894  0.82768097  1
  H+  H247  1  0.11315081  0.14046378  0.82688170  1
  H+  H248  1  0.27307382  0.62947338  0.48024424  1
  H+  H249  1  0.64375493  0.27111287  0.17440421  1
  H+  H250  1  0.61664649  0.13230166  0.15882601  1
  H+  H251  1  0.22032302  0.35979876  0.32851034  1
  H+  H252  1  0.72883055  0.84958535  0.99662599  1
  H+  H253  1  0.65449230  0.03305946  0.83552994  1
  H+  H254  1  0.97382102  0.36776337  0.50791009  1
  H+  H255  1  0.47287009  0.61602008  0.50597324  1
  H+  H256  1  0.13144756  0.10878625  0.17275833  1
  H+  H257  1  0.88385683  0.51732062  0.49460451  1
  H+  H258  1  0.12520010  0.52914841  0.67451823  1
  H+  H259  1  0.58107328  0.66253452  0.43767107  1
  H+  H260  1  0.64010917  0.89703591  0.47287171  1
  H+  H261  1  0.41507468  0.33833438  0.94178214  1
  H+  H262  1  0.10348765  0.65893905  0.14315811  1
  H+  H263  1  0.62001983  0.62560905  0.15239406  1
  H+  H264  1  0.22400587  0.18031044  0.55167100  1
  H+  H265  1  0.10916930  0.64553960  0.00907820  1
  H+  H266  1  0.02491624  0.14190847  0.83172971  1
  H+  H267  1  0.87608315  0.90245980  0.82195967  1
  H+  H268  1  0.23142914  0.84825740  0.51524387  1
  H+  H269  1  0.40024143  0.56307711  0.93433205  1
  H+  H270  1  0.60469950  0.88146021  0.14110219  1
  H+  H271  1  0.81986731  0.21270314  0.02046701  1
  H+  H272  1  0.91783145  0.59383241  0.54681513  1
  H+  H273  1  0.46971086  0.12004261  0.31849423  1
  H+  H274  1  0.86478330  0.23998119  0.68257540  1
  H+  H275  1  0.41720172  0.84561735  0.27182050  1
  H+  H276  1  -0.01384527  0.36961376  0.16268637  1
  H+  H277  1  0.72465124  0.85237367  0.84383811  1
  H+  H278  1  0.63804900  0.50103681  0.99429921  1
  H+  H279  1  0.10698721  0.38116813  0.34201309  1
  H+  H280  1  0.57730267  0.67205475  0.73066326  1
  H+  H281  1  0.13857571  0.53021462  0.49891313  1
  H+  H282  1  0.57999609  0.40941719  0.44343803  1
  H+  H283  1  0.73870694  0.37678309  0.83545165  1
  H+  H284  1  0.21072037  0.85823802  0.65211142  1
  H+  H285  1  0.86828409  0.40390663  0.81808243  1
  H+  H286  1  0.50227981  0.85362512  0.49592086  1
  H+  H287  1  0.37550435  0.86343585  0.61502475  1
  H+  H288  1  0.56962375  0.16137765  0.39144386  1
  H+  H289  1  0.38299123  0.01290078  0.15144103  1
  H+  H290  1  0.58450945  0.92116330  0.39432642  1
  H+  H291  1  0.11557809  0.39420098  0.83010123  1
  H+  H292  1  0.90933016  0.08494959  0.93565646  1
  H+  H293  1  0.89097294  0.37221761  0.17941938  1
  H+  H294  1  0.76066013  0.88705637  0.49195681  1
  H+  H295  1  0.70510823  0.55312638  0.94077600  1
  H+  H296  1  0.96151019  0.86126895  0.88626642  1
  H+  H297  1  0.86922985  0.81288013  0.94799195  1
  H+  H298  1  0.83861297  0.92728902  0.76527401  1
  H+  H299  1  0.83856869  0.92640831  0.10402102  1
  H+  H300  1  0.11241738  0.43706828  0.11868102  1
  H+  H301  1  0.66573507  0.07989148  0.90089109  1
  H+  H302  1  0.83345963  0.17514824  0.43744554  1
  H+  H303  1  0.16418111  0.33748460  0.56915786  1
  H+  H304  1  0.92761187  0.36176504  0.88760167  1
  H+  H305  1  0.14268281  0.62001635  0.49667503  1
  H+  H306  1  0.01692459  0.13232086  0.00554083  1
  H+  H307  1  0.16686381  0.08578121  0.89802379  1
  H+  H308  1  0.07728819  0.41756531  0.73280971  1
  H+  H309  1  0.89188315  0.11845380  0.17527846  1
  H+  H310  1  0.08161150  0.92060609  0.10033540  1
  H+  H311  1  0.16647047  0.57567797  0.91368794  1
  H+  H312  1  0.88250042  0.77460320  0.17647685  1
  H+  H313  1  0.38741955  0.81392837  0.94519019  1
  H+  H314  1  0.09992157  0.26157627  0.65825307  1
  H+  H315  1  0.42868461  0.10039084  0.63065731  1
  H+  H316  1  0.33896895  0.18719865  0.77898675  1
  H+  H317  1  0.21306356  0.61756782  0.67882041  1
  H+  H318  1  0.97704246  0.36723428  0.32488217  1
  H+  H319  1  0.41173645  0.08195116  0.25937688  1
  H+  H320  1  0.13895676  0.89716414  0.48551470  1
  H+  H321  1  0.59079255  0.41008485  0.72920408  1
  H+  H322  1  0.83406515  0.66541923  0.11063255  1
  H+  H323  1  0.16111150  0.32931677  0.26817015  1
  H+  H324  1  0.89560335  0.53800008  0.98334369  1
  H+  H325  1  0.93069528  0.59859031  0.89098831  1
  H+  H326  1  0.15817595  0.09497174  0.62193257  1
  H+  H327  1  0.65676838  0.07484304  0.56206314  1
  H+  H328  1  0.56536038  0.92747857  0.06768606  1
  H+  H329  1  0.44792307  0.79266415  0.55034741  1
  H+  H330  1  0.64296272  0.62579769  0.66686848  1
  H+  H331  1  0.92641776  0.60007228  0.26827629  1
  H+  H332  1  0.58880488  0.53237453  0.90169369  1
  H+  H333  1  0.64444532  0.36081422  0.17402634  1
  H+  H334  1  0.07489268  0.68226586  0.06455243  1
  H+  H335  1  0.32772057  0.17509094  0.07041638  1
  H+  H336  1  0.62914024  0.02583980  0.33236828  1
  H+  H337  1  0.91010180  0.33479423  0.60009616  1
  H+  H338  1  0.39437747  0.32962709  0.59071771  1
  H+  H339  1  0.06038044  0.15901085  0.73587235  1
  H+  H340  1  0.08746092  0.63559997  0.68747026  1
  H+  H341  1  0.38439325  0.87350229  0.33103694  1
  H+  H342  1  0.58180269  0.63946828  0.05357303  1
  H+  H343  1  0.10775195  0.93270014  0.75687818  1
  H+  H344  1  0.17381326  0.88297618  0.80767861  1
  H+  H345  1  0.60106270  0.17527995  0.76743601  1
  H+  H346  1  0.66324592  0.33325079  0.27085949  1
  H+  H347  1  0.84875030  0.43075262  0.05484600  1
  H+  H348  1  0.96271949  0.74941686  0.56413176  1
  H+  H349  1  0.66420336  0.82728473  0.90234669  1
  H+  H350  1  0.64285623  0.82439031  0.26432549  1
  H+  H351  1  0.17348784  0.57432484  0.29171477  1
  H+  H352  1  0.51044979  0.31055956  0.79695277  1
  H+  H353  1  0.82936339  0.42344132  0.72322697  1
  H+  H354  1  0.36696835  0.71039780  0.47306432  1
  H+  H355  1  0.16400510  0.32479964  0.93072784  1
  H+  H356  1  0.84647374  0.18845089  0.77463946  1
  H+  H357  1  0.67524632  0.57480720  0.57524273  1
  H+  H358  1  0.15476032  0.82991865  0.59251972  1
  H+  H359  1  0.15471469  0.07414365  0.25475602  1
  H+  H360  1  0.36047587  0.76566569  0.84438817  1
  H+  H361  1  0.47300473  0.35936713  0.50445393  1
  H+  H362  1  0.07526907  0.40914996  0.43666898  1
  H+  H363  1  0.91445850  0.08418777  0.27170476  1
  H+  H364  1  0.83544252  0.41640097  0.42683794  1
  H+  H365  1  0.57154923  0.90725664  0.72486365  1
  H+  H366  1  0.29227800  0.85335534  0.86554545  1
  H+  H367  1  0.08705827  0.92898376  0.39531318  1
  H+  H368  1  0.31673194  0.16042528  0.38214793  1
  H+  H369  1  0.32597995  0.41653061  0.40306004  1
  H+  H370  1  0.32390299  0.90423642  0.10500116  1
  H+  H371  1  0.82413042  0.16171287  0.10398694  1
  H+  H372  1  0.15460556  0.83229468  0.26156533  1
  H+  H373  1  0.08744726  0.17875625  0.43531335  1
  H+  H374  1  0.58775692  0.41268667  0.10599528  1
  H+  H375  1  0.66245569  0.57491993  0.23623117  1
  H+  H376  1  0.32886628  0.00397908  0.86897945  1
  H+  H377  1  0.08553647  0.67517386  0.42833030  1
  H+  H378  1  0.69487191  0.96795454  0.77307600  1
  H+  H379  1  0.37836450  0.85841532  0.52323466  1
  H+  H380  1  0.91755076  0.84160959  0.26870183  1
  H+  H381  1  0.59115694  0.17155331  0.06030313  1
  H+  H382  1  0.05205354  0.35234452  0.05678043  1
  H+  H383  1  0.67212962  0.84391963  0.59861344  1
  O2-  O384  1  0.08237449  0.15907729  0.14578335  1
  O2-  O385  1  0.09134460  0.18124281  0.48060067  1
  O2-  O386  1  0.08329697  0.17173346  0.81299603  1
  O2-  O387  1  0.08965701  0.41336936  0.15889602  1
  O2-  O388  1  0.07656112  0.41575572  0.48185554  1
  O2-  O389  1  0.09198717  0.43124898  0.81608042  1
  O2-  O390  1  0.07038411  0.68608969  0.13190061  1
  O2-  O391  1  0.08404977  0.67640187  0.47391918  1
  O2-  O392  1  0.11129283  0.67855207  0.84657402  1
  O2-  O393  1  0.07973101  0.92127058  0.14559095  1
  O2-  O394  1  0.10429192  0.92399558  0.47142459  1
  O2-  O395  1  0.12036222  0.93408040  0.80219505  1
  O2-  O396  1  0.33572989  0.17256947  0.15533473  1
  O2-  O397  1  0.32152640  0.15518612  0.46010640  1
  O2-  O398  1  0.33956477  0.18921031  0.82439472  1
  O2-  O399  1  0.31116721  0.40448090  0.14906826  1
  O2-  O400  1  0.33109861  0.42487801  0.48075215  1
  O2-  O401  1  0.33912760  0.45573536  0.82331352  1
  O2-  O402  1  0.34430428  0.67023257  0.15373228  1
  O2-  O403  1  0.33248126  0.64885417  0.46415147  1
  O2-  O404  1  0.36299548  0.69419165  0.80797828  1
  O2-  O405  1  0.32653646  0.91082603  0.15033945  1
  O2-  O406  1  0.34402410  0.88300590  0.54192761  1
  O2-  O407  1  0.25580311  0.88173738  0.86601318  1
  O2-  O408  1  0.59096434  0.16533392  0.14373127  1
  O2-  O409  1  0.57533274  0.15095951  0.46864345  1
  O2-  O410  1  0.60703080  0.17765034  0.81682395  1
  O2-  O411  1  0.58810034  0.41119864  0.15142473  1
  O2-  O412  1  0.57385360  0.40261498  0.48832025  1
  O2-  O413  1  0.55986188  0.36835063  0.80090359  1
  O2-  O414  1  0.58664399  0.64634684  0.12856111  1
  O2-  O415  1  0.57634581  0.67100327  0.48193150  1
  O2-  O416  1  0.55140695  0.65442328  0.80928380  1
  O2-  O417  1  0.57595859  0.91647709  0.14711486  1
  O2-  O418  1  0.59797573  0.91842667  0.46935485  1
  O2-  O419  1  0.64008266  0.94285862  0.79464610  1
  O2-  O420  1  0.83939296  0.17719676  0.14779088  1
  O2-  O421  1  0.83514478  0.17558358  0.48273632  1
  O2-  O422  1  0.84848695  0.18899249  0.82194680  1
  O2-  O423  1  0.84499366  0.41413825  0.20241586  1
  O2-  O424  1  0.83352552  0.41940466  0.47126436  1
  O2-  O425  1  0.83430936  0.43208631  0.80689684  1
  O2-  O426  1  0.83268830  0.66715408  0.15566279  1
  O2-  O427  1  0.82604526  0.65625889  0.47104008  1
  O2-  O428  1  0.87855398  0.69988906  0.80338779  1
  O2-  O429  1  0.82764320  0.92140922  0.14898025  1
  O2-  O430  1  0.85692298  0.93514556  0.51616874  1
  O2-  O431  1  0.83662004  0.92355468  0.81085120  1
  O2-  O432  1  0.16125565  0.07841196  0.19052505  1
  O2-  O433  1  0.18776617  0.12911280  0.52751555  1
  O2-  O434  1  0.17189507  0.09319435  0.85292539  1
  O2-  O435  1  0.15993823  0.32779945  0.18908274  1
  O2-  O436  1  0.16824443  0.34081353  0.52386022  1
  O2-  O437  1  0.16367910  0.33661806  0.85508406  1
  O2-  O438  1  0.18729759  0.57029855  0.21226732  1
  O2-  O439  1  0.17573657  0.59199263  0.50836163  1
  O2-  O440  1  0.16662742  0.58050422  0.86749716  1
  O2-  O441  1  0.15301771  0.83384873  0.18444757  1
  O2-  O442  1  0.17030908  0.83228887  0.51634438  1
  O2-  O443  1  0.21056532  0.85381814  0.80711176  1
  O2-  O444  1  0.41693521  0.07805519  0.14349772  1
  O2-  O445  1  0.45191024  0.14352083  0.55791646  1
  O2-  O446  1  0.37803339  0.06249241  0.87451883  1
  O2-  O447  1  0.43313387  0.33134886  0.19587639  1
  O2-  O448  1  0.40934389  0.32826726  0.51556360  1
  O2-  O449  1  0.40082096  0.35117953  0.86546309  1
  O2-  O450  1  0.41699478  0.56568361  0.17840917  1
  O2-  O451  1  0.41187402  0.58175645  0.52040681  1
  O2-  O452  1  0.37999447  0.54235947  0.85094077  1
  O2-  O453  1  0.41271326  0.83461266  0.19280416  1
  O2-  O454  1  0.44189176  0.81676008  0.51228369  1
  O2-  O455  1  0.36637562  0.81853943  0.86758550  1
  O2-  O456  1  0.70230706  0.06338857  0.21015779  1
  O2-  O457  1  0.66713204  0.07670775  0.51670899  1
  O2-  O458  1  0.67409057  0.08980600  0.85556393  1
  O2-  O459  1  0.67368493  0.33046733  0.19102883  1
  O2-  O460  1  0.60162937  0.28205822  0.53945722  1
  O2-  O461  1  0.67769179  0.33737603  0.85067782  1
  O2-  O462  1  0.66585779  0.57242351  0.19049235  1
  O2-  O463  1  0.67141902  0.55376849  0.53322605  1
  O2-  O464  1  0.55928431  0.51865478  0.86224526  1
  O2-  O465  1  0.65462990  0.82638614  0.11808404  1
  O2-  O466  1  0.70327628  0.85544942  0.46949906  1
  O2-  O467  1  0.66380389  0.82653838  0.85695035  1
  O2-  O468  1  0.91783933  0.08515598  0.19137090  1
  O2-  O469  1  0.92329981  0.09978116  0.53091518  1
  O2-  O470  1  0.91713636  0.09074109  0.85962692  1
  O2-  O471  1  0.92152767  0.34285695  0.15612455  1
  O2-  O472  1  0.91280259  0.33982148  0.52249939  1
  O2-  O473  1  0.92498900  0.35664061  0.84284028  1
  O2-  O474  1  0.93010234  0.60256847  0.18984552  1
  O2-  O475  1  0.91505286  0.58171519  0.50256739  1
  O2-  O476  1  0.93904824  0.59755149  0.84621133  1
  O2-  O477  1  0.91084564  0.83649064  0.18901858  1
  O2-  O478  1  0.95290193  0.79134359  0.54010461  1
  O2-  O479  1  0.95307200  0.86116452  0.84254913  1
  O2-  O480  1  0.15598425  0.07579547  0.30381129  1
  O2-  O481  1  0.16445679  0.08588576  0.66487860  1
  O2-  O482  1  0.16431242  0.08550187  0.97795499  1
  O2-  O483  1  0.15937810  0.32789956  0.31354286  1
  O2-  O484  1  0.14075201  0.32188671  0.64665829  1
  O2-  O485  1  0.16424035  0.32375392  0.97650778  1
  O2-  O486  1  0.16488253  0.57472326  0.33608612  1
  O2-  O487  1  0.15031284  0.59213435  0.67503962  1
  O2-  O488  1  0.16673027  0.57924472  0.98719548  1
  O2-  O489  1  0.15863836  0.83356267  0.30719076  1
  O2-  O490  1  0.15201103  0.83444901  0.63801298  1
  O2-  O491  1  0.16872808  0.84014498  0.97773448  1
  O2-  O492  1  0.40856512  0.09072354  0.30280865  1
  O2-  O493  1  0.42360952  0.09733088  0.67597030  1
  O2-  O494  1  0.41406363  0.08721872  0.99318835  1
  O2-  O495  1  0.42167805  0.33726893  0.30911400  1
  O2-  O496  1  0.39299027  0.33420414  0.63637883  1
  O2-  O497  1  0.42064622  0.33532835  0.98686776  1
  O2-  O498  1  0.43497678  0.58935620  0.32722150  1
  O2-  O499  1  0.41366709  0.60116671  0.64336392  1
  O2-  O500  1  0.40849060  0.56993082  0.97887879  1
  O2-  O501  1  0.42068666  0.84846294  0.31708311  1
  O2-  O502  1  0.39426909  0.85059920  0.65421832  1
  O2-  O503  1  0.39696001  0.81724261  0.98995833  1
  O2-  O504  1  0.66268269  0.08742372  0.31733962  1
  O2-  O505  1  0.63348470  0.06609276  0.63353304  1
  O2-  O506  1  0.65645177  0.07567878  0.97592991  1
  O2-  O507  1  0.66195764  0.33403136  0.31612388  1
  O2-  O508  1  0.66743174  0.31741833  0.65089765  1
  O2-  O509  1  0.67031798  0.33681358  0.97441449  1
  O2-  O510  1  0.66006198  0.57634034  0.31321568  1
  O2-  O511  1  0.68145224  0.60237757  0.65537111  1
  O2-  O512  1  0.67059983  0.55923452  0.97250403  1
  O2-  O513  1  0.65402475  0.83483515  0.30758897  1
  O2-  O514  1  0.67081149  0.84714181  0.64286837  1
  O2-  O515  1  0.66703322  0.81939977  0.98581379  1
  O2-  O516  1  0.90970099  0.08270186  0.31685657  1
  O2-  O517  1  0.94834444  0.11498809  0.70053485  1
  O2-  O518  1  0.90925130  0.08301313  0.98155790  1
  O2-  O519  1  0.91765953  0.34037051  0.30743009  1
  O2-  O520  1  0.90833754  0.33482543  0.64571921  1
  O2-  O521  1  0.92930647  0.34436355  0.96824206  1
  O2-  O522  1  0.92154718  0.59239522  0.31343301  1
  O2-  O523  1  0.94675574  0.66496924  0.60969948  1
  O2-  O524  1  0.92187880  0.59902634  0.97135124  1
  O2-  O525  1  0.91995238  0.84327528  0.31416173  1
  O2-  O526  1  0.92008514  0.85437398  0.64262207  1
  O2-  O527  1  0.90445332  0.82448274  0.98436249  1
  O2-  O528  1  0.07728260  0.16205307  0.02093650  1
  O2-  O529  1  0.07856585  0.16962717  0.35675652  1
  O2-  O530  1  0.04089814  0.15271858  0.69220526  1
  O2-  O531  1  0.07879707  0.39072595  0.02218575  1
  O2-  O532  1  0.07435594  0.40788087  0.35862655  1
  O2-  O533  1  0.07043511  0.41447038  0.68815811  1
  O2-  O534  1  0.07922755  0.67800785  0.01664957  1
  O2-  O535  1  0.08638556  0.67038590  0.35228736  1
  O2-  O536  1  0.05484453  0.66690080  0.69352408  1
  O2-  O537  1  0.08362974  0.91905765  0.01890787  1
  O2-  O538  1  0.08110537  0.93038496  0.34994054  1
  O2-  O539  1  0.08094312  0.92233406  0.68691763  1
  O2-  O540  1  0.32890963  0.17130113  0.02556997  1
  O2-  O541  1  0.31618627  0.16336186  0.33672706  1
  O2-  O542  1  0.33459067  0.18043697  0.70032441  1
  O2-  O543  1  0.32884915  0.40573777  0.02342161  1
  O2-  O544  1  0.32180430  0.41225661  0.35751309  1
  O2-  O545  1  0.27715587  0.35849193  0.71616659  1
  O2-  O546  1  0.32685796  0.65371954  0.02918924  1
  O2-  O547  1  0.34631548  0.67044841  0.31695125  1
  O2-  O548  1  0.33107473  0.67519593  0.68943419  1
  O2-  O549  1  0.32729751  0.91434116  0.02807694  1
  O2-  O550  1  0.32549305  0.91729904  0.35233257  1
  O2-  O551  1  0.35511568  0.94143978  0.73764221  1
  O2-  O552  1  0.58650842  0.17267602  0.01541650  1
  O2-  O553  1  0.56970679  0.16525541  0.34605046  1
  O2-  O554  1  0.58991142  0.17062829  0.70575825  1
  O2-  O555  1  0.58431312  0.41004121  0.02592281  1
  O2-  O556  1  0.57660494  0.41476627  0.36019063  1
  O2-  O557  1  0.61501795  0.43138864  0.68765807  1
  O2-  O558  1  0.58007628  0.64438564  0.00787407  1
  O2-  O559  1  0.59143140  0.66433793  0.35798745  1
  O2-  O560  1  0.58728452  0.67499523  0.68595828  1
  O2-  O561  1  0.56538462  0.92768238  0.02263817  1
  O2-  O562  1  0.58162473  0.92406948  0.34878682  1
  O2-  O563  1  0.56208159  0.90190007  0.68043675  1
  O2-  O564  1  0.80756682  0.15391075  0.02660459  1
  O2-  O565  1  0.83280833  0.17429022  0.35759151  1
  O2-  O566  1  0.84397995  0.18492905  0.70561706  1
  O2-  O567  1  0.84295944  0.42529526  0.01073808  1
  O2-  O568  1  0.83477441  0.42034573  0.33419612  1
  O2-  O569  1  0.82337785  0.41437622  0.67881872  1
  O2-  O570  1  0.83610326  0.66585854  0.02925753  1
  O2-  O571  1  0.82969505  0.66699566  0.35072624  1
  O2-  O572  1  0.84580959  0.69742292  0.68951177  1
  O2-  O573  1  0.83498866  0.92099497  0.02752861  1
  O2-  O574  1  0.81932526  0.90770047  0.34936503  1
  O2-  O575  1  0.84540373  0.94085435  0.68619755  1
