# generated using pymatgen
data_H2O
_symmetry_space_group_name_H-M   'P 1'
_cell_length_a   17.98461486
_cell_length_b   17.98285002
_cell_length_c   21.99165639
_cell_angle_alpha   90.00663635
_cell_angle_beta   89.98612799
_cell_angle_gamma   119.99342866
_symmetry_Int_Tables_number   1
_chemical_formula_structural   H2O
_chemical_formula_sum   'H384 O192'
_cell_volume   6159.94703927
_cell_formula_units_Z   192
loop_
 _symmetry_equiv_pos_site_id
 _symmetry_equiv_pos_as_xyz
  1  'x, y, z'
loop_
 _atom_type_symbol
 _atom_type_oxidation_number
  H+  1.0
  O2-  -2.0
loop_
 _atom_site_type_symbol
 _atom_site_label
 _atom_site_symmetry_multiplicity
 _atom_site_fract_x
 _atom_site_fract_y
 _atom_site_fract_z
 _atom_site_occupancy
  H+  H0  1  0.63244033  0.65887206  0.32343129  1
  H+  H1  1  0.51974270  0.97294921  0.44471336  1
  H+  H2  1  0.63687173  0.52769238  0.51618426  1
  H+  H3  1  0.76855214  0.12906738  0.83977641  1
  H+  H4  1  0.53424956  0.40201228  0.50381367  1
  H+  H5  1  0.54400283  0.74124510  0.70597432  1
  H+  H6  1  0.89014394  0.12104261  0.15069837  1
  H+  H7  1  0.35102563  0.47500648  0.48891853  1
  H+  H8  1  0.09757564  0.46060308  0.33901113  1
  H+  H9  1  0.39552690  0.88034179  0.32886455  1
  H+  H10  1  0.73404275  0.87212548  0.31875741  1
  H+  H11  1  0.72119267  0.61171716  -0.00097577  1
  H+  H12  1  0.64432067  0.78177593  0.32423546  1
  H+  H13  1  0.37243747  0.84715190  0.84782180  1
  H+  H14  1  0.61225927  0.12690065  0.15590724  1
  H+  H15  1  0.87290992  -0.02666838  1.02123490  1
  H+  H16  1  0.69292778  0.61709376  0.23661064  1
  H+  H17  1  0.85636389  0.23562145  0.33898993  1
  H+  H18  1  0.11822235  0.63865257  0.69020775  1
  H+  H19  1  0.79157767  0.40773123  0.50442123  1
  H+  H20  1  0.02917780  0.63772408  0.68669540  1
  H+  H21  1  0.86729077  0.47923973  0.83036041  1
  H+  H22  1  0.78763838  0.16073462  0.67079250  1
  H+  H23  1  0.85379954  0.21849327  0.83242633  1
  H+  H24  1  0.47042058  0.35354965  0.83414884  1
  H+  H25  1  0.11017890  0.62943252  1.00670073  1
  H+  H26  1  0.91175504  0.57885791  0.90621889  1
  H+  H27  1  0.02349455  0.12156640  0.38268719  1
  H+  H28  1  0.62238969  0.75488427  0.17006458  1
  H+  H29  1  0.35070952  0.45555487  0.01144974  1
  H+  H30  1  0.66614131  0.32055827  0.30171947  1
  H+  H31  1  0.65084729  0.99826091  -0.02453163  1
  H+  H32  1  0.89393032  0.27581712  0.66928893  1
  H+  H33  1  0.39311420  0.52589785  0.32510470  1
  H+  H34  1  0.66749725  0.12228544  0.92482277  1
  H+  H35  1  0.88361746  0.52754027  0.00279708  1
  H+  H36  1  0.26743206  0.37999302  0.82929565  1
  H+  H37  1  0.90947713  0.86114881  0.67672467  1
  H+  H38  1  0.73952285  0.09885430  0.15339113  1
  H+  H39  1  0.91287280  0.52364664  0.17950166  1
  H+  H40  1  0.63091075  0.01219354  0.68564105  1
  H+  H41  1  0.48249029  0.61289303  0.16881934  1
  H+  H42  1  0.12681330  0.26682918  0.99717525  1
  H+  H43  1  0.67435048  0.29799424  0.51072173  1
  H+  H44  1  0.35716058  0.37818583  0.67726132  1
  H+  H45  1  0.35203233  0.35955927  0.02232869  1
  H+  H46  1  0.96996973  0.35482984  0.84030151  1
  H+  H47  1  0.52359239  0.87707512  1.00649720  1
  H+  H48  1  0.34900317  0.12765956  0.82794877  1
  H+  H49  1  0.77233105  0.38162671  0.67981647  1
  H+  H50  1  0.39212409  0.11876684  0.99225624  1
  H+  H51  1  0.33934631  0.21892555  0.48092137  1
  H+  H52  1  0.72951523  0.86512940  0.84468355  1
  H+  H53  1  0.15762612  0.58025782  0.43938153  1
  H+  H54  1  0.36871794  0.27382986  0.32029544  1
  H+  H55  1  0.25047418  0.13022889  0.48296687  1
  H+  H56  1  0.14580376  0.32252791  0.92803776  1
  H+  H57  1  0.96813386  0.10796372  0.50031607  1
  H+  H58  1  0.14042039  0.76342599  0.00211740  1
  H+  H59  1  0.74602212  0.13555855  0.00122872  1
  H+  H60  1  0.80534647  0.88594643  0.68019809  1
  H+  H61  1  0.85198221  0.27672451  0.99296352  1
  H+  H62  1  0.10978554  0.47018592  0.15799698  1
  H+  H63  1  0.94297775  0.08789316  0.24354712  1
  H+  H64  1  0.64921281  0.37314211  0.51565335  1
  H+  H65  1  0.14236557  0.75571143  0.51476722  1
  H+  H66  1  0.53592283  0.63954680  0.33127082  1
  H+  H67  1  0.39639956  0.03946004  0.47273804  1
  H+  H68  1  0.13363130  1.01967699  0.83815614  1
  H+  H69  1  0.87227649  0.37528631  0.16757338  1
  H+  H70  1  0.12834898  0.35662478  0.50122698  1
  H+  H71  1  0.10336773  0.08693926  0.31012540  1
  H+  H72  1  0.47145740  0.60416485  0.84804063  1
  H+  H73  1  0.11647325  0.74060632  0.34863566  1
  H+  H74  1  0.72590173  0.37048133  0.99920750  1
  H+  H75  1  0.57896036  0.67241189  0.77782353  1
  H+  H76  1  0.32401819  0.65600264  0.07015628  1
  H+  H77  1  0.21797899  0.59843638  0.84447464  1
  H+  H78  1  0.63797639  0.51920160  0.14983051  1
  H+  H79  1  0.37273343  0.38829244  0.16400017  1
  H+  H80  1  0.59943092  0.86541539  0.83243744  1
  H+  H81  1  0.65681650  0.24640887  0.83178568  1
  H+  H82  1  0.38458539  0.11672763  0.16824258  1
  H+  H83  1  0.10673453  0.46635056  0.82963486  1
  H+  H84  1  0.52010574  0.12366027  0.15995295  1
  H+  H85  1  0.37887575  0.26739607  0.66155330  1
  H+  H86  1  0.10776448  0.02945885  0.66472412  1
  H+  H87  1  0.25787508  0.88435164  0.01148396  1
  H+  H88  1  0.31961526  0.90793202  0.77622013  1
  H+  H89  1  0.87487465  0.85030105  0.00477207  1
  H+  H90  1  0.09590052  0.12803911  0.47988884  1
  H+  H91  1  0.63406647  1.01644625  0.49893892  1
  H+  H92  1  0.10613318  0.14523125  0.66981686  1
  H+  H93  1  0.91522358  0.62774790  0.51265785  1
  H+  H94  1  0.76148327  0.13209076  0.32565524  1
  H+  H95  1  0.89513299  0.10645972  1.04214132  1
  H+  H96  1  0.61006147  0.47793821  0.67709726  1
  H+  H97  1  0.32685667  0.91077938  0.44249972  1
  H+  H98  1  0.86086266  0.88581154  0.17077003  1
  H+  H99  1  0.52424631  0.38522720  0.67851641  1
  H+  H100  1  0.62559832  0.99389284  0.65398666  1
  H+  H101  1  0.72649088  0.61221164  0.84237731  1
  H+  H102  1  0.52040529  0.08030504  0.53033172  1
  H+  H103  1  0.64046589  0.36772449  0.84203817  1
  H+  H104  1  0.65555181  0.02799206  0.31314044  1
  H+  H105  1  0.32145527  0.67379326  0.34069568  1
  H+  H106  1  0.16994218  0.05920467  0.98998731  1
  H+  H107  1  0.63840107  0.27879530  -0.00375563  1
  H+  H108  1  0.38086950  0.35189982  0.83368688  1
  H+  H109  1  1.03450257  0.63673860  0.16438592  1
  H+  H110  1  0.53713777  0.90450504  0.32588282  1
  H+  H111  1  0.12877984  0.59990020  0.84546508  1
  H+  H112  1  0.87917676  0.86796578  0.33641337  1
  H+  H113  1  0.61918227  0.85130699  0.17088444  1
  H+  H114  1  0.45628075  0.10915643  0.32499627  1
  H+  H115  1  0.66671940  0.59025137  0.60517047  1
  H+  H116  1  0.41251170  0.80087753  0.32878643  1
  H+  H117  1  0.61282960  0.63597797  0.83191631  1
  H+  H118  1  0.97210618  0.61600317  1.00067772  1
  H+  H119  1  0.64867743  0.37863275  0.66792242  1
  H+  H120  1  0.25325205  0.88458507  0.64252770  1
  H+  H121  1  0.39291989  0.71133641  0.69473649  1
  H+  H122  1  -0.01488372  0.83999317  0.66925581  1
  H+  H123  1  0.61297171  0.47678806  0.83198491  1
  H+  H124  1  0.44955346  0.31094949  1.00174766  1
  H+  H125  1  0.35645699  0.97442601  0.34601556  1
  H+  H126  1  0.11665447  0.47678438  0.67555417  1
  H+  H127  1  0.96620142  0.86719354  0.34941943  1
  H+  H128  1  0.13357359  0.01807308  0.30008457  1
  H+  H129  1  0.65755237  0.82582680  0.23425106  1
  H+  H130  1  0.11994350  0.72897232  0.15756894  1
  H+  H131  1  0.13282126  0.93087380  0.66258523  1
  H+  H132  1  0.72328089  0.61370269  0.51009961  1
  H+  H133  1  0.13727256  0.36429979  0.32266607  1
  H+  H134  1  0.88515510  0.76758911  0.84392572  1
  H+  H135  1  0.61445694  0.87866709  1.00878753  1
  H+  H136  1  0.57823812  0.21703272  0.36819796  1
  H+  H137  1  0.55978303  0.42031332  0.07888973  1
  H+  H138  1  0.25792102  0.87022150  0.83549815  1
  H+  H139  1  0.40834313  0.62204270  0.32637933  1
  H+  H140  1  0.62080048  0.26156248  0.13307005  1
  H+  H141  1  0.59757059  0.38165618  0.12501105  1
  H+  H142  1  0.85501814  -0.02563106  0.48704965  1
  H+  H143  1  0.12934036  0.87284656  0.16167432  1
  H+  H144  1  0.36303498  0.88650473  0.50037981  1
  H+  H145  1  0.06176241  0.90590635  0.09268641  1
  H+  H146  1  0.35898600  0.98621469  0.15685890  1
  H+  H147  1  0.63711181  0.48857934  0.35065457  1
  H+  H148  1  0.53300180  0.13680317  0.99936448  1
  H+  H149  1  0.45146528  0.08553567  0.84228487  1
  H+  H150  1  0.02087548  0.87850303  0.82952990  1
  H+  H151  1  0.95881303  0.84926121  0.18043036  1
  H+  H152  1  0.27268251  0.88061390  0.34663488  1
  H+  H153  1  0.16020489  0.82340785  0.90800965  1
  H+  H154  1  0.12595483  0.84488147  0.00072110  1
  H+  H155  1  0.26410347  0.62657289  1.01092811  1
  H+  H156  1  0.39187101  0.39298725  0.51239337  1
  H+  H157  1  0.42139111  0.13268246  0.74945361  1
  H+  H158  1  0.86888378  0.13817954  0.48554933  1
  H+  H159  1  0.50519480  0.85843874  0.83732670  1
  H+  H160  1  0.69111130  0.87556528  0.64604014  1
  H+  H161  1  0.36761493  0.10869906  0.31838530  1
  H+  H162  1  0.37509786  0.48132542  0.16020763  1
  H+  H163  1  -0.02602405  0.60576597  0.84781178  1
  H+  H164  1  0.09699376  0.21682650  0.47971561  1
  H+  H165  1  0.61850634  0.14490925  0.83448542  1
  H+  H166  1  0.14469566  0.36960005  0.17253175  1
  H+  H167  1  0.79853113  0.39693576  0.17979380  1
  H+  H168  1  0.86192422  0.75442746  0.00588519  1
  H+  H169  1  0.70594506  0.19143936  0.02026992  1
  H+  H170  1  0.38333877  0.59784252  0.66223802  1
  H+  H171  1  0.86718321  0.88846627  0.83667224  1
  H+  H172  1  0.13770734  0.88042990  0.31705831  1
  H+  H173  1  0.61594394  0.64557539  0.01085660  1
  H+  H174  1  0.13656033  0.60980757  0.17098929  1
  H+  H175  1  0.47417429  0.60668751  0.50223783  1
  H+  H176  1  0.86659571  0.97759635  0.84107452  1
  H+  H177  1  0.38283134  0.86377901  0.16986199  1
  H+  H178  1  0.38808212  0.61131926  0.50642483  1
  H+  H179  1  0.47192573  0.86441747  0.50952955  1
  H+  H180  1  0.63177418  0.39824183  0.35899224  1
  H+  H181  1  0.88346439  0.35949464  0.83967889  1
  H+  H182  1  0.85939684  0.39226661  0.00772066  1
  H+  H183  1  0.86577419  0.37427755  0.68059723  1
  H+  H184  1  0.90088142  0.61628841  0.66874395  1
  H+  H185  1  0.86822987  0.48280221  0.34831359  1
  H+  H186  1  1.00196631  0.09698177  0.18619983  1
  H+  H187  1  0.38309967  0.51417034  0.84078385  1
  H+  H188  1  0.87464637  0.97990940  0.16720415  1
  H+  H189  1  0.76711226  0.88275879  0.48493127  1
  H+  H190  1  0.73227590  0.36149199  0.35481640  1
  H+  H191  1  0.13119841  0.27539254  0.65674286  1
  H+  H192  1  0.62980693  0.52695801  0.99347622  1
  H+  H193  1  0.68047291  0.81994116  0.55800429  1
  H+  H194  1  0.77628991  0.39172955  0.83005801  1
  H+  H195  1  0.12828701  0.85178246  0.84829050  1
  H+  H196  1  0.87277085  0.39508449  0.50147963  1
  H+  H197  1  0.86141321  0.63238360  0.83490312  1
  H+  H198  1  0.10201262  0.47017725  0.48999097  1
  H+  H199  1  0.86712820  0.72090656  0.68449766  1
  H+  H200  1  0.35290819  0.98245499  0.00785887  1
  H+  H201  1  0.88787423  0.37191303  0.33560525  1
  H+  H202  1  0.78982497  0.55564030  0.46499715  1
  H+  H203  1  0.12641078  0.35567555  0.84210917  1
  H+  H204  1  0.36786457  0.91280310  0.68420780  1
  H+  H205  1  0.99048767  0.84843432  1.00457287  1
  H+  H206  1  0.78152549  0.64904871  0.32480586  1
  H+  H207  1  0.24935654  0.88368168  0.54034541  1
  H+  H208  1  0.12531674  0.51138745  -0.00435006  1
  H+  H209  1  0.88093597  0.10866122  0.85454969  1
  H+  H210  1  1.02799631  0.89540299  0.46517008  1
  H+  H211  1  0.38285015  0.11898870  0.46304284  1
  H+  H212  1  0.50665322  0.14136687  0.41074730  1
  H+  H213  1  0.27914836  0.63938319  0.48320759  1
  H+  H214  1  0.88785596  0.86886913  0.48621336  1
  H+  H215  1  0.37064993  0.00107663  0.70193122  1
  H+  H216  1  0.23569999  0.37553531  0.32211234  1
  H+  H217  1  0.62251146  0.64391951  0.15180505  1
  H+  H218  1  0.00239922  0.37163017  0.00733717  1
  H+  H219  1  0.05462227  0.88079302  0.29208660  1
  H+  H220  1  0.51679438  0.65125201  0.67670918  1
  H+  H221  1  0.84741966  0.62827657  0.02230750  1
  H+  H222  1  0.62314966  0.24670684  0.68363971  1
  H+  H223  1  0.12619807  0.26550382  0.84254789  1
  H+  H224  1  0.36091369  0.46837847  0.67305960  1
  H+  H225  1  0.36090989  0.57811070  0.99968851  1
  H+  H226  1  0.73654370  0.87022572  1.00204035  1
  H+  H227  1  0.46734916  0.45455089  0.55433232  1
  H+  H228  1  0.35724757  0.38630317  0.33331523  1
  H+  H229  1  0.38261941  0.85229103  1.00374221  1
  H+  H230  1  0.75042180  0.71169032  0.25534701  1
  H+  H231  1  0.29379527  0.16772983  -0.00518805  1
  H+  H232  1  0.88321045  0.27013972  0.50874288  1
  H+  H233  1  0.86604614  0.72909582  0.34663342  1
  H+  H234  1  0.34652308  0.13377668  0.67501207  1
  H+  H235  1  0.11371515  0.38666715  0.67056532  1
  H+  H236  1  0.07609675  0.93028991  -0.01428264  1
  H+  H237  1  0.83014033  0.16187762  0.73613270  1
  H+  H238  1  0.33616979  0.78347929  0.65922067  1
  H+  H239  1  0.25369610  0.13603497  0.32146075  1
  H+  H240  1  1.03821451  0.14439280  1.02617724  1
  H+  H241  1  0.88122923  0.19105954  0.11156522  1
  H+  H242  1  0.18880180  0.59263916  0.32233961  1
  H+  H243  1  0.35293994  0.71071485  0.83621869  1
  H+  H244  1  0.35884201  0.72047137  0.16530719  1
  H+  H245  1  0.09890896  0.64460587  0.35254474  1
  H+  H246  1  0.89417103  1.02613228  0.66344631  1
  H+  H247  1  0.67091246  0.17097606  0.49511262  1
  H+  H248  1  0.36777116  0.72655667  0.49822450  1
  H+  H249  1  0.70286866  0.34811368  0.11200774  1
  H+  H250  1  0.36184952  -0.00112464  0.84447994  1
  H+  H251  1  0.43526184  0.83269999  0.67715219  1
  H+  H252  1  0.97735212  0.62201825  0.33752935  1
  H+  H253  1  0.15895360  0.57062423  0.93660336  1
  H+  H254  1  0.77778578  0.63188916  0.68124674  1
  H+  H255  1  1.01691600  0.14297713  0.67138345  1
  H+  H256  1  0.23821685  0.61419847  0.66659969  1
  H+  H257  1  0.10690254  0.13428410  0.82499685  1
  H+  H258  1  0.12181017  0.07892908  0.21637032  1
  H+  H259  1  0.27393044  0.15944432  0.14423095  1
  H+  H260  1  0.91707256  0.54232784  0.51535255  1
  H+  H261  1  0.63606692  0.76806320  0.49837688  1
  H+  H262  1  0.14234221  0.15880162  0.10767004  1
  H+  H263  1  0.77925453  0.13293164  0.48638717  1
  H+  H264  1  0.61035019  0.63338018  0.49060194  1
  H+  H265  1  0.22159269  0.11029271  0.83254191  1
  H+  H266  1  0.60453531  0.37819877  -0.01138966  1
  H+  H267  1  0.65495605  0.77805541  0.66180005  1
  H+  H268  1  0.52002240  0.88309001  0.15788983  1
  H+  H269  1  0.54966457  0.40901290  -0.04935380  1
  H+  H270  1  0.88603348  0.61304277  0.32656617  1
  H+  H271  1  0.12788514  0.15306590  0.00437436  1
  H+  H272  1  0.64745339  0.01698231  0.16293176  1
  H+  H273  1  0.62187768  0.89458599  0.33119286  1
  H+  H274  1  0.01361610  0.38034049  0.49599283  1
  H+  H275  1  0.22150284  0.60319245  0.17790956  1
  H+  H276  1  0.12603997  0.01971441  0.48702189  1
  H+  H277  1  0.87598299  0.98358648  0.33453740  1
  H+  H278  1  0.35723438  0.62288232  0.83652669  1
  H+  H279  1  0.47719600  0.36800621  0.16329656  1
  H+  H280  1  0.64197443  0.61920404  0.66679145  1
  H+  H281  1  0.10546459  0.71003183  0.83879284  1
  H+  H282  1  0.20622255  0.10300931  0.65741462  1
  H+  H283  1  0.62406751  0.73830921  1.01225975  1
  H+  H284  1  0.53368930  0.05948815  0.55429373  1
  H+  H285  1  0.08443374  0.97322716  0.14694417  1
  H+  H286  1  0.66659708  0.16770426  0.65232313  1
  H+  H287  1  0.49332749  0.13981329  0.70376302  1
  H+  H288  1  0.83691250  0.41808187  0.07164343  1
  H+  H289  1  0.07517912  0.16709499  0.76832006  1
  H+  H290  1  0.36632178  0.68817777  0.40444409  1
  H+  H291  1  0.40684053  0.08229064  0.22907828  1
  H+  H292  1  0.22259998  0.36132936  0.65534738  1
  H+  H293  1  0.17768267  0.09938732  0.92406121  1
  H+  H294  1  0.06704267  0.39992737  0.06552144  1
  H+  H295  1  0.58025635  0.90670486  0.09809894  1
  H+  H296  1  0.58612218  0.41799794  0.77249128  1
  H+  H297  1  0.31050562  0.16058258  0.72903937  1
  H+  H298  1  0.33323874  0.65032709  0.74628525  1
  H+  H299  1  0.67376716  0.34230142  0.90258660  1
  H+  H300  1  0.39085219  0.54849147  0.93995695  1
  H+  H301  1  0.83766000  0.91371201  0.07982931  1
  H+  H302  1  0.41744977  0.33996711  0.60883777  1
  H+  H303  1  0.41479418  0.83367085  0.57137480  1
  H+  H304  1  0.17760013  0.59501949  0.60942272  1
  H+  H305  1  0.58893302  0.67628990  0.09476661  1
  H+  H306  1  0.32430104  0.92566757  0.07751549  1
  H+  H307  1  0.59744739  0.43017127  0.44577122  1
  H+  H308  1  0.62011484  0.18938171  0.74058983  1
  H+  H309  1  0.81636390  0.63701326  0.42490897  1
  H+  H310  1  0.38871680  0.27913622  0.16817446  1
  H+  H311  1  0.19732472  0.80323842  0.28327252  1
  H+  H312  1  0.91261405  0.32662089  0.57067321  1
  H+  H313  1  0.16102899  0.85069021  0.22275927  1
  H+  H314  1  0.02605017  0.37822544  0.16536821  1
  H+  H315  1  0.82828965  0.92021426  0.39290074  1
  H+  H316  1  0.15950789  0.32622362  0.55878608  1
  H+  H317  1  0.69383863  0.08640554  0.25175955  1
  H+  H318  1  0.84704637  0.42813130  0.41085896  1
  H+  H319  1  0.93605009  0.58265665  0.23866610  1
  H+  H320  1  0.36331351  0.63348655  0.16443596  1
  H+  H321  1  -0.02753548  0.36011519  0.33528880  1
  H+  H322  1  0.91115948  0.08101617  0.56174638  1
  H+  H323  1  0.08686303  0.66321377  0.06759776  1
  H+  H324  1  0.97019488  0.11239611  0.85408578  1
  H+  H325  1  0.32305848  0.40876864  0.76803948  1
  H+  H326  1  0.40232197  0.81851146  0.90805855  1
  H+  H327  1  0.57254178  0.93380027  0.41683230  1
  H+  H328  1  0.58453638  0.66091389  0.42781314  1
  H+  H329  1  0.34904871  0.06357324  0.58679689  1
  H+  H330  1  0.07617055  0.40354450  0.40022957  1
  H+  H331  1  0.83470992  0.41028371  0.74495788  1
  H+  H332  1  0.53396151  0.84693288  0.75558300  1
  H+  H333  1  0.71271499  0.41501423  0.22446605  1
  H+  H334  1  0.89412567  0.26366737  0.19484017  1
  H+  H335  1  0.91335053  0.09838716  0.97102222  1
  H+  H336  1  0.64123282  0.19447220  0.43523778  1
  H+  H337  1  0.08435243  0.89900943  0.77225383  1
  H+  H338  1  0.23679962  0.37205983  0.17491733  1
  H+  H339  1  0.30665931  0.16120990  0.38377358  1
  H+  H340  1  0.85369196  0.92577972  0.74295958  1
  H+  H341  1  0.55802143  0.86662036  0.68265675  1
  H+  H342  1  0.69902719  0.02834381  0.55145663  1
  H+  H343  1  0.40467299  0.07228817  0.93481519  1
  H+  H344  1  0.58032939  0.16177029  0.06285684  1
  H+  H345  1  0.14610578  0.07049593  0.55158027  1
  H+  H346  1  0.70583997  0.37003985  0.22845459  1
  H+  H347  1  0.42535950  0.58195929  0.22950168  1
  H+  H348  1  0.08020571  0.40951715  0.76867429  1
  H+  H349  1  0.34424711  0.18386019  0.09371696  1
  H+  H350  1  0.91098922  0.82280982  0.90462767  1
  H+  H351  1  0.33686179  0.40802406  0.08436528  1
  H+  H352  1  0.67870674  0.84094755  0.94055633  1
  H+  H353  1  0.17654561  0.34710769  0.25134408  1
  H+  H354  1  0.89459635  0.78580905  0.50036018  1
  H+  H355  1  0.66590971  0.58562647  0.90124340  1
  H+  H356  1  0.88463726  0.11085185  0.66160413  1
  H+  H357  1  0.37807581  0.76098588  1.00225994  1
  H+  H358  1  0.26347123  0.38265168  0.48890209  1
  H+  H359  1  0.36024529  0.22333992  0.82220218  1
  H+  H360  1  0.26665301  0.89664512  0.15566097  1
  H+  H361  1  0.10941711  0.35229704  0.99278115  1
  H+  H362  1  0.15515139  0.63698347  0.49167384  1
  H+  H363  1  0.97995521  0.36814135  0.66553940  1
  H+  H364  1  0.82759444  0.16715703  0.39623210  1
  H+  H365  1  0.69127631  0.13267679  0.59357333  1
  H+  H366  1  0.07865944  0.65415346  0.77728651  1
  H+  H367  1  0.38688184  0.05893952  0.59539220  1
  H+  H368  1  0.13661624  0.56399401  0.26231464  1
  H+  H369  1  0.91360627  0.83449240  0.24474693  1
  H+  H370  1  0.11204117  0.71099241  0.44886453  1
  H+  H371  1  0.41148747  0.33996053  0.26633087  1
  H+  H372  1  0.12211132  0.84222539  0.67186673  1
  H+  H373  1  0.68063501  0.34844818  0.60863729  1
  H+  H374  1  0.41657658  0.84297293  0.23093391  1
  H+  H375  1  0.32713398  0.41729684  0.39346907  1
  H+  H376  1  0.83266000  0.66123881  0.77441160  1
  H+  H377  1  0.09395820  0.92900112  0.40924125  1
  H+  H378  1  0.64224457  0.77356270  0.84905965  1
  H+  H379  1  0.94149614  0.59984180  0.60943918  1
  H+  H380  1  0.41707280  0.57741236  0.59993120  1
  H+  H381  1  0.90418383  0.33106115  0.93401439  1
  H+  H382  1  0.79345408  0.63909484  0.07880616  1
  H+  H383  1  0.92135911  0.33295067  0.24674221  1
  O2-  O384  1  0.17036352  0.15128657  0.14429492  1
  O2-  O385  1  0.06304571  0.15627062  0.46589221  1
  O2-  O386  1  0.07665519  0.16592684  0.81376551  1
  O2-  O387  1  0.08227333  0.40897359  0.14396060  1
  O2-  O388  1  0.07289918  0.40907250  0.47754063  1
  O2-  O389  1  0.07676655  0.40561798  0.81408921  1
  O2-  O390  1  0.09417548  0.66851743  0.14448143  1
  O2-  O391  1  0.14751621  0.71767377  0.48501422  1
  O2-  O392  1  0.07586418  0.64970235  0.82436067  1
  O2-  O393  1  0.06823416  0.91280985  0.13753374  1
  O2-  O394  1  0.08982315  0.93104199  0.45356750  1
  O2-  O395  1  0.08270545  0.90867049  0.81638233  1
  O2-  O396  1  0.33525350  0.17644058  0.13847176  1
  O2-  O397  1  0.30960304  0.16158843  0.46342682  1
  O2-  O398  1  0.32586993  0.16064057  0.80702741  1
  O2-  O399  1  0.34137626  0.41883642  0.14747148  1
  O2-  O400  1  0.32450643  0.41463855  0.47370002  1
  O2-  O401  1  0.32699530  0.40974340  0.81344799  1
  O2-  O402  1  0.32790257  0.65950374  0.15183374  1
  O2-  O403  1  0.34288474  0.66947832  0.47713481  1
  O2-  O404  1  0.32530976  0.65094001  0.81940184  1
  O2-  O405  1  0.32734372  0.92528285  0.13922289  1
  O2-  O406  1  0.33412845  0.91857233  0.48756720  1
  O2-  O407  1  0.31972284  0.90275941  0.82171112  1
  O2-  O408  1  0.57789866  0.15209698  0.14053003  1
  O2-  O409  1  0.68156548  0.21983172  0.46979316  1
  O2-  O410  1  0.65539016  0.19607197  0.81090254  1
  O2-  O411  1  0.56950622  0.41804519  0.12261175  1
  O2-  O412  1  0.59519759  0.42671010  0.49178816  1
  O2-  O413  1  0.58455483  0.41547102  0.81786243  1
  O2-  O414  1  0.58781581  0.67197655  0.14309619  1
  O2-  O415  1  0.57668131  0.65855224  0.47279488  1
  O2-  O416  1  0.58073113  0.66701873  0.82255522  1
  O2-  O417  1  0.58075558  0.90694120  0.14405629  1
  O2-  O418  1  0.55205060  0.94494050  0.45681972  1
  O2-  O419  1  0.55832604  0.87985839  0.81216501  1
  O2-  O420  1  0.85265523  0.12995959  0.12086509  1
  O2-  O421  1  0.83831023  0.16891949  0.47009582  1
  O2-  O422  1  0.82443654  0.15723318  0.81880513  1
  O2-  O423  1  0.84572026  0.40892884  0.15186013  1
  O2-  O424  1  0.85040940  0.43262817  0.48653699  1
  O2-  O425  1  0.83647358  0.41855241  0.81355712  1
  O2-  O426  1  0.75943011  0.60869868  0.14738153  1
  O2-  O427  1  0.80890201  0.61667724  0.46838282  1
  O2-  O428  1  0.83159403  0.66343202  0.82038169  1
  O2-  O429  1  0.83924391  0.92132683  0.15083746  1
  O2-  O430  1  0.82750941  0.91604392  0.46846675  1
  O2-  O431  1  0.83823883  0.91973595  0.82111446  1
  O2-  O432  1  0.09864431  0.07443047  0.17310330  1
  O2-  O433  1  0.15180402  0.07902819  0.50720946  1
  O2-  O434  1  0.16272489  0.08112898  0.85119908  1
  O2-  O435  1  0.17760620  0.34473245  0.19240599  1
  O2-  O436  1  0.15943402  0.32598253  0.51329315  1
  O2-  O437  1  0.15525113  0.32510491  0.86074675  1
  O2-  O438  1  0.15893025  0.57286159  0.18844529  1
  O2-  O439  1  0.16725581  0.58726108  0.48320992  1
  O2-  O440  1  0.15771781  0.56717017  0.85987315  1
  O2-  O441  1  0.16426228  0.84737005  0.17826052  1
  O2-  O442  1  0.19394227  0.86420395  0.56292054  1
  O2-  O443  1  0.15860708  0.82120111  0.86283861  1
  O2-  O444  1  0.41044125  0.08235717  0.18310070  1
  O2-  O445  1  0.42595825  0.10043769  0.46067822  1
  O2-  O446  1  0.39316014  0.06224392  0.85782552  1
  O2-  O447  1  0.41953914  0.33956244  0.18354528  1
  O2-  O448  1  0.43946437  0.39583387  0.53869779  1
  O2-  O449  1  0.40891494  0.31832023  0.84527289  1
  O2-  O450  1  0.42186098  0.58143001  0.18404290  1
  O2-  O451  1  0.41506565  0.57745561  0.52063297  1
  O2-  O452  1  0.40983567  0.57208855  0.86050249  1
  O2-  O453  1  0.41345599  0.83503264  0.18563119  1
  O2-  O454  1  0.41390386  0.82691392  0.52652256  1
  O2-  O455  1  0.40106589  0.81530496  0.86267391  1
  O2-  O456  1  0.68358289  0.07896588  0.17387200  1
  O2-  O457  1  0.68300585  0.06078575  0.52417842  1
  O2-  O458  1  0.67064981  0.07516691  0.90469474  1
  O2-  O459  1  0.64177427  0.32187656  0.12007734  1
  O2-  O460  1  0.68676847  0.35199246  0.53257545  1
  O2-  O461  1  0.67582984  0.34236652  0.85710416  1
  O2-  O462  1  0.67149832  0.58107544  0.16308021  1
  O2-  O463  1  0.66512844  0.59001856  0.52864785  1
  O2-  O464  1  0.66465601  0.58245760  0.85570990  1
  O2-  O465  1  0.64699129  0.81812140  0.18817315  1
  O2-  O466  1  0.66988590  0.82718438  0.51503328  1
  O2-  O467  1  0.66985923  0.83510805  0.86160993  1
  O2-  O468  1  0.94650297  0.09210188  0.19692973  1
  O2-  O469  1  0.90757514  0.07997918  0.51652469  1
  O2-  O470  1  0.91268577  0.08228393  0.87341867  1
  O2-  O471  1  0.92338877  0.32572328  0.20083827  1
  O2-  O472  1  0.91379690  0.32978002  0.52542509  1
  O2-  O473  1  0.90965153  0.32595370  0.85596362  1
  O2-  O474  1  0.94479013  0.58331946  0.19394073  1
  O2-  O475  1  0.94792878  0.60255006  0.52976124  1
  O2-  O476  1  0.91180493  0.57638697  0.86083325  1
  O2-  O477  1  0.90264441  0.82656759  0.20055691  1
  O2-  O478  1  0.92847932  0.84751751  0.49497263  1
  O2-  O479  1  0.91736808  0.82834972  0.85967010  1
  O2-  O480  1  0.14691893  0.07733167  0.28869697  1
  O2-  O481  1  0.14687911  0.07856625  0.63997167  1
  O2-  O482  1  0.18862588  0.11359209  0.96924490  1
  O2-  O483  1  0.17506916  0.34454453  0.30310546  1
  O2-  O484  1  0.16288580  0.33471945  0.63894294  1
  O2-  O485  1  0.14374849  0.32449910  0.97597288  1
  O2-  O486  1  0.12973670  0.56095783  0.30826571  1
  O2-  O487  1  0.17732339  0.58596299  0.65312772  1
  O2-  O488  1  0.15832078  0.57221648  0.98241838  1
  O2-  O489  1  0.18123649  0.82739827  0.31693997  1
  O2-  O490  1  0.20498177  0.83349900  0.62247832  1
  O2-  O491  1  0.16843712  0.82659569  0.98935353  1
  O2-  O492  1  0.39903550  0.07847199  0.30507454  1
  O2-  O493  1  0.42886618  0.11053759  0.71085087  1
  O2-  O494  1  0.40963971  0.07650872  0.98034771  1
  O2-  O495  1  0.40027116  0.33621237  0.31055787  1
  O2-  O496  1  0.41567834  0.33015992  0.65347803  1
  O2-  O497  1  0.38619489  0.28514681  0.99830822  1
  O2-  O498  1  0.42962000  0.58555842  0.30843407  1
  O2-  O499  1  0.41923404  0.57472276  0.64543887  1
  O2-  O500  1  0.37594265  0.53565703  0.98385203  1
  O2-  O501  1  0.43043956  0.85683406  0.30877770  1
  O2-  O502  1  0.39073047  0.83581307  0.65127964  1
  O2-  O503  1  0.41055001  0.82201963  0.98679321  1
  O2-  O504  1  0.69094517  0.08834184  0.29726882  1
  O2-  O505  1  0.71532184  0.17064823  0.62880626  1
  O2-  O506  1  0.70381039  0.04569706  0.95543340  1
  O2-  O507  1  0.66887681  0.32934807  0.34564176  1
  O2-  O508  1  0.68048277  0.34878157  0.65453673  1
  O2-  O509  1  0.66758161  0.33898125  0.98006203  1
  O2-  O510  1  0.71101440  0.65563163  0.27316374  1
  O2-  O511  1  0.66520053  0.58438806  0.65085412  1
  O2-  O512  1  0.66236585  0.58668667  0.97927642  1
  O2-  O513  1  0.67163503  0.84010568  0.30490098  1
  O2-  O514  1  0.70358037  0.82900367  0.64130771  1
  O2-  O515  1  0.67626069  0.84067381  0.98600149  1
  O2-  O516  1  0.93688735  0.07425253  0.31666494  1
  O2-  O517  1  0.91681044  0.08380304  0.64395080  1
  O2-  O518  1  0.92827407  0.09217213  1.01317499  1
  O2-  O519  1  0.91265922  0.33645347  0.31872193  1
  O2-  O520  1  0.91771371  0.33582961  0.65307481  1
  O2-  O521  1  0.90159090  0.33331099  0.97955030  1
  O2-  O522  1  0.91976637  0.58379408  0.31824960  1
  O2-  O523  1  0.93750788  0.59324636  0.65446711  1
  O2-  O524  1  0.91123623  0.58757089  0.98699764  1
  O2-  O525  1  0.91171676  0.83516250  0.32782488  1
  O2-  O526  1  0.92396130  0.81849491  0.66071212  1
  O2-  O527  1  0.89693777  0.81304575  0.98723882  1
  O2-  O528  1  0.10226562  0.18046102  0.02980614  1
  O2-  O529  1  0.02369089  0.10278609  0.34038747  1
  O2-  O530  1  0.07740468  0.17490529  0.68788261  1
  O2-  O531  1  0.06440660  0.39822857  0.01997635  1
  O2-  O532  1  0.07579319  0.40094083  0.35444714  1
  O2-  O533  1  0.08379377  0.41581848  0.68903748  1
  O2-  O534  1  0.08486438  0.66462480  0.02191620  1
  O2-  O535  1  0.07693606  0.68098021  0.36820000  1
  O2-  O536  1  0.08712068  0.66516959  0.70819323  1
  O2-  O537  1  0.05611166  0.88195374  0.01358879  1
  O2-  O538  1  0.10352303  0.91337914  0.31895610  1
  O2-  O539  1  0.10070518  0.87985386  0.68778744  1
  O2-  O540  1  0.35218727  0.19354366  0.01442389  1
  O2-  O541  1  0.31269505  0.16270129  0.33867332  1
  O2-  O542  1  0.30970109  0.15900828  0.68347846  1
  O2-  O543  1  0.32820201  0.39621349  0.03608109  1
  O2-  O544  1  0.32880413  0.42106264  0.34811933  1
  O2-  O545  1  0.32545603  0.40863018  0.68874332  1
  O2-  O546  1  0.32524905  0.65637017  0.02483254  1
  O2-  O547  1  0.37795646  0.69664560  0.35896021  1
  O2-  O548  1  0.34104329  0.65531434  0.70016440  1
  O2-  O549  1  0.32152965  0.92205127  0.02715658  1
  O2-  O550  1  0.33518239  0.91566306  0.36233513  1
  O2-  O551  1  0.33344148  0.93712459  0.70121944  1
  O2-  O552  1  0.58993961  0.17260074  0.01814447  1
  O2-  O553  1  0.55064300  0.15539149  0.37775037  1
  O2-  O554  1  0.59723174  0.18610414  0.69824623  1
  O2-  O555  1  0.56167157  0.39926611  -0.00767023  1
  O2-  O556  1  0.60713737  0.43450756  0.37258821  1
  O2-  O557  1  0.58506441  0.41805335  0.69274253  1
  O2-  O558  1  0.59083098  0.67873088  0.02896525  1
  O2-  O559  1  0.59576580  0.67507282  0.34731423  1
  O2-  O560  1  0.56544576  0.70026562  0.69884296  1
  O2-  O561  1  0.58385266  0.91071216  0.02116491  1
  O2-  O562  1  0.59637597  0.93078051  0.34365209  1
  O2-  O563  1  0.51463534  0.82143066  0.70850466  1
  O2-  O564  1  0.76059763  0.19149675  0.02049062  1
  O2-  O565  1  0.82601243  0.17273561  0.35029526  1
  O2-  O566  1  0.84168053  0.17055215  0.69164890  1
  O2-  O567  1  0.82967289  0.42111039  0.02709791  1
  O2-  O568  1  0.84045490  0.42263073  0.36517196  1
  O2-  O569  1  0.83240490  0.40290074  0.69797742  1
  O2-  O570  1  0.81187192  0.65409264  0.03425729  1
  O2-  O571  1  0.83198067  0.66513135  0.35163682  1
  O2-  O572  1  0.83546732  0.65930578  0.69968710  1
  O2-  O573  1  0.83779530  0.91223879  0.03296058  1
  O2-  O574  1  0.83233977  0.91956025  0.34720710  1
  O2-  O575  1  0.86216952  0.92660314  0.69779219  1
