# generated using pymatgen
data_H2O
_symmetry_space_group_name_H-M   'P 1'
_cell_length_a   17.97476167
_cell_length_b   17.97155245
_cell_length_c   21.99093991
_cell_angle_alpha   90.02188470
_cell_angle_beta   89.98091818
_cell_angle_gamma   119.97477441
_symmetry_Int_Tables_number   1
_chemical_formula_structural   H2O
_chemical_formula_sum   'H384 O192'
_cell_volume   6153.65945147
_cell_formula_units_Z   192
loop_
 _symmetry_equiv_pos_site_id
 _symmetry_equiv_pos_as_xyz
  1  'x, y, z'
loop_
 _atom_type_symbol
 _atom_type_oxidation_number
  H+  1.0
  O2-  -2.0
loop_
 _atom_site_type_symbol
 _atom_site_label
 _atom_site_symmetry_multiplicity
 _atom_site_fract_x
 _atom_site_fract_y
 _atom_site_fract_z
 _atom_site_occupancy
  H+  H0  1  0.86155996  0.48757021  0.19164468  1
  H+  H1  1  0.86950924  0.22699527  0.33896932  1
  H+  H2  1  0.60613306  0.84304232  0.84420704  1
  H+  H3  1  0.61710366  0.39757986  0.67272256  1
  H+  H4  1  0.87913546  0.76630244  0.32628077  1
  H+  H5  1  0.10044990  0.98164748  0.82890003  1
  H+  H6  1  0.97030504  0.35748085  0.66430775  1
  H+  H7  1  0.29553787  0.03961153  0.94414394  1
  H+  H8  1  0.15160780  0.87071278  0.33049718  1
  H+  H9  1  0.85340156  0.47350758  0.82878423  1
  H+  H10  1  0.39379502  0.86781357  -0.00476605  1
  H+  H11  1  0.13866413  0.52609028  0.33003874  1
  H+  H12  1  0.14013730  0.86039394  0.99894630  1
  H+  H13  1  0.36289675  0.14689755  0.48527318  1
  H+  H14  1  0.97099800  0.86737562  0.84123676  1
  H+  H15  1  0.23257863  0.14756238  0.99550069  1
  H+  H16  1  0.46677565  0.60806846  0.16891957  1
  H+  H17  1  0.22864021  0.35925015  0.83567880  1
  H+  H18  1  0.39119144  0.77328666  0.33120179  1
  H+  H19  1  0.10890554  0.97734943  0.16759179  1
  H+  H20  1  0.11079466  0.44540506  -0.01119515  1
  H+  H21  1  0.35824919  0.72490324  0.15680029  1
  H+  H22  1  -0.02125502  0.36334843  0.51005212  1
  H+  H23  1  0.35671237  0.96656286  0.82784674  1
  H+  H24  1  0.78152933  0.22835036  0.12738601  1
  H+  H25  1  0.39368368  1.03386182  0.33416344  1
  H+  H26  1  0.76187806  0.37763042  0.34265870  1
  H+  H27  1  0.40651483  0.30498235  0.60340655  1
  H+  H28  1  0.58572273  0.13449593  0.68461715  1
  H+  H29  1  0.81633511  0.17306832  0.05774457  1
  H+  H30  1  0.28291741  0.90427187  0.50215576  1
  H+  H31  1  0.52546551  0.14162263  0.50098769  1
  H+  H32  1  0.37059160  0.98848853  0.01183973  1
  H+  H33  1  0.88539426  0.50079492  0.66229408  1
  H+  H34  1  0.37296452  0.38264222  0.51263131  1
  H+  H35  1  0.38336696  0.35808271  0.83894926  1
  H+  H36  1  0.49676532  0.10044126  0.84855527  1
  H+  H37  1  0.87044974  0.26550763  0.98973319  1
  H+  H38  1  0.11752090  0.39321044  0.33345781  1
  H+  H39  1  0.35948521  0.23233800  0.33468217  1
  H+  H40  1  0.26936858  0.37070616  0.67360732  1
  H+  H41  1  0.28147781  0.88796745  0.34757188  1
  H+  H42  1  0.10936408  0.63224694  0.33663247  1
  H+  H43  1  0.87606722  0.61190986  0.83106489  1
  H+  H44  1  0.60806864  0.40216789  0.82643473  1
  H+  H45  1  0.23817004  0.09888829  0.64481470  1
  H+  H46  1  0.96572398  0.35119084  0.98301721  1
  H+  H47  1  0.61019132  0.38644167  0.49815231  1
  H+  H48  1  0.87785014  0.86079513  0.16712355  1
  H+  H49  1  0.60748264  -0.02328795  1.00445817  1
  H+  H50  1  0.11332966  0.98245291  0.66795076  1
  H+  H51  1  0.59889714  0.95984070  0.82722314  1
  H+  H52  1  0.11264324  0.62801521  0.16663697  1
  H+  H53  1  0.72656496  0.11593966  0.49917627  1
  H+  H54  1  0.01676789  0.63522219  0.83166887  1
  H+  H55  1  0.03913892  0.73982152  0.03823740  1
  H+  H56  1  0.37077128  0.24532348  1.00626814  1
  H+  H57  1  0.97789234  0.12495575  0.83540908  1
  H+  H58  1  0.33570874  0.17844976  0.42398579  1
  H+  H59  1  0.38729718  0.27315200  0.50447786  1
  H+  H60  1  0.34492173  0.14963527  0.77672666  1
  H+  H61  1  0.13919716  0.27306568  0.65928499  1
  H+  H62  1  0.11241109  0.64333841  0.67910146  1
  H+  H63  1  0.72933365  0.86178012  0.50877631  1
  H+  H64  1  0.72585149  0.61659744  0.49975657  1
  H+  H65  1  0.87841271  0.98293478  0.34309848  1
  H+  H66  1  0.60941792  0.64454852  0.00284716  1
  H+  H67  1  0.12559269  0.15387727  0.32935986  1
  H+  H68  1  0.00976526  0.85251612  0.01503419  1
  H+  H69  1  0.61202511  0.98397481  0.34410322  1
  H+  H70  1  0.07117461  0.39258741  0.04908236  1
  H+  H71  1  0.86121028  0.25552217  0.83991840  1
  H+  H72  1  0.63505730  0.09832162  0.17604553  1
  H+  H73  1  0.84932433  0.46774898  0.34692950  1
  H+  H74  1  0.63395609  0.62058621  0.84222354  1
  H+  H75  1  0.21167715  0.60999279  0.65958822  1
  H+  H76  1  0.86558775  0.14028216  0.82875789  1
  H+  H77  1  0.69315153  0.84364129  0.68284704  1
  H+  H78  1  0.16548673  0.33007768  0.56686684  1
  H+  H79  1  0.63192966  0.77848339  0.99618533  1
  H+  H80  1  0.52382472  0.13988447  0.34451701  1
  H+  H81  1  0.17569401  0.74084971  0.45514404  1
  H+  H82  1  0.51549567  0.38460311  0.15284350  1
  H+  H83  1  1.01660231  0.38245885  0.14893307  1
  H+  H84  1  0.58556536  0.91619882  0.39912849  1
  H+  H85  1  0.70634732  0.11279600  0.67675237  1
  H+  H86  1  0.13789174  0.98474954  0.33398780  1
  H+  H87  1  0.40535886  0.58078813  0.22791570  1
  H+  H88  1  0.84961507  0.14016472  0.99836352  1
  H+  H89  1  0.89561699  0.67429491  0.16642806  1
  H+  H90  1  0.65463882  0.20127414  0.80936269  1
  H+  H91  1  0.11549392  0.23193069  0.48558379  1
  H+  H92  1  0.72200599  0.63326846  0.99463494  1
  H+  H93  1  0.86787692  0.22843929  0.49479642  1
  H+  H94  1  0.59025860  0.21835297  0.00249218  1
  H+  H95  1  0.27705118  0.63976740  0.34700520  1
  H+  H96  1  0.38132662  0.86806551  0.65732195  1
  H+  H97  1  0.22935089  0.37646323  0.31176692  1
  H+  H98  1  -0.01703502  0.11752961  0.49888186  1
  H+  H99  1  0.92225429  0.83573450  0.56114735  1
  H+  H100  1  0.61988735  1.02321315  0.67966798  1
  H+  H101  1  0.63142937  0.27091316  0.50982002  1
  H+  H102  1  0.17572806  0.79645765  0.99149596  1
  H+  H103  1  0.62346201  0.28735767  0.84537716  1
  H+  H104  1  0.85804475  0.38346818  0.00096844  1
  H+  H105  1  0.86829808  0.89887836  0.82834629  1
  H+  H106  1  0.38432832  0.36659405  0.16756851  1
  H+  H107  1  0.12745641  0.14164390  0.66853894  1
  H+  H108  1  0.13673915  0.33308487  0.98828211  1
  H+  H109  1  0.23047910  0.12553547  0.49635845  1
  H+  H110  1  0.35014915  0.14814306  0.00396062  1
  H+  H111  1  0.13255345  0.35901733  0.15884058  1
  H+  H112  1  0.36191402  0.63653122  0.15481127  1
  H+  H113  1  0.03793047  0.14229460  0.66718162  1
  H+  H114  1  0.26829251  0.38409575  0.15253840  1
  H+  H115  1  0.63219243  0.27072583  0.33873763  1
  H+  H116  1  0.91826910  0.08348992  0.23632708  1
  H+  H117  1  0.47913330  0.86308990  0.32709809  1
  H+  H118  1  0.37943576  0.85796391  0.17507220  1
  H+  H119  1  0.38528513  0.77695598  0.50704498  1
  H+  H120  1  0.89417365  1.02791207  0.50527710  1
  H+  H121  1  0.23401309  0.35147879  0.98826482  1
  H+  H122  1  0.85143035  0.51567270  0.98364248  1
  H+  H123  1  0.35650448  0.99759061  0.67885668  1
  H+  H124  1  0.97604004  0.87350191  0.17459241  1
  H+  H125  1  0.28779336  0.90144005  0.00834317  1
  H+  H126  1  0.38953926  0.86924461  0.50726049  1
  H+  H127  1  0.76781876  0.88990477  -0.00714124  1
  H+  H128  1  0.23037362  0.36174560  0.51104530  1
  H+  H129  1  0.50763230  0.86178287  0.15395627  1
  H+  H130  1  0.13239831  0.60825830  0.83994999  1
  H+  H131  1  0.62702481  0.08800528  0.83763907  1
  H+  H132  1  0.11434810  0.38104661  0.49365169  1
  H+  H133  1  0.52339154  0.62036224  0.67716806  1
  H+  H134  1  0.87338819  1.03479747  -0.01366408  1
  H+  H135  1  0.85881262  0.63738321  0.48991427  1
  H+  H136  1  0.98796095  0.58462741  0.48703705  1
  H+  H137  1  0.88048008  0.26845860  0.66191048  1
  H+  H138  1  0.98621666  0.11941824  0.32606849  1
  H+  H139  1  -0.01640439  0.86839636  0.65679935  1
  H+  H140  1  0.86644360  0.73047475  0.48937234  1
  H+  H141  1  0.82711326  0.34647815  0.15403719  1
  H+  H142  1  0.36671818  0.31229678  0.66621108  1
  H+  H143  1  0.52595694  0.88522810  0.49368385  1
  H+  H144  1  0.27442165  0.89118681  0.16357776  1
  H+  H145  1  0.10310356  0.47079164  0.13630811  1
  H+  H146  1  0.45604874  0.85760470  0.82170219  1
  H+  H147  1  0.61378557  0.13763510  0.49620832  1
  H+  H148  1  0.34440998  0.95574204  0.61526626  1
  H+  H149  1  0.88519768  0.89722959  0.66483375  1
  H+  H150  1  0.65467653  0.90428314  0.31871742  1
  H+  H151  1  0.36627748  0.47464603  0.00037421  1
  H+  H152  1  0.88855189  0.87028844  0.98943105  1
  H+  H153  1  0.64732274  0.53020170  0.65866122  1
  H+  H154  1  0.85279845  0.37307749  0.67887719  1
  H+  H155  1  0.46017119  0.60280367  0.32102871  1
  H+  H156  1  0.52294393  0.12839609  0.14053182  1
  H+  H157  1  0.61675531  0.51401166  0.32517439  1
  H+  H158  1  0.47681758  0.61400465  -0.00943353  1
  H+  H159  1  0.47851556  0.36085200  0.51304165  1
  H+  H160  1  0.11692957  0.47057744  0.49681873  1
  H+  H161  1  0.57537205  0.66197169  0.43345695  1
  H+  H162  1  0.88924416  0.27608647  0.17094391  1
  H+  H163  1  0.60254322  0.62709923  0.15648797  1
  H+  H164  1  0.36207950  0.47151086  0.82436789  1
  H+  H165  1  0.14405172  0.78091119  0.18067755  1
  H+  H166  1  0.86964567  0.74857781  0.15870734  1
  H+  H167  1  0.71548755  0.35277759  0.66331632  1
  H+  H168  1  0.38654236  0.03732578  0.51452425  1
  H+  H169  1  0.38788523  0.11971168  0.14540973  1
  H+  H170  1  0.86213593  0.64237639  0.67286695  1
  H+  H171  1  0.39018596  0.77763751  0.98985287  1
  H+  H172  1  0.13491307  0.36069293  0.66031987  1
  H+  H173  1  0.26406267  0.62633382  0.81847954  1
  H+  H174  1  0.14045444  0.12461852  0.49728145  1
  H+  H175  1  0.59550432  0.87382677  0.67086105  1
  H+  H176  1  0.50985273  0.87960722  0.67272226  1
  H+  H177  1  0.23879183  0.61235902  0.16838331  1
  H+  H178  1  0.72056123  0.35902206  0.51015463  1
  H+  H179  1  0.13885976  0.74835240  0.44823305  1
  H+  H180  1  0.47808152  0.61549635  0.51107495  1
  H+  H181  1  0.58084433  0.15881246  1.05829300  1
  H+  H182  1  0.37587740  0.37159857  0.31772470  1
  H+  H183  1  0.44973272  0.13266270  0.69265303  1
  H+  H184  1  0.06799981  0.67767450  0.00699201  1
  H+  H185  1  0.63189537  0.53125390  0.84087766  1
  H+  H186  1  1.11495646  0.22863971  0.82275602  1
  H+  H187  1  0.90876306  0.04020707  0.65697371  1
  H+  H188  1  0.63544404  0.61375225  0.50285848  1
  H+  H189  1  0.88687077  1.03554448  0.17323233  1
  H+  H190  1  0.39183631  0.12125039  0.33113406  1
  H+  H191  1  0.02891447  0.14417537  0.16800926  1
  H+  H192  1  0.60228744  0.71629275  0.16118482  1
  H+  H193  1  0.71857713  0.60373429  0.16929621  1
  H+  H194  1  0.89415957  0.11406824  0.33105710  1
  H+  H195  1  0.89040039  1.03426431  0.83493002  1
  H+  H196  1  0.87646026  0.86429136  0.32696899  1
  H+  H197  1  0.39839537  0.10473313  0.56809573  1
  H+  H198  1  0.85889144  0.37998892  0.49703379  1
  H+  H199  1  0.11483608  0.38075111  0.82220866  1
  H+  H200  1  0.14674624  0.58296472  0.99148585  1
  H+  H201  1  1.00481955  0.66886365  0.18681345  1
  H+  H202  1  0.64312265  0.57021392  0.26434011  1
  H+  H203  1  0.78453636  0.90539673  0.33662264  1
  H+  H204  1  0.61409346  0.88339135  0.49399585  1
  H+  H205  1  0.62019676  0.75282506  0.66351318  1
  H+  H206  1  0.85889667  0.35228314  0.84229147  1
  H+  H207  1  0.38864864  0.59241571  0.66635674  1
  H+  H208  1  0.59454671  0.33738153  0.18310777  1
  H+  H209  1  0.24140084  0.59888436  0.98750850  1
  H+  H210  1  0.63108656  0.51403110  0.16338998  1
  H+  H211  1  0.35664512  0.22950397  0.16256202  1
  H+  H212  1  0.38850719  0.27081963  0.83861413  1
  H+  H213  1  0.08865298  0.41794295  0.39684913  1
  H+  H214  1  0.47118944  0.60758409  0.83753141  1
  H+  H215  1  0.88518388  0.51047718  0.16305233  1
  H+  H216  1  0.68831502  0.36444208  0.00379311  1
  H+  H217  1  0.86315974  0.50906727  0.50584024  1
  H+  H218  1  0.76614215  0.63830678  0.82647148  1
  H+  H219  1  0.35602212  0.72652436  0.65612013  1
  H+  H220  1  0.61871461  0.84702512  0.16214418  1
  H+  H221  1  0.36958382  0.63507665  0.00025982  1
  H+  H222  1  0.13638652  0.27195549  0.17028440  1
  H+  H223  1  0.86662606  0.88822856  0.49456631  1
  H+  H224  1  0.13727968  0.11990390  0.83425916  1
  H+  H225  1  0.77303585  0.64153049  0.66709230  1
  H+  H226  1  0.84827531  0.64323831  0.00690803  1
  H+  H227  1  0.10220291  0.46784967  0.67430668  1
  H+  H228  1  0.14461244  0.20471826  -0.01281958  1
  H+  H229  1  0.60202332  0.38183174  0.34558845  1
  H+  H230  1  0.74235531  0.84964067  0.14913879  1
  H+  H231  1  0.40586938  0.37373457  -0.00973419  1
  H+  H232  1  0.76946672  0.12821978  0.82924917  1
  H+  H233  1  0.61837532  0.63271787  0.67467498  1
  H+  H234  1  0.64018772  0.11916596  0.33556346  1
  H+  H235  1  0.11869803  0.24112616  0.32714641  1
  H+  H236  1  0.22202627  0.11080896  0.18288355  1
  H+  H237  1  0.88192819  0.77632084  0.84176078  1
  H+  H238  1  0.02546285  0.64385471  0.68138372  1
  H+  H239  1  0.32899017  0.64838551  0.61302346  1
  H+  H240  1  0.76164409  0.14213749  0.15740486  1
  H+  H241  1  0.89188694  0.77937397  0.65732167  1
  H+  H242  1  0.61118296  0.72476936  0.49190437  1
  H+  H243  1  0.10791490  0.88829401  0.17170121  1
  H+  H244  1  0.73021565  0.96017074  0.27401639  1
  H+  H245  1  0.93541606  0.60492043  0.99505238  1
  H+  H246  1  0.36781139  0.51171421  0.31564330  1
  H+  H247  1  0.36157231  0.63241707  0.34106659  1
  H+  H248  1  0.98008496  0.36835384  0.32741549  1
  H+  H249  1  0.59853627  0.72127243  0.83397317  1
  H+  H250  1  0.14937824  0.80369506  0.51677604  1
  H+  H251  1  0.00631100  0.52010622  0.45127986  1
  H+  H252  1  0.72942518  0.11749685  0.33464837  1
  H+  H253  1  0.98064122  0.60475379  0.32191812  1
  H+  H254  1  0.07908624  0.40737392  0.73345626  1
  H+  H255  1  0.11488032  0.99039949  0.48998095  1
  H+  H256  1  0.61112807  0.47640011  0.49680280  1
  H+  H257  1  0.51705510  0.39512372  0.82379474  1
  H+  H258  1  0.14240247  0.77637913  0.33085604  1
  H+  H259  1  0.35595745  0.47414314  0.15433784  1
  H+  H260  1  0.34131100  0.92823828  0.44160446  1
  H+  H261  1  0.37053756  0.88957738  0.34778913  1
  H+  H262  1  0.51960613  0.88556270  1.00112743  1
  H+  H263  1  0.86804426  0.44802696  0.05317268  1
  H+  H264  1  0.11574721  0.14143998  0.17269747  1
  H+  H265  1  0.59771124  0.62158776  0.33588993  1
  H+  H266  1  0.38088291  0.60554604  0.83598383  1
  H+  H267  1  0.25512839  0.87670516  0.82882436  1
  H+  H268  1  0.39180248  0.52458541  0.51559364  1
  H+  H269  1  0.76064788  0.38886501  0.83423332  1
  H+  H270  1  0.13855984  0.76912434  0.84303314  1
  H+  H271  1  0.80864552  0.91353108  0.65161851  1
  H+  H272  1  0.14997739  0.08110347  0.36730325  1
  H+  H273  1  0.12579990  0.59139366  0.50344238  1
  H+  H274  1  0.88759291  0.36200335  0.32722369  1
  H+  H275  1  0.13821619  0.78098028  0.67075263  1
  H+  H276  1  0.63298811  0.86881700  -0.00492958  1
  H+  H277  1  0.86876447  0.64740592  0.33482774  1
  H+  H278  1  0.22708653  0.87270406  0.66533217  1
  H+  H279  1  0.11952419  0.90549340  0.49839383  1
  H+  H280  1  0.59922092  0.71141723  0.33700007  1
  H+  H281  1  0.61252937  0.20977617  0.15545463  1
  H+  H282  1  -0.01881093  0.86915173  0.50144039  1
  H+  H283  1  0.66575752  0.84085797  0.22392990  1
  H+  H284  1  0.86971315  0.14029562  0.49328131  1
  H+  H285  1  0.62632035  0.11346345  0.98515618  1
  H+  H286  1  0.64618506  0.82345408  0.90297975  1
  H+  H287  1  0.26840889  0.14086291  0.33964502  1
  H+  H288  1  0.07738929  0.66214706  0.11235245  1
  H+  H289  1  0.36443817  0.44908393  0.67313985  1
  H+  H290  1  0.67106377  0.08530677  0.23861098  1
  H+  H291  1  0.57325553  0.66593362  0.06370816  1
  H+  H292  1  0.53646618  0.25094960  0.21776695  1
  H+  H293  1  0.67380139  0.59009971  0.59788818  1
  H+  H294  1  0.82151830  0.40546693  0.73724187  1
  H+  H295  1  0.66654345  0.59880247  0.93404836  1
  H+  H296  1  0.17428673  0.83990564  0.23970076  1
  H+  H297  1  0.38893974  1.03109357  0.14834786  1
  H+  H298  1  0.17433967  0.08746252  0.59138218  1
  H+  H299  1  0.06184678  0.64013520  0.39417578  1
  H+  H300  1  0.83472529  0.91785331  0.43670005  1
  H+  H301  1  0.57815788  0.18150134  0.76454873  1
  H+  H302  1  0.90479062  0.83348747  0.26221106  1
  H+  H303  1  0.59335165  0.22737073  0.67556323  1
  H+  H304  1  0.11163847  0.89380512  0.67720004  1
  H+  H305  1  0.96909789  0.53411352  0.62465452  1
  H+  H306  1  0.64660342  0.34552131  0.90507930  1
  H+  H307  1  0.86582577  0.74204116  0.00855818  1
  H+  H308  1  0.22439301  0.61144851  0.50923177  1
  H+  H309  1  0.33236303  0.40595451  0.76681054  1
  H+  H310  1  0.66659908  0.82755393  0.56673018  1
  H+  H311  1  0.86381112  0.13892315  0.67234933  1
  H+  H312  1  0.40951829  0.82552542  0.23330251  1
  H+  H313  1  0.53808064  0.36731173  -0.00467093  1
  H+  H314  1  0.32225848  0.64734411  0.75929713  1
  H+  H315  1  0.89316755  0.32098558  0.90518819  1
  H+  H316  1  0.06890046  0.92490240  0.76927496  1
  H+  H317  1  0.89926192  0.58174957  0.89219063  1
  H+  H318  1  0.33452247  0.66473576  0.43932718  1
  H+  H319  1  0.17057738  0.85190476  0.58016898  1
  H+  H320  1  0.41546006  0.34143112  0.22883460  1
  H+  H321  1  0.10312603  0.92695186  0.39360326  1
  H+  H322  1  0.93147299  0.09799555  0.59748162  1
  H+  H323  1  0.58249909  0.16820881  0.40514557  1
  H+  H324  1  0.91716324  0.83426159  0.93303902  1
  H+  H325  1  0.82664352  0.91916062  0.05060797  1
  H+  H326  1  0.36366720  0.63672311  0.49978236  1
  H+  H327  1  0.91712510  0.33360334  0.56937079  1
  H+  H328  1  0.27483359  0.13699563  0.82624955  1
  H+  H329  1  0.90169755  0.56995039  0.56366004  1
  H+  H330  1  0.35040832  0.87218666  0.81359849  1
  H+  H331  1  0.91689982  0.53402917  0.27353026  1
  H+  H332  1  0.46481793  0.36903067  0.32520904  1
  H+  H333  1  0.84637025  0.68396170  0.09549530  1
  H+  H334  1  0.56888725  0.90456121  0.76568291  1
  H+  H335  1  0.15090369  0.57977384  0.60313269  1
  H+  H336  1  0.06639670  0.87906325  0.07673219  1
  H+  H337  1  0.33448995  0.91513207  0.10394314  1
  H+  H338  1  0.33626411  0.41445597  0.05948511  1
  H+  H339  1  0.84401435  0.67832404  0.39654792  1
  H+  H340  1  0.58090052  0.39900839  0.09745863  1
  H+  H341  1  0.93915008  0.64539006  0.24243145  1
  H+  H342  1  0.33500161  0.66397397  0.05839626  1
  H+  H343  1  0.57208626  0.41376238  0.40301699  1
  H+  H344  1  0.63883130  1.02741856  0.49922931  1
  H+  H345  1  0.47284957  0.02286845  0.89239924  1
  H+  H346  1  0.35463561  0.41731171  0.45283563  1
  H+  H347  1  0.57964024  0.66377492  0.77243332  1
  H+  H348  1  0.65800501  0.32786540  0.60295921  1
  H+  H349  1  0.58953152  0.43408962  0.72937777  1
  H+  H350  1  0.39161375  0.07558477  0.92666273  1
  H+  H351  1  0.41584249  0.58022749  0.93084153  1
  H+  H352  1  0.17321751  0.83845695  0.89813150  1
  H+  H353  1  0.32136130  0.17485313  0.10245982  1
  H+  H354  1  0.08642011  0.16824440  0.76357876  1
  H+  H355  1  0.11227814  0.46789678  0.82074384  1
  H+  H356  1  0.82359763  0.40367554  0.43649225  1
  H+  H357  1  0.16520625  0.08057483  0.24360834  1
  H+  H358  1  0.17087800  0.57481979  0.89271563  1
  H+  H359  1  0.84171163  0.17031829  0.39982505  1
  H+  H360  1  0.37430416  0.19468993  0.64820691  1
  H+  H361  1  0.18398533  0.52501866  0.20400346  1
  H+  H362  1  0.82556394  0.66992947  0.76646542  1
  H+  H363  1  0.17016287  0.32366248  0.89508634  1
  H+  H364  1  0.64728946  0.32433827  0.27845302  1
  H+  H365  1  0.65970441  0.07130372  0.90102306  1
  H+  H366  1  0.42713404  0.33773491  0.93000950  1
  H+  H367  1  0.85191714  0.93207631  0.76583054  1
  H+  H368  1  0.17325015  0.59139892  0.27324574  1
  H+  H369  1  0.08055160  0.66749773  0.77515135  1
  H+  H370  1  0.71703042  0.11545618  0.98731284  1
  H+  H371  1  0.77362669  0.80538983  0.10222198  1
  H+  H372  1  0.36701215  0.76620991  0.81693358  1
  H+  H373  1  0.56962224  0.89661900  0.09465164  1
  H+  H374  1  0.42079928  0.57176076  0.60536955  1
  H+  H375  1  0.90544872  0.09676042  0.92945977  1
  H+  H376  1  0.16776876  0.09810582  0.89587568  1
  H+  H377  1  0.92430003  0.33553795  0.23076939  1
  H+  H378  1  0.83190971  0.16454919  0.73241388  1
  H+  H379  1  0.15965126  0.34226957  0.25692386  1
  H+  H380  1  0.08865296  0.17830410  0.42260530  1
  H+  H381  1  0.41182050  0.83767616  0.59881013  1
  H+  H382  1  0.30984979  0.42209943  0.37406256  1
  H+  H383  1  0.77685262  0.34246941  0.09406005  1
  O2-  O384  1  0.09045968  0.17516830  0.15614389  1
  O2-  O385  1  0.08552004  0.17262699  0.46818294  1
  O2-  O386  1  0.08163505  0.16712534  0.80875245  1
  O2-  O387  1  0.07319029  0.40940272  0.12607655  1
  O2-  O388  1  0.08381240  0.41176987  0.47920325  1
  O2-  O389  1  0.08350084  0.40853207  0.80477000  1
  O2-  O390  1  0.08972580  0.66605023  0.15629863  1
  O2-  O391  1  0.03426768  0.58021129  0.46392456  1
  O2-  O392  1  0.07901592  0.66395389  0.82049021  1
  O2-  O393  1  0.07599416  0.91532097  0.15364496  1
  O2-  O394  1  0.08598691  0.92826421  0.47773842  1
  O2-  O395  1  0.06482156  0.92168035  0.81406334  1
  O2-  O396  1  0.32338053  0.16912618  0.14743351  1
  O2-  O397  1  0.33368948  0.17824153  0.47079811  1
  O2-  O398  1  0.33790719  0.16529944  0.81807298  1
  O2-  O399  1  0.32958226  0.41444593  0.13793235  1
  O2-  O400  1  0.34482927  0.41648106  0.49649761  1
  O2-  O401  1  0.33209645  0.40950778  0.81225774  1
  O2-  O402  1  0.32922125  0.66489538  0.13910888  1
  O2-  O403  1  0.33193321  0.66580794  0.48512680  1
  O2-  O404  1  0.32533612  0.65645838  0.80316989  1
  O2-  O405  1  0.33478795  0.91572076  0.14927137  1
  O2-  O406  1  0.34333796  0.93136350  0.48759335  1
  O2-  O407  1  0.31865743  0.91067219  0.80756849  1
  O2-  O408  1  0.58727762  0.15305654  0.13580615  1
  O2-  O409  1  0.58415308  0.17090508  0.48359139  1
  O2-  O410  1  0.59422011  0.18565021  0.81021382  1
  O2-  O411  1  0.57793348  0.40906429  0.14137405  1
  O2-  O412  1  0.57802372  0.41512143  0.48336102  1
  O2-  O413  1  0.57814406  0.43135432  0.80961150  1
  O2-  O414  1  0.57118313  0.65706112  0.14342117  1
  O2-  O415  1  0.57767749  0.66328537  0.47901602  1
  O2-  O416  1  0.57279977  0.65953948  0.81726725  1
  O2-  O417  1  0.56648383  0.88158936  0.13858219  1
  O2-  O418  1  0.58497805  0.91333484  0.47651766  1
  O2-  O419  1  0.56084336  0.90115555  0.81087978  1
  O2-  O420  1  0.80713928  0.19045659  0.13149004  1
  O2-  O421  1  0.83935857  0.16975818  0.47677065  1
  O2-  O422  1  0.82953958  0.16780215  0.81529207  1
  O2-  O423  1  0.76956663  0.31917141  0.13523115  1
  O2-  O424  1  0.82649515  0.40846725  0.48195890  1
  O2-  O425  1  0.82018234  0.41050254  0.81811501  1
  O2-  O426  1  0.84853693  0.68641319  0.14390662  1
  O2-  O427  1  0.83339664  0.67077018  0.47235453  1
  O2-  O428  1  0.82745654  0.66670878  0.81148657  1
  O2-  O429  1  0.79624889  0.85795322  0.12626551  1
  O2-  O430  1  0.83453207  0.91822052  0.48198830  1
  O2-  O431  1  0.84832117  0.93645306  0.81008264  1
  O2-  O432  1  0.16181750  0.07700944  0.19854708  1
  O2-  O433  1  0.17052465  0.09451093  0.51348059  1
  O2-  O434  1  0.16808847  0.09070717  0.85098823  1
  O2-  O435  1  0.16639088  0.33696140  0.17954798  1
  O2-  O436  1  0.16818620  0.33189950  0.52106872  1
  O2-  O437  1  0.16739842  0.32860920  0.84989035  1
  O2-  O438  1  0.17938919  0.57345997  0.18834007  1
  O2-  O439  1  0.16469606  0.57657455  0.52586796  1
  O2-  O440  1  0.16619301  0.57886910  0.84787273  1
  O2-  O441  1  0.16936778  0.84116988  0.19396315  1
  O2-  O442  1  0.17835930  0.86112691  0.53468851  1
  O2-  O443  1  0.17449052  0.83143291  0.85354126  1
  O2-  O444  1  0.42254734  0.09209830  0.13609529  1
  O2-  O445  1  0.41444966  0.09933939  0.52589506  1
  O2-  O446  1  0.44782481  0.05138406  0.86927993  1
  O2-  O447  1  0.41705916  0.33882503  0.18303877  1
  O2-  O448  1  0.41735831  0.32899749  0.52792764  1
  O2-  O449  1  0.41804271  0.33190097  0.85352687  1
  O2-  O450  1  0.40524748  0.58045794  0.18195190  1
  O2-  O451  1  0.41867868  0.58569636  0.52929032  1
  O2-  O452  1  0.40965603  0.57486621  0.85232447  1
  O2-  O453  1  0.40512804  0.82204922  0.18801831  1
  O2-  O454  1  0.41763118  0.83694090  0.52300607  1
  O2-  O455  1  0.39178042  0.82849570  0.82572910  1
  O2-  O456  1  0.67365618  0.07953701  0.19404349  1
  O2-  O457  1  0.66591162  0.08792196  0.51265444  1
  O2-  O458  1  0.66245234  0.06589638  0.85448321  1
  O2-  O459  1  0.59640010  0.29222591  0.20874155  1
  O2-  O460  1  0.66044352  0.33196538  0.52540649  1
  O2-  O461  1  0.65692206  0.34734649  0.86052284  1
  O2-  O462  1  0.65748209  0.57420397  0.17979272  1
  O2-  O463  1  0.66723415  0.58499707  0.51798891  1
  O2-  O464  1  0.66687282  0.59180835  0.85603320  1
  O2-  O465  1  0.65574566  0.82204390  0.18092972  1
  O2-  O466  1  0.66758788  0.82949368  0.52177407  1
  O2-  O467  1  0.63598058  0.81260153  0.85848166  1
  O2-  O468  1  0.92090290  0.09207330  0.19150682  1
  O2-  O469  1  0.92501457  0.08914120  0.51871295  1
  O2-  O470  1  0.91660126  0.09622254  0.84923309  1
  O2-  O471  1  0.92480265  0.33691777  0.18541723  1
  O2-  O472  1  0.91762555  0.33536825  0.52378007  1
  O2-  O473  1  0.88644404  0.31802571  0.85781031  1
  O2-  O474  1  0.95902846  0.67881068  0.20401361  1
  O2-  O475  1  0.89728523  0.57124920  0.51871880  1
  O2-  O476  1  0.90546451  0.58033463  0.84737031  1
  O2-  O477  1  0.91317099  0.83905938  0.18790494  1
  O2-  O478  1  0.91989626  0.83524816  0.51565477  1
  O2-  O479  1  0.91074477  0.83489630  0.85964922  1
  O2-  O480  1  0.17445619  0.09428112  0.32653943  1
  O2-  O481  1  0.17796101  0.08358572  0.63669164  1
  O2-  O482  1  0.17563826  0.11534617  0.97359603  1
  O2-  O483  1  0.16318361  0.34507039  0.30241342  1
  O2-  O484  1  0.16777559  0.33374184  0.64359819  1
  O2-  O485  1  0.17470093  0.31246663  0.97213611  1
  O2-  O486  1  0.16843142  0.58902821  0.31801451  1
  O2-  O487  1  0.14981917  0.58181427  0.64869182  1
  O2-  O488  1  0.18003421  0.56108814  0.97115748  1
  O2-  O489  1  0.17904132  0.83542656  0.31568520  1
  O2-  O490  1  0.16492290  0.84090848  0.65459869  1
  O2-  O491  1  0.18514560  0.85190034  0.97735213  1
  O2-  O492  1  0.42625340  0.09378928  0.31967458  1
  O2-  O493  1  0.38504595  0.10308930  0.69726023  1
  O2-  O494  1  0.35312913  0.06686405  0.96156211  1
  O2-  O495  1  0.40741143  0.33987136  0.30547476  1
  O2-  O496  1  0.39461007  0.28331125  0.64613073  1
  O2-  O497  1  0.43488861  0.34183492  0.97547925  1
  O2-  O498  1  0.40137824  0.57912174  0.30444350  1
  O2-  O499  1  0.41918095  0.56378119  0.65078211  1
  O2-  O500  1  0.41521445  0.58058691  0.97636161  1
  O2-  O501  1  0.41775257  0.83237388  0.31381681  1
  O2-  O502  1  0.40644688  0.83239412  0.64457896  1
  O2-  O503  1  0.42275628  0.83853902  0.97719767  1
  O2-  O504  1  0.66823744  0.08609871  0.32111511  1
  O2-  O505  1  0.64367624  0.08603619  0.68181366  1
  O2-  O506  1  0.65665571  0.08165126  0.97122394  1
  O2-  O507  1  0.66139012  0.33196026  0.32281857  1
  O2-  O508  1  0.65520677  0.32581377  0.64860881  1
  O2-  O509  1  0.63027323  0.33695798  0.98589356  1
  O2-  O510  1  0.64134363  0.57358492  0.30906656  1
  O2-  O511  1  0.67737085  0.59283340  0.64325040  1
  O2-  O512  1  0.66293339  0.60174818  0.97928106  1
  O2-  O513  1  0.70236296  0.90386708  0.29370576  1
  O2-  O514  1  0.64997680  0.81620647  0.65106266  1
  O2-  O515  1  0.66394319  0.83843161  0.97990553  1
  O2-  O516  1  0.92316196  0.08211173  0.31639029  1
  O2-  O517  1  0.93395507  0.10084917  0.64300924  1
  O2-  O518  1  0.89697215  0.09557308  0.97420371  1
  O2-  O519  1  0.92024930  0.33513505  0.31105793  1
  O2-  O520  1  0.90977024  0.33023926  0.64837843  1
  O2-  O521  1  0.90341324  0.32783928  0.97246044  1
  O2-  O522  1  0.91944873  0.57492158  0.30402880  1
  O2-  O523  1  0.93046704  0.55361796  0.63960854  1
  O2-  O524  1  0.88077344  0.57732415  0.97208069  1
  O2-  O525  1  0.90314623  0.83032120  0.30820930  1
  O2-  O526  1  0.92306112  0.83849106  0.63972949  1
  O2-  O527  1  0.91663353  0.83550739  0.97943324  1
  O2-  O528  1  0.12063287  0.14393794  0.00145605  1
  O2-  O529  1  0.09066398  0.18090765  0.34371915  1
  O2-  O530  1  0.09766732  0.17176398  0.68418659  1
  O2-  O531  1  0.07105368  0.38656814  0.00380251  1
  O2-  O532  1  0.08760072  0.42377242  0.35186085  1
  O2-  O533  1  0.07526585  0.40690560  0.68674029  1
  O2-  O534  1  0.03220269  0.68065469  0.03923362  1
  O2-  O535  1  0.07187150  0.65616393  0.35040859  1
  O2-  O536  1  0.08524522  0.67604913  0.69632396  1
  O2-  O537  1  0.05539214  0.84691332  0.03750939  1
  O2-  O538  1  0.10935732  0.92374634  0.34913361  1
  O2-  O539  1  0.07889539  0.92383820  0.68604408  1
  O2-  O540  1  0.33097206  0.18607582  0.02267022  1
  O2-  O541  1  0.33392165  0.17377344  0.35259924  1
  O2-  O542  1  0.35623191  0.12846169  0.64171714  1
  O2-  O543  1  0.33903263  0.41332953  0.01396562  1
  O2-  O544  1  0.32231865  0.42172981  0.33117187  1
  O2-  O545  1  0.32857168  0.39027311  0.68948245  1
  O2-  O546  1  0.33454537  0.66243251  0.01305079  1
  O2-  O547  1  0.33728700  0.66644004  0.36153922  1
  O2-  O548  1  0.32743966  0.66162521  0.65596718  1
  O2-  O549  1  0.34673632  0.92839693  0.02533031  1
  O2-  O550  1  0.34070580  0.91900449  0.36519472  1
  O2-  O551  1  0.33840147  0.94101385  0.65837611  1
  O2-  O552  1  0.57480312  0.15929520  0.01292255  1
  O2-  O553  1  0.58573907  0.16990613  0.35971663  1
  O2-  O554  1  0.55781881  0.16950325  0.69573258  1
  O2-  O555  1  0.59648238  0.38837868  0.01457833  1
  O2-  O556  1  0.57077607  0.41238184  0.35767886  1
  O2-  O557  1  0.59752437  0.43821920  0.68452092  1
  O2-  O558  1  0.57557226  0.67230596  0.01861344  1
  O2-  O559  1  0.56907621  0.65406459  0.35460167  1
  O2-  O560  1  0.58388039  0.65863339  0.69079928  1
  O2-  O561  1  0.58021016  0.91607888  0.01842886  1
  O2-  O562  1  0.58518583  0.92075980  0.35364481  1
  O2-  O563  1  0.57000313  0.90699265  0.68823689  1
  O2-  O564  1  0.81904562  0.17331742  0.01190750  1
  O2-  O565  1  0.83965806  0.16670010  0.35416752  1
  O2-  O566  1  0.82991810  0.16535717  0.68727725  1
  O2-  O567  1  0.82996402  0.41465455  0.01989213  1
  O2-  O568  1  0.82332766  0.40688041  0.35862589  1
  O2-  O569  1  0.82303422  0.40544413  0.69194153  1
  O2-  O570  1  0.83523118  0.68335156  0.02986125  1
  O2-  O571  1  0.84797842  0.68450456  0.35089353  1
  O2-  O572  1  0.83390310  0.67438888  0.68491945  1
  O2-  O573  1  0.83033642  0.92172156  0.00591066  1
  O2-  O574  1  0.84112663  0.92035244  0.35532876  1
  O2-  O575  1  0.85824398  0.93275844  0.67815878  1
