# generated using pymatgen
data_H2O
_symmetry_space_group_name_H-M   'P 1'
_cell_length_a   17.99603762
_cell_length_b   17.99052740
_cell_length_c   22.01629853
_cell_angle_alpha   90.00729583
_cell_angle_beta   89.98495208
_cell_angle_gamma   120.00034154
_symmetry_Int_Tables_number   1
_chemical_formula_structural   H2O
_chemical_formula_sum   'H384 O192'
_cell_volume   6172.97068962
_cell_formula_units_Z   192
loop_
 _symmetry_equiv_pos_site_id
 _symmetry_equiv_pos_as_xyz
  1  'x, y, z'
loop_
 _atom_type_symbol
 _atom_type_oxidation_number
  H+  1.0
  O2-  -2.0
loop_
 _atom_site_type_symbol
 _atom_site_label
 _atom_site_symmetry_multiplicity
 _atom_site_fract_x
 _atom_site_fract_y
 _atom_site_fract_z
 _atom_site_occupancy
  H+  H0  1  0.08046343  -0.06227860  0.69296545  1
  H+  H1  1  0.10614803  0.70370859  -0.01034761  1
  H+  H2  1  0.65660271  0.52922301  0.66849627  1
  H+  H3  1  0.88673374  0.77104696  0.50728955  1
  H+  H4  1  0.56402751  0.65949137  0.53973978  1
  H+  H5  1  0.37382818  0.61019520  0.49918381  1
  H+  H6  1  0.34250383  0.96616342  0.00204859  1
  H+  H7  1  -0.03397645  0.35506977  0.85482063  1
  H+  H8  1  0.11418262  0.88971725  0.33667644  1
  H+  H9  1  0.35250042  -0.02215239  0.68140220  1
  H+  H10  1  0.01957244  0.13246061  0.82709549  1
  H+  H11  1  0.79701807  0.13948862  1.01127877  1
  H+  H12  1  0.71888681  0.84466820  1.01013455  1
  H+  H13  1  0.61308757  0.83443955  0.66735037  1
  H+  H14  1  0.66232874  0.56980927  0.92666728  1
  H+  H15  1  0.11803880  0.48890656  0.48455925  1
  H+  H16  1  0.40262455  0.11164611  0.33167439  1
  H+  H17  1  0.88147657  0.77018188  0.32972016  1
  H+  H18  1  0.12948324  0.01426638  0.83651202  1
  H+  H19  1  0.16743099  0.15892266  1.00872700  1
  H+  H20  1  0.61294125  0.97060833  0.47936452  1
  H+  H21  1  0.38520831  0.75614407  0.84093047  1
  H+  H22  1  0.72841742  0.61447265  0.18688837  1
  H+  H23  1  0.36788519  0.64156750  0.33649616  1
  H+  H24  1  0.17001152  0.07447887  1.00325584  1
  H+  H25  1  0.22480614  0.86980848  0.17382912  1
  H+  H26  1  0.86063675  -0.02638275  0.15587924  1
  H+  H27  1  0.36084250  0.16735672  0.40550051  1
  H+  H28  1  0.36533442  0.11051353  0.99403682  1
  H+  H29  1  0.13205779  0.27515479  0.17747539  1
  H+  H30  1  0.10964158  0.64147264  0.16511594  1
  H+  H31  1  1.02008746  0.38668172  0.15869634  1
  H+  H32  1  0.29318438  0.17282743  0.01462461  1
  H+  H33  1  0.26774952  0.63177211  0.14818878  1
  H+  H34  1  0.13029196  0.36710075  0.48508495  1
  H+  H35  1  0.30879277  0.16418273  0.15920160  1
  H+  H36  1  0.52541561  0.13835172  0.33707965  1
  H+  H37  1  0.63654194  0.86608175  0.84211757  1
  H+  H38  1  0.59062209  0.84828121  0.02353837  1
  H+  H39  1  0.07397991  0.15530025  0.38191450  1
  H+  H40  1  0.47028634  0.43319811  0.96805879  1
  H+  H41  1  0.38628700  0.52484851  0.16547483  1
  H+  H42  1  0.56563291  0.41984499  0.64062529  1
  H+  H43  1  0.61386657  0.75215068  0.14605054  1
  H+  H44  1  0.22782143  0.86336478  0.32915416  1
  H+  H45  1  0.34034982  0.91418300  0.43681003  1
  H+  H46  1  0.71371815  0.59668933  -0.01015647  1
  H+  H47  1  0.08129002  0.41670211  0.10019012  1
  H+  H48  1  0.02865155  0.88368636  0.50330459  1
  H+  H49  1  0.77201787  0.38510864  0.82932201  1
  H+  H50  1  0.73021179  0.86675901  0.17703972  1
  H+  H51  1  0.45944815  0.56203111  0.28897812  1
  H+  H52  1  0.70825017  0.85059726  0.67096216  1
  H+  H53  1  0.96736476  0.86014334  0.15843052  1
  H+  H54  1  0.35958122  0.10582220  0.66363006  1
  H+  H55  1  0.38982683  0.87009664  0.18045646  1
  H+  H56  1  0.63926748  0.27061997  0.83609751  1
  H+  H57  1  0.88057452  0.76817514  0.15319848  1
  H+  H58  1  0.86334824  0.87961852  0.34283445  1
  H+  H59  1  0.29541483  0.66252362  0.67060900  1
  H+  H60  1  0.26678307  0.37277398  0.51062628  1
  H+  H61  1  0.87781884  0.23351630  0.33212692  1
  H+  H62  1  0.62954129  0.01356458  0.82987356  1
  H+  H63  1  0.22246307  0.11377047  0.84320334  1
  H+  H64  1  0.11459919  0.48172226  0.33331647  1
  H+  H65  1  0.37778783  0.36920949  0.19074332  1
  H+  H66  1  0.77479210  0.88849460  0.82971463  1
  H+  H67  1  -0.02596141  0.09796055  0.31588684  1
  H+  H68  1  0.63593182  0.77215242  0.04631859  1
  H+  H69  1  0.60951874  0.70674926  0.67250688  1
  H+  H70  1  0.88395259  0.10998374  0.17332490  1
  H+  H71  1  0.12702632  0.11121558  0.83769563  1
  H+  H72  1  0.26451727  0.39569150  0.68767227  1
  H+  H73  1  0.43942063  0.33534096  0.67476691  1
  H+  H74  1  0.64946813  0.13444833  0.33556802  1
  H+  H75  1  0.24343749  0.86881515  0.51496568  1
  H+  H76  1  0.77273543  0.13399231  0.17302596  1
  H+  H77  1  0.85101178  0.61208942  1.00870885  1
  H+  H78  1  0.42977182  0.79725771  0.67169172  1
  H+  H79  1  0.37672142  0.65064849  0.67045402  1
  H+  H80  1  0.22194757  0.85191107  -0.01284295  1
  H+  H81  1  0.64253742  0.27416971  -0.01124973  1
  H+  H82  1  0.13960473  0.94497407  0.02399278  1
  H+  H83  1  0.52883831  0.88276473  0.49987478  1
  H+  H84  1  0.62251491  0.46963068  -0.00037748  1
  H+  H85  1  0.13765115  0.87406593  0.17958793  1
  H+  H86  1  0.65242845  0.04001686  0.99345308  1
  H+  H87  1  0.86789091  0.65334987  0.67582973  1
  H+  H88  1  0.45648670  0.84894718  0.99194469  1
  H+  H89  1  0.36151129  0.97692327  0.15826270  1
  H+  H90  1  0.77751007  0.38488242  0.00704494  1
  H+  H91  1  0.66953652  0.58838563  0.27126518  1
  H+  H92  1  0.88618735  0.11612704  0.65980648  1
  H+  H93  1  0.89036411  0.02474155  0.83004720  1
  H+  H94  1  0.87480327  0.97711815  0.49311492  1
  H+  H95  1  0.61222509  0.13163144  0.82819824  1
  H+  H96  1  0.74191513  0.86745166  0.49930518  1
  H+  H97  1  0.64058874  0.52707270  0.18452501  1
  H+  H98  1  0.61055576  0.37675000  0.82311257  1
  H+  H99  1  0.11067227  0.62541021  0.83258151  1
  H+  H100  1  0.89947261  0.03020430  1.00346641  1
  H+  H101  1  0.62422171  0.39231810  0.15975278  1
  H+  H102  1  0.89092977  0.11405221  0.82717349  1
  H+  H103  1  0.56300690  0.90073088  0.76525005  1
  H+  H104  1  0.88195466  0.26992765  0.17643250  1
  H+  H105  1  0.66896877  0.33137032  0.89497601  1
  H+  H106  1  0.72998971  0.85779060  0.33325203  1
  H+  H107  1  0.14174725  0.61567527  0.32485553  1
  H+  H108  1  0.37350262  0.97866276  0.49369404  1
  H+  H109  1  0.57742251  0.60174758  0.82529397  1
  H+  H110  1  0.65070702  0.86525141  0.50279661  1
  H+  H111  1  0.57725745  0.17997876  0.42640680  1
  H+  H112  1  0.77010789  0.13182890  0.81949866  1
  H+  H113  1  0.40440377  0.29766442  0.19252397  1
  H+  H114  1  0.73038617  0.10225891  0.66128857  1
  H+  H115  1  0.61794356  0.11824421  0.67319121  1
  H+  H116  1  0.08048873  0.90719025  0.44060910  1
  H+  H117  1  0.40333872  0.12050960  0.17451505  1
  H+  H118  1  0.12039911  0.63365655  0.67569977  1
  H+  H119  1  0.51189897  0.87796187  0.82720507  1
  H+  H120  1  0.77008684  0.13217282  0.46934547  1
  H+  H121  1  0.53065185  0.66842756  0.12322256  1
  H+  H122  1  0.63515766  0.51039735  0.83138807  1
  H+  H123  1  0.88836686  0.36325881  1.00088905  1
  H+  H124  1  0.45752589  0.13843030  0.65969528  1
  H+  H125  1  0.64406416  0.37118095  0.31860095  1
  H+  H126  1  0.76406350  0.36927666  0.15871066  1
  H+  H127  1  0.13040129  0.27232801  0.32105692  1
  H+  H128  1  0.10383568  0.13450631  0.46931570  1
  H+  H129  1  0.87136210  0.76455527  0.65756846  1
  H+  H130  1  0.52245977  0.61782121  0.66312050  1
  H+  H131  1  0.35276602  0.38617163  0.00869613  1
  H+  H132  1  0.90621829  0.82516057  0.58989403  1
  H+  H133  1  0.11953504  0.73513914  0.49470286  1
  H+  H134  1  0.59054292  0.61719424  0.96786445  1
  H+  H135  1  0.61048514  0.23437800  0.33501754  1
  H+  H136  1  0.11118404  0.47012863  0.84213614  1
  H+  H137  1  0.22954967  0.62173377  0.49778248  1
  H+  H138  1  0.36669654  0.76351308  -0.01158904  1
  H+  H139  1  0.58389051  -0.05226364  0.66555484  1
  H+  H140  1  0.71511373  0.34719387  0.66864713  1
  H+  H141  1  0.09139718  0.85849426  0.66878162  1
  H+  H142  1  0.87900562  0.35804962  0.84633496  1
  H+  H143  1  0.97998432  0.69789099  0.62260010  1
  H+  H144  1  0.32156501  0.20093464  0.68588868  1
  H+  H145  1  0.48922148  0.15222705  0.84775033  1
  H+  H146  1  0.98071721  0.37540743  0.32475065  1
  H+  H147  1  0.01895574  0.13819135  0.16762429  1
  H+  H148  1  0.23717908  0.10762585  0.69119545  1
  H+  H149  1  0.10680206  0.09528078  0.68621974  1
  H+  H150  1  0.89359473  0.51975772  0.51260671  1
  H+  H151  1  0.37987562  0.51811009  0.33383260  1
  H+  H152  1  0.64834043  0.36469133  0.98896045  1
  H+  H153  1  0.84193425  0.69417209  0.02236754  1
  H+  H154  1  0.04957692  0.93650540  0.00772743  1
  H+  H155  1  0.63583238  0.74287484  0.50585345  1
  H+  H156  1  0.64228922  0.36906570  0.49601278  1
  H+  H157  1  0.87661963  0.23352875  1.01780116  1
  H+  H158  1  0.12250473  0.82724192  0.98203466  1
  H+  H159  1  0.90869477  0.12190210  1.01005422  1
  H+  H160  1  0.44581588  0.10132052  0.99077876  1
  H+  H161  1  0.64186570  0.76846899  0.33515908  1
  H+  H162  1  0.39631846  0.86699715  0.51336687  1
  H+  H163  1  0.10180127  0.61430986  -0.00699997  1
  H+  H164  1  0.85782610  0.88201048  0.14714434  1
  H+  H165  1  0.48063252  0.87479234  0.18693140  1
  H+  H166  1  0.36362521  0.39143099  0.83357344  1
  H+  H167  1  0.67099077  0.07610958  0.25436843  1
  H+  H168  1  0.36653903  0.97016446  0.34384591  1
  H+  H169  1  0.63041040  0.48399482  0.33349880  1
  H+  H170  1  0.13430718  0.52427236  0.17115549  1
  H+  H171  1  0.64983766  0.61776108  0.51371605  1
  H+  H172  1  0.35069861  0.39497853  0.69100812  1
  H+  H173  1  0.62364445  0.12332759  0.18732858  1
  H+  H174  1  0.88892067  0.86379920  0.50553034  1
  H+  H175  1  1.01639765  0.13844608  0.68015890  1
  H+  H176  1  0.47428220  0.35913388  0.83419769  1
  H+  H177  1  0.93998048  0.81818172  0.98502677  1
  H+  H178  1  0.53810106  0.38034504  0.00368496  1
  H+  H179  1  0.77991482  0.63556196  0.49890977  1
  H+  H180  1  0.36432623  0.15629678  0.83884922  1
  H+  H181  1  0.37970202  0.27493396  0.83962456  1
  H+  H182  1  0.88840488  0.61325167  0.84106061  1
  H+  H183  1  0.64042053  0.61399737  0.33534804  1
  H+  H184  1  0.37852756  0.52823869  0.65961636  1
  H+  H185  1  0.73957005  0.13236457  0.33431188  1
  H+  H186  1  0.84927224  0.47216945  0.67630846  1
  H+  H187  1  0.35013910  0.88004580  0.00221875  1
  H+  H188  1  0.22447443  0.60877636  0.98888898  1
  H+  H189  1  0.45631481  0.60039297  0.49389358  1
  H+  H190  1  -0.00586648  0.37084922  0.50032224  1
  H+  H191  1  0.38953455  0.36581480  0.51206143  1
  H+  H192  1  0.55642251  0.12162468  0.03554647  1
  H+  H193  1  -0.01842269  0.37345012  0.65969234  1
  H+  H194  1  0.97680447  0.61883012  0.17761766  1
  H+  H195  1  0.13132768  0.01980115  0.49041498  1
  H+  H196  1  -0.01759441  0.61627297  0.33155895  1
  H+  H197  1  0.77221040  0.64170899  0.67501545  1
  H+  H198  1  0.86409440  0.37552609  0.49970158  1
  H+  H199  1  0.12065286  0.38600556  0.65511127  1
  H+  H200  1  0.50838194  0.80275085  0.06248403  1
  H+  H201  1  0.88386478  0.10805369  0.50400158  1
  H+  H202  1  0.85269062  0.88838542  0.66931206  1
  H+  H203  1  0.97213024  0.85061551  0.65561948  1
  H+  H204  1  0.62878086  0.48441163  0.49220227  1
  H+  H205  1  0.86182499  0.37252583  0.15889235  1
  H+  H206  1  0.42430926  0.53420673  0.84299504  1
  H+  H207  1  0.62061856  0.88904104  0.17549757  1
  H+  H208  1  0.64372376  0.26421241  0.17652598  1
  H+  H209  1  0.25772043  0.40187563  0.34526740  1
  H+  H210  1  0.91672328  0.58485822  0.23597840  1
  H+  H211  1  0.02001119  0.62478359  0.83196658  1
  H+  H212  1  0.11208895  0.38340045  1.00935446  1
  H+  H213  1  0.27234401  0.13850823  0.48640257  1
  H+  H214  1  0.89222179  0.61696513  0.33264569  1
  H+  H215  1  0.15783336  0.53992634  0.64397168  1
  H+  H216  1  0.02377080  0.38574035  0.00765480  1
  H+  H217  1  0.88819789  0.36783910  0.32724265  1
  H+  H218  1  0.64176857  1.01742935  0.19234410  1
  H+  H219  1  0.10882617  0.72923272  0.16825253  1
  H+  H220  1  0.11644322  0.89352704  0.82437896  1
  H+  H221  1  0.99691943  0.63762503  0.66296675  1
  H+  H222  1  -0.02740537  0.60247430  -0.00817735  1
  H+  H223  1  0.72794503  0.36093411  0.31882264  1
  H+  H224  1  0.48968862  0.61208480  0.88387830  1
  H+  H225  1  0.86182605  0.96876129  0.34056115  1
  H+  H226  1  0.19908495  0.10195322  0.21943524  1
  H+  H227  1  0.47077551  0.85142278  0.33385732  1
  H+  H228  1  0.85567598  0.97777429  0.67210782  1
  H+  H229  1  0.35021541  0.46257168  0.52018596  1
  H+  H230  1  0.07718683  0.16903966  0.74132711  1
  H+  H231  1  0.14058338  0.62300939  0.49849868  1
  H+  H232  1  0.88854790  0.86926398  0.83598963  1
  H+  H233  1  0.62813853  0.25741496  0.66749497  1
  H+  H234  1  0.10144109  0.22273093  0.46967113  1
  H+  H235  1  0.13657009  0.35466921  0.85524548  1
  H+  H236  1  0.36732120  0.72994778  0.49287560  1
  H+  H237  1  0.35338307  0.99702635  0.82944411  1
  H+  H238  1  0.60573190  0.36743485  0.67086869  1
  H+  H239  1  -0.02567358  0.11305764  0.50060356  1
  H+  H240  1  0.26144787  0.38094391  1.01271831  1
  H+  H241  1  0.36327385  0.22730873  0.49235612  1
  H+  H242  1  0.03366616  0.14136617  0.02121380  1
  H+  H243  1  0.38452405  -0.01190194  0.84614065  1
  H+  H244  1  0.85630287  0.22300775  0.82677028  1
  H+  H245  1  0.26875918  0.38962496  0.16456989  1
  H+  H246  1  0.36451529  0.51805299  -0.00604327  1
  H+  H247  1  0.77834349  0.63873840  0.83009551  1
  H+  H248  1  0.86952320  0.63663516  0.49641731  1
  H+  H249  1  0.43298776  0.84159526  0.57170473  1
  H+  H250  1  0.73005237  0.35764612  0.50191080  1
  H+  H251  1  0.53898109  0.39760847  0.48013644  1
  H+  H252  1  0.10670595  0.13921790  0.17995437  1
  H+  H253  1  0.22852882  0.36113931  0.85176645  1
  H+  H254  1  0.35091892  0.63464788  -0.00412859  1
  H+  H255  1  0.88345998  0.52112728  0.84099611  1
  H+  H256  1  0.26448747  0.88786453  0.67353952  1
  H+  H257  1  0.59532663  0.70716656  -0.03165681  1
  H+  H258  1  0.86656440  0.89488280  1.00458864  1
  H+  H259  1  -0.03106662  0.85818565  0.32820735  1
  H+  H260  1  0.60398432  0.86703117  0.34134197  1
  H+  H261  1  0.12646149  0.76145054  0.83228658  1
  H+  H262  1  0.11758753  0.72980904  0.33510188  1
  H+  H263  1  0.34413184  0.83654355  0.81500551  1
  H+  H264  1  0.39095458  0.25044667  1.00985688  1
  H+  H265  1  0.13344778  0.27221557  1.00776048  1
  H+  H266  1  0.84624983  0.91782890  0.43191303  1
  H+  H267  1  0.10594241  0.38715144  0.33485657  1
  H+  H268  1  0.38264342  0.63267807  0.82218896  1
  H+  H269  1  0.28041987  0.25439045  0.32181749  1
  H+  H270  1  0.13397887  0.26256622  0.66397470  1
  H+  H271  1  0.13788498  0.76454269  0.66727525  1
  H+  H272  1  0.36729688  0.19421714  0.10184978  1
  H+  H273  1  0.52195375  0.08730770  0.68465245  1
  H+  H274  1  0.36454199  0.31497346  0.28275769  1
  H+  H275  1  0.67893008  0.13526357  0.97874106  1
  H+  H276  1  0.77360184  0.63378125  0.34263369  1
  H+  H277  1  0.36212841  0.87909093  0.34512246  1
  H+  H278  1  0.86684728  0.49584593  0.35064785  1
  H+  H279  1  0.86548241  0.47656463  0.00974212  1
  H+  H280  1  0.89189112  0.78149476  0.84155590  1
  H+  H281  1  0.66096382  0.07559240  0.41010427  1
  H+  H282  1  0.38803744  0.11421128  0.50571200  1
  H+  H283  1  0.85977236  0.22807204  0.67143693  1
  H+  H284  1  0.22702704  0.59892747  0.83926244  1
  H+  H285  1  0.36427261  0.72914563  0.33742282  1
  H+  H286  1  0.86438337  0.39234253  0.67478977  1
  H+  H287  1  0.85699636  0.22084796  0.48354853  1
  H+  H288  1  0.09934524  0.98229308  0.18636304  1
  H+  H289  1  0.83268504  0.16962057  0.73142171  1
  H+  H290  1  0.09188307  0.17680182  0.08222623  1
  H+  H291  1  0.42319373  0.11907132  0.90402897  1
  H+  H292  1  0.90896313  0.32663818  0.94084749  1
  H+  H293  1  0.91060392  0.07234825  0.22951797  1
  H+  H294  1  0.13190254  0.36480326  0.17284788  1
  H+  H295  1  0.45119301  0.60141009  0.97413320  1
  H+  H296  1  0.83677615  0.67463099  0.77208315  1
  H+  H297  1  0.09045961  0.94795664  0.11868088  1
  H+  H298  1  0.67450407  0.33352653  0.22960535  1
  H+  H299  1  0.77770730  0.45202232  0.38350432  1
  H+  H300  1  0.66624410  0.83991933  0.90162450  1
  H+  H301  1  0.15635096  0.09406393  0.53800888  1
  H+  H302  1  0.53362408  0.18926584  0.06120415  1
  H+  H303  1  0.36941501  0.31422121  0.62363581  1
  H+  H304  1  0.15361908  0.86824769  0.51600898  1
  H+  H305  1  0.83035243  0.91594352  0.06494663  1
  H+  H306  1  0.58378953  0.15955400  0.76865441  1
  H+  H307  1  0.31666403  0.87804954  0.74919703  1
  H+  H308  1  0.60571779  0.42291798  0.39097863  1
  H+  H309  1  0.02930254  0.64567377  0.49195642  1
  H+  H310  1  0.85080396  0.17199897  0.39030933  1
  H+  H311  1  0.58483349  0.66884469  0.41784837  1
  H+  H312  1  0.41545321  0.59642787  0.21623513  1
  H+  H313  1  0.24819711  0.83814040  0.81180592  1
  H+  H314  1  0.48347559  0.10525991  0.17946586  1
  H+  H315  1  0.63420548  0.11122572  0.46702263  1
  H+  H316  1  0.10308286  0.97267207  0.34095099  1
  H+  H317  1  0.16933130  0.57428095  0.90046264  1
  H+  H318  1  0.33013498  0.42959304  0.78196700  1
  H+  H319  1  0.33792710  0.67443224  0.43023777  1
  H+  H320  1  0.52293735  0.63813544  0.36019004  1
  H+  H321  1  0.37470729  0.22415266  0.34709489  1
  H+  H322  1  0.58445082  0.91400949  0.11742635  1
  H+  H323  1  0.83085166  0.16642850  0.11089669  1
  H+  H324  1  0.82815416  0.91338274  0.76740941  1
  H+  H325  1  0.52323445  0.14744026  0.49108556  1
  H+  H326  1  0.35609293  0.63108259  0.14267524  1
  H+  H327  1  0.32789749  0.41329864  0.10544367  1
  H+  H328  1  0.34583487  0.66268208  0.76736692  1
  H+  H329  1  0.40229479  0.82141179  0.89724948  1
  H+  H330  1  0.83441029  0.66424633  0.40180640  1
  H+  H331  1  0.33502409  0.38812502  0.35531382  1
  H+  H332  1  0.06632076  0.39423446  0.79366563  1
  H+  H333  1  0.83052095  0.40740784  0.09536197  1
  H+  H334  1  0.67045629  0.07242005  0.88852494  1
  H+  H335  1  0.90690927  0.57278042  0.93616741  1
  H+  H336  1  0.02734606  0.89414305  0.82692579  1
  H+  H337  1  0.23014017  0.61380996  0.32570576  1
  H+  H338  1  0.40644410  0.58031048  0.59624524  1
  H+  H339  1  0.42064274  0.07447418  0.27016189  1
  H+  H340  1  0.32679624  0.91368531  0.10054211  1
  H+  H341  1  0.41285971  0.83363978  0.27317716  1
  H+  H342  1  0.60961173  0.15002060  0.12313963  1
  H+  H343  1  0.18033864  0.60497552  0.59083294  1
  H+  H344  1  0.11987086  0.30984337  0.54102124  1
  H+  H345  1  0.62845440  0.26415220  0.49268160  1
  H+  H346  1  0.83391184  0.41532909  0.77194844  1
  H+  H347  1  0.13761497  0.51475965  0.99068493  1
  H+  H348  1  0.11359576  0.22079074  0.83402207  1
  H+  H349  1  0.08395445  0.42876524  0.42356743  1
  H+  H350  1  0.95046859  0.28857755  0.54166932  1
  H+  H351  1  0.57867343  0.40686811  0.76475729  1
  H+  H352  1  0.92031740  0.34871512  0.60338456  1
  H+  H353  1  0.41744763  0.08602772  0.56466711  1
  H+  H354  1  0.12236858  0.04455997  0.63449721  1
  H+  H355  1  0.17034329  0.58462889  0.22928324  1
  H+  H356  1  0.11747337  0.44237855  0.70761188  1
  H+  H357  1  0.94317665  0.86563938  0.92457243  1
  H+  H358  1  0.63713186  0.60838689  0.66006188  1
  H+  H359  1  0.32183643  0.66353610  0.05750854  1
  H+  H360  1  0.81757964  0.64117323  0.11163877  1
  H+  H361  1  0.13080144  0.09526736  0.26975059  1
  H+  H362  1  0.60058541  0.42636539  0.10204755  1
  H+  H363  1  0.57244429  0.88889447  0.40265684  1
  H+  H364  1  0.92798654  0.58996066  0.56640243  1
  H+  H365  1  0.91913581  0.08691387  0.60159742  1
  H+  H366  1  0.08604034  0.65361300  0.73944782  1
  H+  H367  1  0.16924285  0.82496646  0.60678957  1
  H+  H368  1  0.16333411  0.32466222  0.94399813  1
  H+  H369  1  0.16928651  0.82679070  0.88673289  1
  H+  H370  1  0.42773692  0.35371358  0.92425745  1
  H+  H371  1  0.09039227  0.67345693  0.39553393  1
  H+  H372  1  0.45282272  0.34374738  0.54746697  1
  H+  H373  1  0.89041080  0.10803631  0.32037619  1
  H+  H374  1  0.15921611  0.33682404  0.26510125  1
  H+  H375  1  0.86461847  0.63239893  0.17035592  1
  H+  H376  1  0.17073709  0.83806262  0.26791286  1
  H+  H377  1  0.67257875  0.83059167  0.23865514  1
  H+  H378  1  0.83968962  0.41590054  0.44285876  1
  H+  H379  1  0.67720168  0.58043164  0.56999632  1
  H+  H380  1  0.91435869  0.33842033  0.23151058  1
  H+  H381  1  0.19888813  0.32114922  0.61047841  1
  H+  H382  1  0.31611923  0.15733376  0.77695107  1
  H+  H383  1  0.67170881  0.06684804  0.60280001  1
  O2-  O384  1  0.08214429  0.17109188  0.15825906  1
  O2-  O385  1  0.06817577  0.16075800  0.45856996  1
  O2-  O386  1  0.08437670  0.16237010  0.81500618  1
  O2-  O387  1  0.08107054  0.41639323  0.14583626  1
  O2-  O388  1  0.08613996  0.42769436  0.46968014  1
  O2-  O389  1  0.07529635  0.40487909  0.83706163  1
  O2-  O390  1  0.07561726  0.66903962  0.15443107  1
  O2-  O391  1  0.08905279  0.67680169  0.47599756  1
  O2-  O392  1  0.08045552  0.65490257  0.81591720  1
  O2-  O393  1  0.08377349  0.92985456  0.16156645  1
  O2-  O394  1  0.08759222  0.91305475  0.48570868  1
  O2-  O395  1  0.08929367  0.92840244  0.81476652  1
  O2-  O396  1  0.36879157  0.18934216  0.14754179  1
  O2-  O397  1  0.33565395  0.16500100  0.48344099  1
  O2-  O398  1  0.31838768  0.16797537  0.82151958  1
  O2-  O399  1  0.32986490  0.41816748  0.15074460  1
  O2-  O400  1  0.32406447  0.40038289  0.52987920  1
  O2-  O401  1  0.33372096  0.42493635  0.82672093  1
  O2-  O402  1  0.32386682  0.65821794  0.12661238  1
  O2-  O403  1  0.33426851  0.67065136  0.47591673  1
  O2-  O404  1  0.34377793  0.65519886  0.81252645  1
  O2-  O405  1  0.32851319  0.91556874  0.14556917  1
  O2-  O406  1  0.34341761  0.91672788  0.48278655  1
  O2-  O407  1  0.29771209  0.83818352  0.78827565  1
  O2-  O408  1  0.59529020  0.15368420  0.16525105  1
  O2-  O409  1  0.58264091  0.18082031  0.47288952  1
  O2-  O410  1  0.58628031  0.16627584  0.81345325  1
  O2-  O411  1  0.59826248  0.42647885  0.14667657  1
  O2-  O412  1  0.60191491  0.42470292  0.47433178  1
  O2-  O413  1  0.57935276  0.40735160  0.80945079  1
  O2-  O414  1  0.58634803  0.71557034  0.10972804  1
  O2-  O415  1  0.59801934  0.67453324  0.50250294  1
  O2-  O416  1  0.63501680  0.61628775  0.80901673  1
  O2-  O417  1  0.59168566  0.92246675  0.16182984  1
  O2-  O418  1  0.58744795  0.90748417  0.48200566  1
  O2-  O419  1  0.57103470  0.90946900  0.80971617  1
  O2-  O420  1  0.83220763  0.16806483  0.15648501  1
  O2-  O421  1  0.83475328  0.16183298  0.46886120  1
  O2-  O422  1  0.83084201  0.16643564  0.80546497  1
  O2-  O423  1  0.82678857  0.39956674  0.14202195  1
  O2-  O424  1  0.83478653  0.40724400  0.48826286  1
  O2-  O425  1  0.83421746  0.41549565  0.81709877  1
  O2-  O426  1  0.82918291  0.65890540  0.15445802  1
  O2-  O427  1  0.84038532  0.66871065  0.48340319  1
  O2-  O428  1  0.83937297  0.67219042  0.81707382  1
  O2-  O429  1  0.82509617  0.91402255  0.14002522  1
  O2-  O430  1  0.84896974  0.91695371  0.47825729  1
  O2-  O431  1  0.83442398  0.91517077  0.81244405  1
  O2-  O432  1  0.13759719  0.08013581  0.22184712  1
  O2-  O433  1  0.15957062  0.08444903  0.49484641  1
  O2-  O434  1  0.15796760  0.07903432  0.85253990  1
  O2-  O435  1  0.16369815  0.33717270  0.19028630  1
  O2-  O436  1  0.14745957  0.32522256  0.50125646  1
  O2-  O437  1  0.16755808  0.32354037  0.86532399  1
  O2-  O438  1  0.16720360  0.58535729  0.18423547  1
  O2-  O439  1  0.16899730  0.59061954  0.51352253  1
  O2-  O440  1  0.16689404  0.57199287  0.85383038  1
  O2-  O441  1  0.16641814  0.84156415  0.19248321  1
  O2-  O442  1  0.18280253  0.83747265  0.53116568  1
  O2-  O443  1  0.16394957  0.82439964  0.84141610  1
  O2-  O444  1  0.42158999  0.07955552  0.18915139  1
  O2-  O445  1  0.42326709  0.08839847  0.51983449  1
  O2-  O446  1  0.44461918  0.15912007  0.86914438  1
  O2-  O447  1  0.40345995  0.34279773  0.21690737  1
  O2-  O448  1  0.42855304  0.34009252  0.50732611  1
  O2-  O449  1  0.41558329  0.33664610  0.85173566  1
  O2-  O450  1  0.41883169  0.58866720  0.17260746  1
  O2-  O451  1  0.40099632  0.57616702  0.51471407  1
  O2-  O452  1  0.47055037  0.59521809  0.84149809  1
  O2-  O453  1  0.42090940  0.84563569  0.20189182  1
  O2-  O454  1  0.42459309  0.83404618  0.52727819  1
  O2-  O455  1  0.40551894  0.81791769  0.85160365  1
  O2-  O456  1  0.67234280  0.07821256  0.20873556  1
  O2-  O457  1  0.66410394  0.07965649  0.45567644  1
  O2-  O458  1  0.66371442  0.07486410  0.84418964  1
  O2-  O459  1  0.67536791  0.32727051  0.18384492  1
  O2-  O460  1  0.66608484  0.33027646  0.50957179  1
  O2-  O461  1  0.66728989  0.33213791  0.84957002  1
  O2-  O462  1  0.66848518  0.58544553  0.20294541  1
  O2-  O463  1  0.67670847  0.58205127  0.52439608  1
  O2-  O464  1  0.66594432  0.57099542  0.84802928  1
  O2-  O465  1  0.67022621  0.83808941  0.19375143  1
  O2-  O466  1  0.68201118  0.83487815  0.51466114  1
  O2-  O467  1  0.67366715  0.84429648  0.85786467  1
  O2-  O468  1  0.91410201  0.07802799  0.18405247  1
  O2-  O469  1  0.91758354  0.08332573  0.52187755  1
  O2-  O470  1  0.92501225  0.08719112  0.83932382  1
  O2-  O471  1  0.91129108  0.33333770  0.18619388  1
  O2-  O472  1  0.93763822  0.32966551  0.52200915  1
  O2-  O473  1  0.90326773  0.32282076  0.86325508  1
  O2-  O474  1  0.91487401  0.58753626  0.19141334  1
  O2-  O475  1  0.92321508  0.58217120  0.52156002  1
  O2-  O476  1  0.91649046  0.58124556  0.85680221  1
  O2-  O477  1  0.90755855  0.83073011  0.14369100  1
  O2-  O478  1  0.91574861  0.83078860  0.52507662  1
  O2-  O479  1  0.92389983  0.84383148  0.85203478  1
  O2-  O480  1  0.13642344  0.11813957  0.32996651  1
  O2-  O481  1  0.12981190  0.05474783  0.67811162  1
  O2-  O482  1  0.20369419  0.13569071  0.99185002  1
  O2-  O483  1  0.15436436  0.33392132  0.31092902  1
  O2-  O484  1  0.16717903  0.32279874  0.64601939  1
  O2-  O485  1  0.16275917  0.33197927  0.98892348  1
  O2-  O486  1  0.16949557  0.58254320  0.31062967  1
  O2-  O487  1  0.18312744  0.60187020  0.63635288  1
  O2-  O488  1  0.16455912  0.57303309  0.97131736  1
  O2-  O489  1  0.16751213  0.83545808  0.31368688  1
  O2-  O490  1  0.15966693  0.82430051  0.65187818  1
  O2-  O491  1  0.16601119  0.81730706  0.96383644  1
  O2-  O492  1  0.42604560  0.07450786  0.31509495  1
  O2-  O493  1  0.40227903  0.09010345  0.64728428  1
  O2-  O494  1  0.38571094  0.07198403  0.97713877  1
  O2-  O495  1  0.34124220  0.29760081  0.32604742  1
  O2-  O496  1  0.37746826  0.31276919  0.66748107  1
  O2-  O497  1  0.43882097  0.37044086  0.96891033  1
  O2-  O498  1  0.42453514  0.57629939  0.31507307  1
  O2-  O499  1  0.41289578  0.58612631  0.64110174  1
  O2-  O500  1  0.38765556  0.57389345  0.97268151  1
  O2-  O501  1  0.40911761  0.82603087  0.31923208  1
  O2-  O502  1  0.46367243  0.85731863  0.65522684  1
  O2-  O503  1  0.39881384  0.82622528  0.97363417  1
  O2-  O504  1  0.67574386  0.09724949  0.33107780  1
  O2-  O505  1  0.66892441  0.06734931  0.64702687  1
  O2-  O506  1  0.69234596  0.09016576  0.96977179  1
  O2-  O507  1  0.66901350  0.33345433  0.30275031  1
  O2-  O508  1  0.65457300  0.31786171  0.65496355  1
  O2-  O509  1  0.67823163  0.33295469  0.97339426  1
  O2-  O510  1  0.67252945  0.58745960  0.31857394  1
  O2-  O511  1  0.67898412  0.58459425  0.64779011  1
  O2-  O512  1  0.65490667  0.56612140  0.97162251  1
  O2-  O513  1  0.67054874  0.82613966  0.31592102  1
  O2-  O514  1  0.64869229  0.80815542  0.66003125  1
  O2-  O515  1  0.65483656  0.80691195  1.00773718  1
  O2-  O516  1  0.91161223  0.06950982  0.30570095  1
  O2-  O517  1  0.91785706  0.08623782  0.64703828  1
  O2-  O518  1  0.93879541  0.09199976  0.99551829  1
  O2-  O519  1  0.91912379  0.34132187  0.30957712  1
  O2-  O520  1  0.91988473  0.34558438  0.64823228  1
  O2-  O521  1  0.91657106  0.33080922  0.98606019  1
  O2-  O522  1  0.91991306  0.58244992  0.32053807  1
  O2-  O523  1  0.94957417  0.63952841  0.63886810  1
  O2-  O524  1  0.90797185  0.57189846  0.98152530  1
  O2-  O525  1  0.90804263  0.83081865  0.31612323  1
  O2-  O526  1  0.90632225  0.82562689  0.63853881  1
  O2-  O527  1  0.95326241  0.87441814  0.97013386  1
  O2-  O528  1  0.09463042  0.18001114  0.03674732  1
  O2-  O529  1  0.08058715  0.15705376  0.33661541  1
  O2-  O530  1  0.07746161  0.16712804  0.69514740  1
  O2-  O531  1  0.08395945  0.41691485  0.02305295  1
  O2-  O532  1  0.07883253  0.42124125  0.34969090  1
  O2-  O533  1  0.09565555  0.42269602  0.66673470  1
  O2-  O534  1  0.06957455  0.64438484  0.00349789  1
  O2-  O535  1  0.08832195  0.66891224  0.35043763  1
  O2-  O536  1  0.08733780  0.65931956  0.69391925  1
  O2-  O537  1  0.10240214  0.96827232  0.03329956  1
  O2-  O538  1  0.08157241  0.91466161  0.35710130  1
  O2-  O539  1  0.04900328  0.87613837  0.68252433  1
  O2-  O540  1  0.35663386  0.19296204  0.02728311  1
  O2-  O541  1  0.38490521  0.17886974  0.36400965  1
  O2-  O542  1  0.30057416  0.14094938  0.69904049  1
  O2-  O543  1  0.32295742  0.41358082  0.02756635  1
  O2-  O544  1  0.31585474  0.43030394  0.36387408  1
  O2-  O545  1  0.32483998  0.43062336  0.70130516  1
  O2-  O546  1  0.32261744  0.66799991  0.01067870  1
  O2-  O547  1  0.33489879  0.66694208  0.35308254  1
  O2-  O548  1  0.35307693  0.68555063  0.68896136  1
  O2-  O549  1  0.31605985  0.90634154  0.01812182  1
  O2-  O550  1  0.33260090  0.91068253  0.36066907  1
  O2-  O551  1  0.32389254  0.91602512  0.69065701  1
  O2-  O552  1  0.55293649  0.17243551  0.02484016  1
  O2-  O553  1  0.58474974  0.17663767  0.35494580  1
  O2-  O554  1  0.57853180  0.13855997  0.68880258  1
  O2-  O555  1  0.59884818  0.40972497  0.01646682  1
  O2-  O556  1  0.60778997  0.42263738  0.34630776  1
  O2-  O557  1  0.57227371  0.39895164  0.67999137  1
  O2-  O558  1  0.55848675  0.64643165  -0.04396593  1
  O2-  O559  1  0.58390448  0.66742425  0.37306642  1
  O2-  O560  1  0.58283343  0.64246546  0.67611485  1
  O2-  O561  1  0.54430465  0.85744038  0.04167454  1
  O2-  O562  1  0.56712132  0.88878522  0.35786520  1
  O2-  O563  1  0.54944592  0.88894996  0.68263334  1
  O2-  O564  1  0.84953267  0.17376552  0.03517385  1
  O2-  O565  1  0.84810484  0.17228517  0.34507768  1
  O2-  O566  1  0.83171066  0.16772120  0.68529833  1
  O2-  O567  1  0.83586966  0.41526688  0.02615980  1
  O2-  O568  1  0.82204592  0.43859771  0.37151604  1
  O2-  O569  1  0.82692708  0.41400123  0.69171959  1
  O2-  O570  1  0.81097850  0.63194896  0.02516672  1
  O2-  O571  1  0.83523465  0.66245804  0.35676253  1
  O2-  O572  1  0.83376927  0.67945207  0.69028916  1
  O2-  O573  1  0.82800739  0.91537011  0.01896063  1
  O2-  O574  1  0.83363684  0.91106953  0.36013502  1
  O2-  O575  1  0.82448988  0.91766079  0.68766823  1
