# generated using pymatgen
data_H2O
_symmetry_space_group_name_H-M   'P 1'
_cell_length_a   18.00030118
_cell_length_b   17.99792998
_cell_length_c   22.00813562
_cell_angle_alpha   90.01554131
_cell_angle_beta   89.96953746
_cell_angle_gamma   120.00278939
_symmetry_Int_Tables_number   1
_chemical_formula_structural   H2O
_chemical_formula_sum   'H384 O192'
_cell_volume   6174.53057613
_cell_formula_units_Z   192
loop_
 _symmetry_equiv_pos_site_id
 _symmetry_equiv_pos_as_xyz
  1  'x, y, z'
loop_
 _atom_type_symbol
 _atom_type_oxidation_number
  H+  1.0
  O2-  -2.0
loop_
 _atom_site_type_symbol
 _atom_site_label
 _atom_site_symmetry_multiplicity
 _atom_site_fract_x
 _atom_site_fract_y
 _atom_site_fract_z
 _atom_site_occupancy
  H+  H0  1  0.62840657  0.81692638  0.72697522  1
  H+  H1  1  0.92199763  0.41341459  0.15041223  1
  H+  H2  1  0.91811766  0.54389329  0.17250461  1
  H+  H3  1  0.52197123  0.66684953  0.28765305  1
  H+  H4  1  0.62806757  1.01852846  0.18117243  1
  H+  H5  1  0.62625323  0.14314463  0.66753705  1
  H+  H6  1  0.93498690  0.10740597  0.24263843  1
  H+  H7  1  1.02418594  0.13991803  0.49912688  1
  H+  H8  1  -0.00375556  0.14109847  0.18671178  1
  H+  H9  1  0.14291132  0.11111780  0.84460879  1
  H+  H10  1  0.74905595  0.09376748  0.01107347  1
  H+  H11  1  0.87850448  0.50896080  0.83571900  1
  H+  H12  1  0.61115983  0.13979869  1.00945094  1
  H+  H13  1  0.11777840  0.88226609  0.00287812  1
  H+  H14  1  0.12088072  0.12928319  0.16201828  1
  H+  H15  1  0.57314988  0.38709291  0.34902315  1
  H+  H16  1  0.87821514  0.88666779  0.00476386  1
  H+  H17  1  0.97735879  0.86652789  0.83686765  1
  H+  H18  1  0.90566498  0.37634182  0.51595862  1
  H+  H19  1  0.12011089  -0.02022049  0.84421129  1
  H+  H20  1  0.11676983  0.97679299  0.49493620  1
  H+  H21  1  0.65070520  0.71078437  0.69511732  1
  H+  H22  1  0.22531273  0.85534018  0.50101829  1
  H+  H23  1  0.45218781  0.08854916  0.51387456  1
  H+  H24  1  0.10238843  0.63054297  0.67654782  1
  H+  H25  1  0.87049814  0.64526235  0.00016965  1
  H+  H26  1  0.11903322  0.72645636  -0.00437236  1
  H+  H27  1  0.72120866  0.61216655  0.31954146  1
  H+  H28  1  0.61067027  0.38704387  0.82722904  1
  H+  H29  1  0.62901779  0.09375281  0.50897132  1
  H+  H30  1  0.36888303  0.85863327  0.83294371  1
  H+  H31  1  0.02100930  0.14642753  0.82762210  1
  H+  H32  1  0.63882440  0.61711873  0.50116134  1
  H+  H33  1  0.21321473  0.61030142  0.66393009  1
  H+  H34  1  0.19367020  0.84407085  0.92831972  1
  H+  H35  1  0.86867475  0.73338096  0.49418772  1
  H+  H36  1  0.22401463  0.86161346  0.32124322  1
  H+  H37  1  0.89042175  0.11761302  0.50809217  1
  H+  H38  1  0.58487210  0.16928270  0.10899053  1
  H+  H39  1  0.60615398  0.22699586  0.81892394  1
  H+  H40  1  0.97195331  0.35520439  0.32124802  1
  H+  H41  1  0.77597274  0.89539369  0.67455117  1
  H+  H42  1  0.13031323  0.10885573  0.33217368  1
  H+  H43  1  0.61395180  0.87375316  0.33726543  1
  H+  H44  1  0.11318603  0.38336482  0.82557050  1
  H+  H45  1  0.22919746  0.60720602  0.98979026  1
  H+  H46  1  0.22179248  0.35827815  0.98573031  1
  H+  H47  1  0.88717680  0.86599261  0.32814514  1
  H+  H48  1  0.37056827  0.35655159  0.16717509  1
  H+  H49  1  0.36417856  0.62049023  0.00316916  1
  H+  H50  1  0.56905220  0.36917037  0.27768414  1
  H+  H51  1  1.04294329  0.40021337  0.50310995  1
  H+  H52  1  0.77927611  0.63568697  0.15319368  1
  H+  H53  1  0.89310003  0.77290966  0.98765506  1
  H+  H54  1  0.59972560  0.72681288  0.83421548  1
  H+  H55  1  0.12827719  0.60231985  0.84275124  1
  H+  H56  1  0.15686451  0.58021101  0.60377706  1
  H+  H57  1  0.14564620  0.36548668  0.51337920  1
  H+  H58  1  0.62925857  0.52474175  0.30954533  1
  H+  H59  1  0.38602380  0.02106043  1.00694341  1
  H+  H60  1  0.97563937  0.61115583  0.49908802  1
  H+  H61  1  0.52198977  0.37527855  0.67427484  1
  H+  H62  1  0.72273611  0.87145654  0.83869264  1
  H+  H63  1  0.72922802  0.11405848  0.80685652  1
  H+  H64  1  0.13897216  0.86065565  0.50362882  1
  H+  H65  1  0.91680304  0.58784453  0.55826949  1
  H+  H66  1  0.77311669  0.12514087  0.49219805  1
  H+  H67  1  0.91513300  0.97726983  0.03542863  1
  H+  H68  1  0.88181278  0.77323143  0.66185797  1
  H+  H69  1  0.22919767  0.62135829  0.51243696  1
  H+  H70  1  0.65373950  0.79306417  0.17196420  1
  H+  H71  1  0.36866716  0.00752682  0.32334794  1
  H+  H72  1  0.65558614  0.32830378  0.89294486  1
  H+  H73  1  0.36851257  0.09717179  0.33452963  1
  H+  H74  1  0.87423758  0.22925849  0.95145056  1
  H+  H75  1  0.78668092  0.62238864  0.80791495  1
  H+  H76  1  0.26388583  0.88527564  0.16581345  1
  H+  H77  1  0.64140112  0.59753254  0.66684927  1
  H+  H78  1  0.10677763  0.72164900  0.67523276  1
  H+  H79  1  0.42391900  0.58657654  0.13346434  1
  H+  H80  1  0.97812162  0.61262122  0.98665854  1
  H+  H81  1  0.88477251  0.86250413  0.17409923  1
  H+  H82  1  0.37822766  0.10334017  0.67964056  1
  H+  H83  1  0.64908703  0.29155785  0.33715837  1
  H+  H84  1  0.91793434  0.35965074  0.88830307  1
  H+  H85  1  0.11280499  0.63723325  0.49063796  1
  H+  H86  1  0.38267404  0.35832552  0.84250073  1
  H+  H87  1  0.45887183  0.56220227  0.98084903  1
  H+  H88  1  0.21063923  0.35231174  0.18386008  1
  H+  H89  1  0.50706524  0.37520541  0.00790194  1
  H+  H90  1  0.38756531  0.52152060  0.50330532  1
  H+  H91  1  0.35446502  0.47406814  0.83288279  1
  H+  H92  1  0.13432958  0.35962634  0.97941109  1
  H+  H93  1  0.38182704  0.12124918  0.83126476  1
  H+  H94  1  0.89056644  0.52641266  0.65317846  1
  H+  H95  1  0.36086490  0.88022721  0.48691914  1
  H+  H96  1  0.88919126  0.62802821  0.32657573  1
  H+  H97  1  0.85902313  0.47481504  0.49708650  1
  H+  H98  1  0.22912432  0.35929602  0.83499384  1
  H+  H99  1  0.34379252  0.98714493  0.82675361  1
  H+  H100  1  0.36855194  0.09583140  0.50391631  1
  H+  H101  1  0.63452062  0.32950965  0.48201157  1
  H+  H102  1  0.45963985  0.86413842  0.83221994  1
  H+  H103  1  0.39536469  0.56837737  0.90961056  1
  H+  H104  1  0.38687789  0.76967836  -0.00324761  1
  H+  H105  1  0.37895151  0.86241245  0.17608026  1
  H+  H106  1  0.14457630  0.53035160  0.51043788  1
  H+  H107  1  0.67596707  0.27456029  0.32281944  1
  H+  H108  1  0.12248490  0.62089827  0.15718326  1
  H+  H109  1  0.12925706  0.85454934  0.65608419  1
  H+  H110  1  0.35161358  -0.03534084  0.48496515  1
  H+  H111  1  0.11204503  0.72567177  0.49050854  1
  H+  H112  1  0.60138753  0.90477697  0.68275368  1
  H+  H113  1  0.85442521  0.21556693  0.33073401  1
  H+  H114  1  0.12945857  0.10641294  0.66293552  1
  H+  H115  1  0.02779485  0.64684155  0.15255824  1
  H+  H116  1  0.33760887  0.63510751  0.15535717  1
  H+  H117  1  0.37944088  0.53248974  0.30696233  1
  H+  H118  1  0.59163531  0.64210272  0.01708975  1
  H+  H119  1  0.88220179  0.02308953  0.96453892  1
  H+  H120  1  0.23986267  0.37130271  0.66409993  1
  H+  H121  1  0.85361882  0.22222100  0.15225299  1
  H+  H122  1  0.14879166  0.36745213  0.66524497  1
  H+  H123  1  0.03644075  0.09882298  0.07721617  1
  H+  H124  1  0.61819161  0.14486599  0.81817402  1
  H+  H125  1  0.89993374  0.04985990  0.82653206  1
  H+  H126  1  0.76406485  0.12758755  0.33858916  1
  H+  H127  1  0.74970935  0.38358259  0.15583161  1
  H+  H128  1  0.34939252  0.71957911  0.82231769  1
  H+  H129  1  0.98440637  0.40346223  0.97793426  1
  H+  H130  1  0.86500614  0.98041427  0.35446887  1
  H+  H131  1  0.72985002  0.62080587  0.50451475  1
  H+  H132  1  0.45976426  0.10438407  0.82127489  1
  H+  H133  1  0.77866901  0.89133302  0.37223428  1
  H+  H134  1  0.64738782  0.61677429  0.16355717  1
  H+  H135  1  1.02192955  0.88053515  0.67144541  1
  H+  H136  1  0.19202814  0.89994956  0.82667995  1
  H+  H137  1  0.89124612  0.60394263  0.83251036  1
  H+  H138  1  0.25051697  0.62334826  0.34800261  1
  H+  H139  1  0.44802270  0.34837929  0.31433562  1
  H+  H140  1  0.08211482  0.65855391  0.77485182  1
  H+  H141  1  0.61418450  0.39909657  0.54499685  1
  H+  H142  1  0.87709904  0.10307544  0.33699845  1
  H+  H143  1  0.34932377  0.46751356  1.00656217  1
  H+  H144  1  0.35383856  0.33282537  0.32936576  1
  H+  H145  1  0.32630899  0.16238345  0.43827896  1
  H+  H146  1  0.61189392  0.98671610  0.83355984  1
  H+  H147  1  0.61712925  0.08463144  0.33670867  1
  H+  H148  1  0.61373023  0.72420873  0.48200913  1
  H+  H149  1  0.26116105  0.12248811  0.34540806  1
  H+  H150  1  0.11148665  0.47028390  0.67324056  1
  H+  H151  1  0.61511356  0.64670168  0.32749544  1
  H+  H152  1  0.71781583  0.35718997  0.83389482  1
  H+  H153  1  0.62290146  1.02836464  0.66082173  1
  H+  H154  1  0.73758718  0.35188465  0.13017414  1
  H+  H155  1  0.96394299  0.35949853  0.82781813  1
  H+  H156  1  0.38001306  0.26457705  0.00497473  1
  H+  H157  1  0.78135178  0.89455773  0.16421698  1
  H+  H158  1  0.71233242  0.36741779  -0.01454733  1
  H+  H159  1  0.61010151  0.48289480  0.53081240  1
  H+  H160  1  0.47340808  0.85919026  1.00355747  1
  H+  H161  1  0.36045299  0.38024760  0.50134525  1
  H+  H162  1  0.59183903  0.63436379  0.83896775  1
  H+  H163  1  0.33856211  0.62201562  0.34481984  1
  H+  H164  1  0.90043531  0.50998779  0.34657115  1
  H+  H165  1  0.85924982  0.89806739  0.82681881  1
  H+  H166  1  0.35067553  0.20642782  0.67971881  1
  H+  H167  1  0.31142512  0.90376193  0.73309470  1
  H+  H168  1  0.89309679  0.39938603  -0.01775553  1
  H+  H169  1  0.62056342  0.35986218  0.98737188  1
  H+  H170  1  0.50717065  0.38790544  0.15636081  1
  H+  H171  1  0.91624733  0.83545596  0.60475754  1
  H+  H172  1  0.21574841  0.10338554  0.66496661  1
  H+  H173  1  0.11946172  0.21728054  0.15070300  1
  H+  H174  1  0.12929440  0.01916587  0.33214891  1
  H+  H175  1  0.63602786  1.00873388  0.50742699  1
  H+  H176  1  0.41032985  0.44774968  0.68246536  1
  H+  H177  1  0.32374068  0.90781575  0.07285830  1
  H+  H178  1  0.99676442  0.09833205  1.01282183  1
  H+  H179  1  0.11011252  0.88540073  0.33819033  1
  H+  H180  1  0.74919060  0.13864289  0.68404225  1
  H+  H181  1  0.97919374  0.35435144  0.67201291  1
  H+  H182  1  0.62822740  0.10724295  0.18426900  1
  H+  H183  1  0.12216533  0.22858981  0.67888232  1
  H+  H184  1  0.99180196  0.34868279  0.16794852  1
  H+  H185  1  0.65337638  0.06859150  0.27400437  1
  H+  H186  1  1.02858195  0.14216431  0.67882408  1
  H+  H187  1  0.11602261  0.47886015  0.00021474  1
  H+  H188  1  0.13423712  0.01839568  0.17529646  1
  H+  H189  1  0.16482758  0.57718389  0.93238809  1
  H+  H190  1  0.36003825  0.87635909  0.33300406  1
  H+  H191  1  0.47549198  0.10937687  1.00768365  1
  H+  H192  1  0.88129893  0.34979427  0.30819344  1
  H+  H193  1  0.88552549  0.27149533  0.67849727  1
  H+  H194  1  0.23366320  0.86100723  -0.00559886  1
  H+  H195  1  0.11706252  0.63636345  0.00007884  1
  H+  H196  1  0.13043076  0.39509182  0.16868180  1
  H+  H197  1  0.11558745  0.51231113  0.34605171  1
  H+  H198  1  0.61063176  0.89808491  0.83170867  1
  H+  H199  1  0.61115976  0.46464417  0.66913727  1
  H+  H200  1  0.25821128  0.87480544  0.67121518  1
  H+  H201  1  0.78096612  0.38976745  0.66566297  1
  H+  H202  1  0.63332283  0.24259585  0.67141771  1
  H+  H203  1  0.39493186  0.55312567  0.33800653  1
  H+  H204  1  0.78762708  0.89239304  0.50097597  1
  H+  H205  1  0.85455167  0.37862729  0.82051792  1
  H+  H206  1  0.33389905  0.45812396  0.15683860  1
  H+  H207  1  0.62177755  0.89571322  0.01062732  1
  H+  H208  1  0.21859496  0.60460478  0.84052076  1
  H+  H209  1  0.35958030  0.87960938  1.01555328  1
  H+  H210  1  0.38956854  0.77333959  0.50759164  1
  H+  H211  1  0.52474686  0.87710225  0.49335120  1
  H+  H212  1  0.46760499  0.35569891  0.52918614  1
  H+  H213  1  0.88910854  0.77890804  0.82901930  1
  H+  H214  1  0.87209519  0.24328434  -0.01685850  1
  H+  H215  1  1.02919187  0.88321694  1.00085990  1
  H+  H216  1  0.09908354  0.35045134  0.33835099  1
  H+  H217  1  0.49027636  0.10033129  0.34936619  1
  H+  H218  1  0.46278904  0.86697792  0.66318565  1
  H+  H219  1  0.11032813  0.96728412  0.66711346  1
  H+  H220  1  0.78678975  0.42051164  0.30224726  1
  H+  H221  1  0.36335702  0.63594778  0.49368590  1
  H+  H222  1  0.13449114  0.77711878  0.16750423  1
  H+  H223  1  0.86969935  0.63698788  0.66316965  1
  H+  H224  1  0.61786289  0.01368300  0.99290030  1
  H+  H225  1  0.88726940  0.77377056  0.17350296  1
  H+  H226  1  0.74529372  0.88096673  0.99665507  1
  H+  H227  1  0.18689352  0.34604340  0.34070265  1
  H+  H228  1  0.17275728  0.33225587  0.57280621  1
  H+  H229  1  0.36920867  0.33022528  0.67069537  1
  H+  H230  1  0.62545414  0.74374793  0.32916010  1
  H+  H231  1  0.56827429  0.19903847  0.17343409  1
  H+  H232  1  0.47460428  0.84750511  0.32759997  1
  H+  H233  1  0.63648779  0.36140594  0.65850792  1
  H+  H234  1  0.96713235  0.10303263  0.34186483  1
  H+  H235  1  0.32606565  0.43561183  0.34968270  1
  H+  H236  1  0.13340603  0.11050972  0.50873422  1
  H+  H237  1  0.65540188  0.79379512  1.00040202  1
  H+  H238  1  0.61011146  0.88829820  0.16367757  1
  H+  H239  1  0.98372778  0.63582738  0.32800938  1
  H+  H240  1  0.34842686  0.72932923  0.67360717  1
  H+  H241  1  0.69517125  0.60348626  0.87037700  1
  H+  H242  1  0.48964692  0.72421056  0.25482694  1
  H+  H243  1  1.01998649  0.88349943  0.33971092  1
  H+  H244  1  0.00784258  0.37283994  0.39824585  1
  H+  H245  1  0.58604503  0.34873660  0.19048466  1
  H+  H246  1  0.47588028  0.61105516  0.49826966  1
  H+  H247  1  0.86470854  0.09534608  0.98588864  1
  H+  H248  1  0.86917582  0.38857382  0.67257442  1
  H+  H249  1  0.77687095  0.62979108  0.66732294  1
  H+  H250  1  0.60285530  0.20008337  0.50130410  1
  H+  H251  1  0.13372510  0.52889341  0.16584276  1
  H+  H252  1  0.89935029  0.03789664  0.66524512  1
  H+  H253  1  0.84729244  0.66724981  0.75310349  1
  H+  H254  1  0.11585384  0.73340582  0.33640059  1
  H+  H255  1  0.51713537  0.88234422  0.16154505  1
  H+  H256  1  0.72581198  0.86341637  0.30438694  1
  H+  H257  1  0.98631466  0.86474327  0.51140102  1
  H+  H258  1  1.09064647  0.89621082  0.88323122  1
  H+  H259  1  0.89911408  0.86817686  0.51393209  1
  H+  H260  1  0.85620058  0.73094717  0.33430640  1
  H+  H261  1  0.66109526  0.07902589  0.59675616  1
  H+  H262  1  0.15162770  1.02825648  -0.00621817  1
  H+  H263  1  0.85191449  0.49083078  0.00347073  1
  H+  H264  1  0.16213605  0.07985555  0.56841287  1
  H+  H265  1  0.38038001  0.76215963  0.32836574  1
  H+  H266  1  0.57038856  0.40650131  0.06511041  1
  H+  H267  1  0.24266508  0.11177397  -0.00135026  1
  H+  H268  1  0.09255971  0.21585382  0.34400865  1
  H+  H269  1  0.34838215  0.62947314  0.82871251  1
  H+  H270  1  0.26789785  0.13500068  0.49820384  1
  H+  H271  1  0.60323613  0.47217259  0.15438945  1
  H+  H272  1  0.30597081  0.39817924  0.09826649  1
  H+  H273  1  0.60960374  0.22803613  0.00773163  1
  H+  H274  1  0.47173175  0.35968304  0.84360964  1
  H+  H275  1  0.37233665  0.62363810  0.65415454  1
  H+  H276  1  0.72965084  0.46192152  0.29855500  1
  H+  H277  1  0.35037118  0.20903616  0.34092276  1
  H+  H278  1  0.61716084  0.51418099  0.84453874  1
  H+  H279  1  0.34758719  0.97633169  0.15843277  1
  H+  H280  1  0.59095544  0.51055453  0.00440172  1
  H+  H281  1  0.73245794  0.16659395  0.86734654  1
  H+  H282  1  0.55715848  0.67231400  0.18194250  1
  H+  H283  1  0.45343367  0.60648872  0.84867848  1
  H+  H284  1  0.12715654  0.86296649  0.16888521  1
  H+  H285  1  0.37213130  0.50754788  0.67061384  1
  H+  H286  1  0.37408540  0.13294377  1.02001934  1
  H+  H287  1  0.63977655  0.86161511  0.49819664  1
  H+  H288  1  0.30842034  0.38642929  0.41175917  1
  H+  H289  1  0.86596373  0.64383482  0.48666803  1
  H+  H290  1  0.55998691  0.13386663  0.44632302  1
  H+  H291  1  0.40769605  0.82555567  0.23259963  1
  H+  H292  1  0.87172897  0.64321796  0.15696482  1
  H+  H293  1  0.18126324  0.08639140  0.90120576  1
  H+  H294  1  0.85472886  0.92613142  0.44736293  1
  H+  H295  1  0.08962501  0.41344167  0.73383099  1
  H+  H296  1  0.33715411  0.42672580  0.76901473  1
  H+  H297  1  0.40532367  0.10341238  0.24151820  1
  H+  H298  1  0.83840312  0.91155947  0.10477691  1
  H+  H299  1  0.92923107  0.33058021  0.22425577  1
  H+  H300  1  0.32897245  0.90402414  0.39290839  1
  H+  H301  1  0.34727309  0.72990531  0.15827444  1
  H+  H302  1  0.40811356  0.59451741  0.59671681  1
  H+  H303  1  0.11239807  0.47196472  0.82717832  1
  H+  H304  1  0.32725556  0.66551466  0.43777997  1
  H+  H305  1  0.80769107  0.12459477  0.06958358  1
  H+  H306  1  0.27267450  0.38247234  0.50296808  1
  H+  H307  1  0.08407950  0.66989270  0.08881415  1
  H+  H308  1  0.82568993  0.41257131  0.76227319  1
  H+  H309  1  0.59662406  0.17567916  0.73590545  1
  H+  H310  1  0.84376811  0.67658784  0.05939448  1
  H+  H311  1  0.58234547  0.18208533  0.35354745  1
  H+  H312  1  0.37136182  0.85970380  0.65999616  1
  H+  H313  1  1.02122605  0.62134068  0.83170254  1
  H+  H314  1  0.58195265  0.66696156  0.42228027  1
  H+  H315  1  0.60640881  0.95915479  0.34168876  1
  H+  H316  1  0.93143596  0.09748972  0.60689811  1
  H+  H317  1  0.64949189  0.07261842  0.93309475  1
  H+  H318  1  0.38666600  0.02311771  0.66921385  1
  H+  H319  1  0.97817628  0.61630385  0.65594067  1
  H+  H320  1  0.32040967  0.66571637  0.73190364  1
  H+  H321  1  0.66888647  0.84422510  0.89975260  1
  H+  H322  1  0.92402423  0.10509886  0.88705657  1
  H+  H323  1  0.65297075  0.34796888  0.23675273  1
  H+  H324  1  0.40282738  0.31578484  0.60746740  1
  H+  H325  1  0.58155430  0.41687647  0.76836665  1
  H+  H326  1  0.41694036  0.83621352  0.56491354  1
  H+  H327  1  0.12601835  0.60552173  0.33612668  1
  H+  H328  1  0.76079690  0.14024234  0.16135187  1
  H+  H329  1  0.55741656  0.36601735  0.43336289  1
  H+  H330  1  1.01789473  0.88281982  0.15774928  1
  H+  H331  1  0.58848620  0.77903910  0.66443517  1
  H+  H332  1  0.84206803  0.41872139  0.43875846  1
  H+  H333  1  0.80428648  0.43156180  0.06159181  1
  H+  H334  1  0.22043169  0.62601195  0.16392426  1
  H+  H335  1  0.07843440  0.16220385  0.40515849  1
  H+  H336  1  0.52052917  0.66887722  0.01904925  1
  H+  H337  1  0.58584901  0.68278843  0.10989246  1
  H+  H338  1  0.16091479  0.07539787  0.23531232  1
  H+  H339  1  0.93489072  0.34496606  0.57388327  1
  H+  H340  1  0.34746900  0.37600642  0.01052939  1
  H+  H341  1  0.07905939  0.91087808  0.09788483  1
  H+  H342  1  0.33085674  0.65734823  0.05777399  1
  H+  H343  1  0.34484609  0.15840452  0.08094202  1
  H+  H344  1  0.40330151  0.32026557  0.94301696  1
  H+  H345  1  0.91558236  0.57838771  0.92871321  1
  H+  H346  1  0.82972991  0.92591955  0.76773634  1
  H+  H347  1  0.09986760  0.42571679  0.44217074  1
  H+  H348  1  0.93024649  0.60011520  0.23295568  1
  H+  H349  1  0.31870994  0.16221681  0.74350027  1
  H+  H350  1  0.14494172  0.32649349  0.24195235  1
  H+  H351  1  0.72898499  0.35492689  0.50178125  1
  H+  H352  1  0.12504588  0.24408985  0.82979715  1
  H+  H353  1  0.09127878  0.17630082  0.76713395  1
  H+  H354  1  0.16148698  0.83489123  0.26310443  1
  H+  H355  1  0.41976747  0.59999407  0.20375864  1
  H+  H356  1  0.92458016  0.46195410  0.08891808  1
  H+  H357  1  0.58605574  0.65243286  0.74517195  1
  H+  H358  1  0.67261689  0.58389810  0.22161544  1
  H+  H359  1  0.16915106  0.32987645  0.89704795  1
  H+  H360  1  0.39711043  0.32073053  0.22368255  1
  H+  H361  1  0.66911546  0.58063813  0.60128946  1
  H+  H362  1  0.89707439  0.03232810  0.51547712  1
  H+  H363  1  0.82622385  0.67287202  0.39418631  1
  H+  H364  1  0.83006046  0.15669893  0.43236618  1
  H+  H365  1  0.86095729  0.88809569  0.67410060  1
  H+  H366  1  0.16530980  0.45496983  0.11106375  1
  H+  H367  1  0.57160534  0.93560731  0.73957505  1
  H+  H368  1  0.91429493  0.83671504  0.26572133  1
  H+  H369  1  0.38018652  0.26521200  0.51288800  1
  H+  H370  1  0.11580888  0.22614289  0.49828543  1
  H+  H371  1  0.60882941  0.56646886  0.94482915  1
  H+  H372  1  0.06908806  0.40668857  0.05228401  1
  H+  H373  1  0.60523422  0.39501540  0.42749808  1
  H+  H374  1  0.58412164  0.91828241  0.06968351  1
  H+  H375  1  0.66414477  0.84234393  0.23474480  1
  H+  H376  1  0.16137471  0.82264416  0.59832018  1
  H+  H377  1  0.66472528  0.32930159  0.59821289  1
  H+  H378  1  0.08450807  0.91654729  0.43536617  1
  H+  H379  1  0.08441698  0.67407401  0.39706150  1
  H+  H380  1  0.66855222  0.82851856  0.55539406  1
  H+  H381  1  0.94521216  0.45725253  0.36567332  1
  H+  H382  1  0.58149847  0.90271967  0.43163268  1
  H+  H383  1  0.91958885  0.83309996  0.92756270  1
  O2-  O384  1  0.08877445  0.15584189  0.14181673  1
  O2-  O385  1  0.08453209  0.16620777  0.48246097  1
  O2-  O386  1  0.08933162  0.17784480  0.81392494  1
  O2-  O387  1  0.12084111  0.43816682  0.14196889  1
  O2-  O388  1  0.10414674  0.42671543  0.48712138  1
  O2-  O389  1  0.08381327  0.41301401  0.80847512  1
  O2-  O390  1  0.08724731  0.67028567  0.13486341  1
  O2-  O391  1  0.08113308  0.66527396  0.47401414  1
  O2-  O392  1  0.08256068  0.65257550  0.81956571  1
  O2-  O393  1  0.07881593  0.91019800  0.14342516  1
  O2-  O394  1  0.08683256  0.91558743  0.48075722  1
  O2-  O395  1  0.09117904  0.91369785  0.84127708  1
  O2-  O396  1  0.36199605  0.08396115  0.15981311  1
  O2-  O397  1  0.32905595  0.16588140  0.48372886  1
  O2-  O398  1  0.35875171  0.20327427  0.81409407  1
  O2-  O399  1  0.30456085  0.39720279  0.14445320  1
  O2-  O400  1  0.33174897  0.41103121  0.48402603  1
  O2-  O401  1  0.33069930  0.41561225  0.81339052  1
  O2-  O402  1  0.31093823  0.66930630  0.14187864  1
  O2-  O403  1  0.33313523  0.66826045  0.48293577  1
  O2-  O404  1  0.31875467  0.65775114  0.80921159  1
  O2-  O405  1  0.32555489  0.91384677  0.15265108  1
  O2-  O406  1  0.32587972  0.90331161  0.46877454  1
  O2-  O407  1  0.31039068  0.92008713  0.81528850  1
  O2-  O408  1  0.58505360  0.16105369  0.15359304  1
  O2-  O409  1  0.56860997  0.13853982  0.49140788  1
  O2-  O410  1  0.58208113  0.16795954  0.80089949  1
  O2-  O411  1  0.56847353  0.41103912  0.14175444  1
  O2-  O412  1  0.57522961  0.42195250  0.54433549  1
  O2-  O413  1  0.58148647  0.41948992  0.81362058  1
  O2-  O414  1  0.60350785  0.68302583  0.15319328  1
  O2-  O415  1  0.58198156  0.66371050  0.46780130  1
  O2-  O416  1  0.56677238  0.66659544  0.81921977  1
  O2-  O417  1  0.57740523  0.91595777  0.14725278  1
  O2-  O418  1  0.58525653  0.90491657  0.47753547  1
  O2-  O419  1  0.58068212  0.92860188  0.81651890  1
  O2-  O420  1  0.80506406  0.17501003  0.13091463  1
  O2-  O421  1  0.83292356  0.15404270  0.47726822  1
  O2-  O422  1  0.77966758  0.10873147  0.75948722  1
  O2-  O423  1  0.91809119  0.46315556  0.13269987  1
  O2-  O424  1  0.83045998  0.41339091  0.48314960  1
  O2-  O425  1  0.82106388  0.40857013  0.80739339  1
  O2-  O426  1  0.84059545  0.67168032  0.14069543  1
  O2-  O427  1  0.83508143  0.67490178  0.47519505  1
  O2-  O428  1  0.84593007  0.66516457  0.79945671  1
  O2-  O429  1  0.83992474  0.91175330  0.14977751  1
  O2-  O430  1  0.85038602  0.92415464  0.49292791  1
  O2-  O431  1  0.82764722  0.92721927  0.81313634  1
  O2-  O432  1  0.16339479  0.07819208  0.19043165  1
  O2-  O433  1  0.16416309  0.08011466  0.52265382  1
  O2-  O434  1  0.17005978  0.07780791  0.85607189  1
  O2-  O435  1  0.15000412  0.33134788  0.19665651  1
  O2-  O436  1  0.17253254  0.33129236  0.52726088  1
  O2-  O437  1  0.16770181  0.32787964  0.84959429  1
  O2-  O438  1  0.15606791  0.59155965  0.17694553  1
  O2-  O439  1  0.16759396  0.59065194  0.52509674  1
  O2-  O440  1  0.15939988  0.57151875  0.85817288  1
  O2-  O441  1  0.15991623  0.83484629  0.18604307  1
  O2-  O442  1  0.16527504  0.82609254  0.51756792  1
  O2-  O443  1  0.22682913  0.87796198  0.84634278  1
  O2-  O444  1  0.41707007  0.13722070  0.20235564  1
  O2-  O445  1  0.38907892  0.05548858  0.51442463  1
  O2-  O446  1  0.40088007  0.07821416  0.83725085  1
  O2-  O447  1  0.41011786  0.33639032  0.18052230  1
  O2-  O448  1  0.40378285  0.32320671  0.53288261  1
  O2-  O449  1  0.41452137  0.33373525  0.86333276  1
  O2-  O450  1  0.38316732  0.57114907  0.16691532  1
  O2-  O451  1  0.41640293  0.58338760  0.51494293  1
  O2-  O452  1  0.39316036  0.57238550  0.86224591  1
  O2-  O453  1  0.40555648  0.82669754  0.18714143  1
  O2-  O454  1  0.42205241  0.83525422  0.51962100  1
  O2-  O455  1  0.39770942  0.82455245  0.83641869  1
  O2-  O456  1  0.65691946  0.07591643  0.20107265  1
  O2-  O457  1  0.66432278  0.06850488  0.52375728  1
  O2-  O458  1  0.69053666  0.11714868  0.84388223  1
  O2-  O459  1  0.59109160  0.31814220  0.22705399  1
  O2-  O460  1  0.66621126  0.32107157  0.51485051  1
  O2-  O461  1  0.65613272  0.32816030  0.84728644  1
  O2-  O462  1  0.67237359  0.58075837  0.17626094  1
  O2-  O463  1  0.67057634  0.59208904  0.52193254  1
  O2-  O464  1  0.63336963  0.57135740  0.86453329  1
  O2-  O465  1  0.67212168  0.85106232  0.18843480  1
  O2-  O466  1  0.67356938  0.83244384  0.51135022  1
  O2-  O467  1  0.66221649  0.84056248  0.85463960  1
  O2-  O468  1  0.95363100  0.14930196  0.20956111  1
  O2-  O469  1  0.92600611  0.09401225  0.52692928  1
  O2-  O470  1  0.93662367  0.10894196  0.84181540  1
  O2-  O471  1  0.93419957  0.33658393  0.17855104  1
  O2-  O472  1  0.94851088  0.36192224  0.53081787  1
  O2-  O473  1  0.90623494  0.33698451  0.84556716  1
  O2-  O474  1  0.93384138  0.60231381  0.18757722  1
  O2-  O475  1  0.91428988  0.58330023  0.51287286  1
  O2-  O476  1  0.91245372  0.56893222  0.85263207  1
  O2-  O477  1  0.91716192  0.83327558  0.19036421  1
  O2-  O478  1  0.92575138  0.83350420  0.52722827  1
  O2-  O479  1  0.91434677  0.83766426  0.84557092  1
  O2-  O480  1  0.16229576  0.07999931  0.31793899  1
  O2-  O481  1  0.15793771  0.07639413  0.64476680  1
  O2-  O482  1  0.18784478  0.08564258  0.97597367  1
  O2-  O483  1  0.12996628  0.32112145  0.32095331  1
  O2-  O484  1  0.17970632  0.33693477  0.65059188  1
  O2-  O485  1  0.16485087  0.33030048  0.96459334  1
  O2-  O486  1  0.15490962  0.57122708  0.33054045  1
  O2-  O487  1  0.15252424  0.57556256  0.64907472  1
  O2-  O488  1  0.16683672  0.57900954  0.97856682  1
  O2-  O489  1  0.16241060  0.83415552  0.30873458  1
  O2-  O490  1  0.15916126  0.82155818  0.64353680  1
  O2-  O491  1  0.17694310  0.83223585  0.97151731  1
  O2-  O492  1  0.40062863  0.07085142  0.31461791  1
  O2-  O493  1  0.42010815  0.08605344  0.66746189  1
  O2-  O494  1  0.41495632  0.08196265  0.99405028  1
  O2-  O495  1  0.38558960  0.30766023  0.30917050  1
  O2-  O496  1  0.41029796  0.31597702  0.65313732  1
  O2-  O497  1  0.40386641  0.32407252  0.98812728  1
  O2-  O498  1  0.48998159  0.67045427  0.25022248  1
  O2-  O499  1  0.40663135  0.59638753  0.64164184  1
  O2-  O500  1  0.40451344  0.56174005  0.97941952  1
  O2-  O501  1  0.41479242  0.82054997  0.31038700  1
  O2-  O502  1  0.40539139  0.83268694  0.64428107  1
  O2-  O503  1  0.41183504  0.83231612  0.99295939  1
  O2-  O504  1  0.65489590  0.06419024  0.32008033  1
  O2-  O505  1  0.65796827  0.08682011  0.64213018  1
  O2-  O506  1  0.64738442  0.07459978  0.97749038  1
  O2-  O507  1  0.75068036  0.43094652  0.27433673  1
  O2-  O508  1  0.67076626  0.33464980  0.64285490  1
  O2-  O509  1  0.65247519  0.33171306  0.97055324  1
  O2-  O510  1  0.66358145  0.58666047  0.29957612  1
  O2-  O511  1  0.67125212  0.57036369  0.64570375  1
  O2-  O512  1  0.59938807  0.56667204  0.98888792  1
  O2-  O513  1  0.66351951  0.83206507  0.30616755  1
  O2-  O514  1  0.63857785  0.82725211  0.68332566  1
  O2-  O515  1  0.68533078  0.85161610  0.98143030  1
  O2-  O516  1  0.90563407  0.06844854  0.32871975  1
  O2-  O517  1  0.93572415  0.09784883  0.65201803  1
  O2-  O518  1  0.90406492  0.08456503  0.95790716  1
  O2-  O519  1  0.91289744  0.32046749  0.29755097  1
  O2-  O520  1  0.91813477  0.32759719  0.65808880  1
  O2-  O521  1  0.93987066  0.40849741  0.95488572  1
  O2-  O522  1  0.92286396  0.60063823  0.31253110  1
  O2-  O523  1  0.91879799  0.58653210  0.63729138  1
  O2-  O524  1  0.91678237  0.58454989  0.97416328  1
  O2-  O525  1  0.91452048  0.83406144  0.31173291  1
  O2-  O526  1  0.90914118  0.83484958  0.64995916  1
  O2-  O527  1  0.92539447  0.83476633  0.97247776  1
  O2-  O528  1  0.00838223  0.06289904  0.04080753  1
  O2-  O529  1  0.07255866  0.15669183  0.35979842  1
  O2-  O530  1  0.08973125  0.16979769  0.69628785  1
  O2-  O531  1  0.07989995  0.41480410  0.00865350  1
  O2-  O532  1  0.04557399  0.40123796  0.36371693  1
  O2-  O533  1  0.08841157  0.40996206  0.68793391  1
  O2-  O534  1  0.08647783  0.66727038  0.01359972  1
  O2-  O535  1  0.08221623  0.67259388  0.35147511  1
  O2-  O536  1  0.07273026  0.66151869  0.69142480  1
  O2-  O537  1  0.08747015  0.91096433  0.01981978  1
  O2-  O538  1  0.07967988  0.91391693  0.35627252  1
  O2-  O539  1  0.08386206  0.90635298  0.68001727  1
  O2-  O540  1  0.34548713  0.16595212  0.03687898  1
  O2-  O541  1  0.32240287  0.15084776  0.36034112  1
  O2-  O542  1  0.31131003  0.15028121  0.69864575  1
  O2-  O543  1  0.31602318  0.40585259  0.02399090  1
  O2-  O544  1  0.29584694  0.37749586  0.36652133  1
  O2-  O545  1  0.35672108  0.44792799  0.68841261  1
  O2-  O546  1  0.33371488  0.65365001  0.01333162  1
  O2-  O547  1  0.31533822  0.65791196  0.35849898  1
  O2-  O548  1  0.31713231  0.66769075  0.68640089  1
  O2-  O549  1  0.32594724  0.90857545  0.02766268  1
  O2-  O550  1  0.32813099  0.90520829  0.34704255  1
  O2-  O551  1  0.31792794  0.90267942  0.68852269  1
  O2-  O552  1  0.58505938  0.17156527  0.02850714  1
  O2-  O553  1  0.54919880  0.12315768  0.36871135  1
  O2-  O554  1  0.60679660  0.18209086  0.68842335  1
  O2-  O555  1  0.56969045  0.40871171  0.01950096  1
  O2-  O556  1  0.56136224  0.40573075  0.31031136  1
  O2-  O557  1  0.58287033  0.40603438  0.68787365  1
  O2-  O558  1  0.57915889  0.68812056  0.03345303  1
  O2-  O559  1  0.58647496  0.67837061  0.34208937  1
  O2-  O560  1  0.60255073  0.65309226  0.70153141  1
  O2-  O561  1  0.58318541  0.91716466  0.02412467  1
  O2-  O562  1  0.57769282  0.89784613  0.35559423  1
  O2-  O563  1  0.56917789  0.93379171  0.69397653  1
  O2-  O564  1  0.79599707  0.09012121  0.03122365  1
  O2-  O565  1  0.82549206  0.15874164  0.35143431  1
  O2-  O566  1  0.79254257  0.17216377  0.71626069  1
  O2-  O567  1  0.81605927  0.42950684  0.01846127  1
  O2-  O568  1  0.88838517  0.45205019  0.36261399  1
  O2-  O569  1  0.84005431  0.42227145  0.68226898  1
  O2-  O570  1  0.84341228  0.67850671  0.01428181  1
  O2-  O571  1  0.82483736  0.66955376  0.34886304  1
  O2-  O572  1  0.83814436  0.66542567  0.68067916  1
  O2-  O573  1  0.85826485  0.92453023  0.02358291  1
  O2-  O574  1  0.84114099  0.91844051  0.37184932  1
  O2-  O575  1  0.83466212  0.92250038  0.68992687  1
