# generated using pymatgen
data_H2O
_symmetry_space_group_name_H-M   'P 1'
_cell_length_a   18.00375595
_cell_length_b   18.00604884
_cell_length_c   22.01753618
_cell_angle_alpha   90.00300433
_cell_angle_beta   90.00265897
_cell_angle_gamma   120.01990548
_symmetry_Int_Tables_number   1
_chemical_formula_structural   H2O
_chemical_formula_sum   'H384 O192'
_cell_volume   6180.07496581
_cell_formula_units_Z   192
loop_
 _symmetry_equiv_pos_site_id
 _symmetry_equiv_pos_as_xyz
  1  'x, y, z'
loop_
 _atom_type_symbol
 _atom_type_oxidation_number
  H+  1.0
  O2-  -2.0
loop_
 _atom_site_type_symbol
 _atom_site_label
 _atom_site_symmetry_multiplicity
 _atom_site_fract_x
 _atom_site_fract_y
 _atom_site_fract_z
 _atom_site_occupancy
  H+  H0  1  0.39548980  0.12196799  0.88168124  1
  H+  H1  1  0.33783409  0.47823428  0.75340070  1
  H+  H2  1  0.36663017  0.86744989  0.33435716  1
  H+  H3  1  0.10911148  -0.02915637  0.47815542  1
  H+  H4  1  0.39187786  0.78542372  0.17751340  1
  H+  H5  1  0.73208808  0.10965031  0.66282661  1
  H+  H6  1  0.52520987  0.14412445  0.84742211  1
  H+  H7  1  0.03237720  0.45388540  0.03855398  1
  H+  H8  1  0.12124002  0.63037959  1.01425690  1
  H+  H9  1  0.53537244  0.88934033  0.16020063  1
  H+  H10  1  0.39672593  0.02369729  0.17138367  1
  H+  H11  1  0.84370067  0.36235892  -0.01626698  1
  H+  H12  1  0.35110196  0.33619879  0.34475440  1
  H+  H13  1  0.07288358  0.39941699  0.08868434  1
  H+  H14  1  0.36562689  0.98505410  0.34299139  1
  H+  H15  1  0.02741926  0.89525507  0.00424082  1
  H+  H16  1  0.26091462  0.37547886  0.99760747  1
  H+  H17  1  0.09801951  0.22179701  0.00818986  1
  H+  H18  1  0.28849206  0.12606540  0.69794327  1
  H+  H19  1  0.61169875  0.38689759  0.49430021  1
  H+  H20  1  0.72365575  0.36945141  0.84648987  1
  H+  H21  1  0.39199239  0.54387975  0.50199289  1
  H+  H22  1  0.61705175  0.16600717  0.13893031  1
  H+  H23  1  0.54880460  0.64099551  0.66821082  1
  H+  H24  1  0.25732095  0.86891625  0.01108800  1
  H+  H25  1  0.24155672  0.62363434  0.50570483  1
  H+  H26  1  0.96065711  0.11119306  0.99720317  1
  H+  H27  1  0.63140997  1.02022685  0.33298073  1
  H+  H28  1  0.08236091  0.67127657  0.40021957  1
  H+  H29  1  0.47014845  0.36361520  0.84603238  1
  H+  H30  1  0.36514396  0.20481579  0.15687899  1
  H+  H31  1  0.87504610  0.85835538  0.51236693  1
  H+  H32  1  0.72616141  0.86935149  0.99688054  1
  H+  H33  1  0.13734301  0.87612606  0.83114714  1
  H+  H34  1  0.61094218  0.63656287  0.15798335  1
  H+  H35  1  0.61406491  0.12482669  0.68442003  1
  H+  H36  1  0.18422482  0.58772988  0.95122639  1
  H+  H37  1  0.66526663  1.15642962  0.85507283  1
  H+  H38  1  0.32593155  0.89956457  0.73094681  1
  H+  H39  1  0.87073537  0.10960808  0.00227419  1
  H+  H40  1  0.54170826  0.13393414  0.49603190  1
  H+  H41  1  0.13287650  0.37341458  0.48573867  1
  H+  H42  1  0.33915606  0.67813220  0.11006930  1
  H+  H43  1  0.29946473  0.93183288  0.81739403  1
  H+  H44  1  0.89658292  0.78212383  0.31914990  1
  H+  H45  1  0.13618995  0.12370784  0.47524030  1
  H+  H46  1  0.14106565  0.51972031  1.00681092  1
  H+  H47  1  0.26112239  0.13210447  0.48755705  1
  H+  H48  1  0.88195205  0.80265268  0.98459576  1
  H+  H49  1  0.36565858  0.22492699  0.84316621  1
  H+  H50  1  0.38580225  0.38825262  0.70904459  1
  H+  H51  1  0.13820864  0.00863691  0.17284739  1
  H+  H52  1  0.11189279  0.43705485  0.15357207  1
  H+  H53  1  0.86494178  0.64139118  0.83475300  1
  H+  H54  1  0.50243708  0.88287478  0.49546204  1
  H+  H55  1  0.89327216  0.77727739  0.84544439  1
  H+  H56  1  0.85640826  0.68161139  0.39056548  1
  H+  H57  1  0.79188508  0.89920723  0.48630555  1
  H+  H58  1  0.12898332  0.09984986  0.31649557  1
  H+  H59  1  0.47725547  0.87136316  1.00263160  1
  H+  H60  1  0.78567874  0.64703224  0.33662518  1
  H+  H61  1  0.59874201  0.68145934  0.76899095  1
  H+  H62  1  0.13777421  0.76663838  1.00090593  1
  H+  H63  1  0.24225371  0.62688646  0.33150014  1
  H+  H64  1  0.11510610  0.88863869  0.16206419  1
  H+  H65  1  0.40609268  0.03909917  0.61267524  1
  H+  H66  1  0.60550550  0.88545503  0.82941585  1
  H+  H67  1  0.95609714  0.09808872  0.27061669  1
  H+  H68  1  0.27742271  0.65393932  0.16821867  1
  H+  H69  1  0.97243033  0.36458074  0.66042938  1
  H+  H70  1  0.86068372  0.99084515  1.00426693  1
  H+  H71  1  0.56459074  0.39824101  0.16509505  1
  H+  H72  1  0.59941663  0.46987330  0.49886854  1
  H+  H73  1  0.61766544  0.38129490  0.69000514  1
  H+  H74  1  0.64028984  0.86549870  0.66305748  1
  H+  H75  1  0.42512021  0.42874726  0.69896572  1
  H+  H76  1  0.60264859  0.47793532  0.82962577  1
  H+  H77  1  0.07626270  0.54055315  0.89457110  1
  H+  H78  1  0.63713098  0.28091943  0.85691305  1
  H+  H79  1  0.83868996  0.64982494  0.07756562  1
  H+  H80  1  0.65870149  0.78658607  0.31729705  1
  H+  H81  1  0.14095034  0.11579642  0.68424462  1
  H+  H82  1  0.11010666  0.39282211  0.67260301  1
  H+  H83  1  0.40162344  0.32212016  0.40494169  1
  H+  H84  1  0.10483781  0.88150507  0.48662622  1
  H+  H85  1  0.61421444  -0.02855909  0.67506000  1
  H+  H86  1  0.59374161  0.68652861  0.39191205  1
  H+  H87  1  0.47204074  0.36008536  0.48247566  1
  H+  H88  1  1.03395638  0.64092583  0.49335017  1
  H+  H89  1  0.85334235  0.21816112  1.02049512  1
  H+  H90  1  0.26606832  0.11944299  0.34015388  1
  H+  H91  1  0.51756212  0.38389522  0.01858400  1
  H+  H92  1  0.98701218  0.87695371  0.83827477  1
  H+  H93  1  0.87261217  0.14091467  0.66600023  1
  H+  H94  1  0.64239283  0.28522221  0.17352787  1
  H+  H95  1  0.76333494  0.12237127  0.33409804  1
  H+  H96  1  0.97759721  0.10956162  0.17545456  1
  H+  H97  1  0.27325256  0.62458415  0.35336613  1
  H+  H98  1  0.89575172  0.03058813  0.65865884  1
  H+  H99  1  0.53624671  0.39320780  0.34049907  1
  H+  H100  1  0.43700944  0.68708073  0.35517676  1
  H+  H101  1  0.13050430  0.49627490  0.49109963  1
  H+  H102  1  0.87947252  0.51940079  0.65049460  1
  H+  H103  1  0.89366207  0.65073433  0.48751544  1
  H+  H104  1  0.37535058  0.75797884  0.51111851  1
  H+  H105  1  0.32647161  0.41057966  0.29142710  1
  H+  H106  1  0.66796873  0.38240964  0.17658981  1
  H+  H107  1  0.71921318  0.60795619  0.99286133  1
  H+  H108  1  0.62612319  0.24887206  0.67968504  1
  H+  H109  1  0.02716153  0.13463967  0.47716933  1
  H+  H110  1  0.08975110  0.50324250  0.31147986  1
  H+  H111  1  0.39368198  0.54737641  0.33031640  1
  H+  H112  1  0.17998219  0.84525980  0.78434855  1
  H+  H113  1  0.10875486  0.98603090  0.83035297  1
  H+  H114  1  0.40065239  0.62419205  0.84415314  1
  H+  H115  1  0.33772349  0.49631407  0.14895353  1
  H+  H116  1  0.78420820  0.13206275  0.82661774  1
  H+  H117  1  0.39119720  0.04230565  0.49983302  1
  H+  H118  1  0.10276669  0.64219409  0.83301049  1
  H+  H119  1  0.77616154  0.89858438  0.67649742  1
  H+  H120  1  1.01062741  0.36936608  0.34682290  1
  H+  H121  1  0.83509094  0.42413900  0.39132460  1
  H+  H122  1  0.52961494  0.89112023  0.31837935  1
  H+  H123  1  0.36340461  0.11692298  0.15862642  1
  H+  H124  1  0.39747361  0.10391700  0.65729581  1
  H+  H125  1  0.54176607  0.65068641  0.33105143  1
  H+  H126  1  0.84266539  0.96427979  0.76382168  1
  H+  H127  1  0.58984827  0.63938637  0.47888881  1
  H+  H128  1  0.60562961  0.46959463  1.00909149  1
  H+  H129  1  0.62364961  1.00165986  0.50818467  1
  H+  H130  1  0.86493150  0.26596618  0.17213162  1
  H+  H131  1  0.41533643  0.54214532  0.65393819  1
  H+  H132  1  0.61704594  0.73360605  0.00566863  1
  H+  H133  1  0.86802663  0.73999683  0.16682198  1
  H+  H134  1  0.63213724  0.73612294  0.67527335  1
  H+  H135  1  0.12516189  0.39476371  0.81805678  1
  H+  H136  1  0.10646751  0.25519748  0.31974040  1
  H+  H137  1  0.26259029  0.63170134  0.67502967  1
  H+  H138  1  0.37739414  0.40077255  0.83963572  1
  H+  H139  1  0.13987122  0.85757950  0.99964412  1
  H+  H140  1  0.65331603  0.62424279  0.67735028  1
  H+  H141  1  0.64651745  0.36514419  0.32578513  1
  H+  H142  1  0.09005405  0.59309372  0.31670385  1
  H+  H143  1  0.47556648  0.61820303  0.17376246  1
  H+  H144  1  0.90748599  0.30852905  0.50581808  1
  H+  H145  1  0.51515161  0.65870377  0.48484259  1
  H+  H146  1  -0.03350816  0.35944095  -0.00954075  1
  H+  H147  1  0.22469912  0.11477522  0.99209490  1
  H+  H148  1  0.23914668  0.10033774  0.17377891  1
  H+  H149  1  -0.04610535  0.34865709  0.16663930  1
  H+  H150  1  0.10889129  0.65466595  0.16341932  1
  H+  H151  1  0.53238586  0.82873208  0.36442623  1
  H+  H152  1  0.13176817  0.52880135  0.84666056  1
  H+  H153  1  0.65167261  0.87019160  0.31378315  1
  H+  H154  1  0.88278895  0.64097933  0.17681579  1
  H+  H155  1  0.32709035  0.93035735  0.40692723  1
  H+  H156  1  0.63110114  0.24616944  0.00287211  1
  H+  H157  1  0.39148820  0.62771043  0.18020487  1
  H+  H158  1  0.12819967  0.52982980  0.65755599  1
  H+  H159  1  0.88809663  0.11000812  0.18493133  1
  H+  H160  1  0.38999180  0.84644547  0.65956244  1
  H+  H161  1  0.63650225  0.05110143  0.99197981  1
  H+  H162  1  0.33940757  0.70350203  0.83115183  1
  H+  H163  1  0.36670764  0.89040574  0.16137787  1
  H+  H164  1  0.75895460  0.13810584  0.01579625  1
  H+  H165  1  0.13589067  0.77796525  0.50715846  1
  H+  H166  1  0.78255889  0.65025598  0.69151840  1
  H+  H167  1  0.64185589  0.86147489  0.16283438  1
  H+  H168  1  0.89570046  0.32604873  0.29796266  1
  H+  H169  1  0.88730468  0.98706401  0.33534695  1
  H+  H170  1  0.21196184  0.85516654  0.65802316  1
  H+  H171  1  0.49636802  0.14125603  0.97471466  1
  H+  H172  1  0.37267431  0.84887767  0.51363763  1
  H+  H173  1  0.10727088  0.97432485  0.68218583  1
  H+  H174  1  0.65373821  0.53558534  0.17347401  1
  H+  H175  1  0.11372877  0.36422056  0.99655048  1
  H+  H176  1  0.64181058  0.08505457  0.18486819  1
  H+  H177  1  0.76504965  0.08844903  0.49534157  1
  H+  H178  1  0.67020651  0.61856645  0.53665875  1
  H+  H179  1  0.80383672  0.64225312  0.47727006  1
  H+  H180  1  0.62877284  0.27457439  0.49384850  1
  H+  H181  1  0.12910966  0.61900641  0.65843158  1
  H+  H182  1  0.76465818  0.38910709  0.32951017  1
  H+  H183  1  0.26917216  0.39121834  0.48309896  1
  H+  H184  1  0.11827895  0.33273551  0.16622347  1
  H+  H185  1  0.36077642  0.70557360  0.67403255  1
  H+  H186  1  0.48093591  0.11847868  0.16580741  1
  H+  H187  1  0.35961134  0.87684466  1.01069990  1
  H+  H188  1  0.22987632  0.86854940  0.32897572  1
  H+  H189  1  0.35640142  0.35522483  0.11526737  1
  H+  H190  1  0.03630435  0.39203472  0.82691579  1
  H+  H191  1  0.49049921  0.90025386  0.84787419  1
  H+  H192  1  0.49209476  0.63519043  -0.00344499  1
  H+  H193  1  0.84285393  0.17675008  0.47648354  1
  H+  H194  1  0.54372962  0.65830102  0.83051334  1
  H+  H195  1  0.91311921  0.02256483  0.50300948  1
  H+  H196  1  0.23482944  0.39845998  0.68577753  1
  H+  H197  1  1.02643252  0.13579788  0.67810371  1
  H+  H198  1  -0.01891567  0.63698413  0.17160314  1
  H+  H199  1  1.02845233  0.88974326  0.33231721  1
  H+  H200  1  0.87444697  0.48461036  0.13029110  1
  H+  H201  1  0.15290856  0.32114893  0.23004095  1
  H+  H202  1  0.65567860  0.77216532  0.50910242  1
  H+  H203  1  0.37910215  0.35911882  0.99779726  1
  H+  H204  1  0.61088932  0.12967800  0.33838131  1
  H+  H205  1  0.31418643  0.53941730  0.71423104  1
  H+  H206  1  0.28409768  0.63972913  0.01731781  1
  H+  H207  1  0.63392258  0.61339165  0.99112754  1
  H+  H208  1  0.09982441  0.72892675  0.67106306  1
  H+  H209  1  0.10520831  0.73224639  0.82878672  1
  H+  H210  1  0.74534898  0.79690717  0.54004551  1
  H+  H211  1  0.86857464  0.40112939  0.48513271  1
  H+  H212  1  0.69539169  0.13375595  0.91912986  1
  H+  H213  1  0.10921943  0.22682066  0.46174973  1
  H+  H214  1  0.78082933  0.89089148  0.15578239  1
  H+  H215  1  0.12517855  0.64469300  0.49073838  1
  H+  H216  1  0.77687518  0.64682310  0.83481405  1
  H+  H217  1  0.77583923  0.64592901  0.17167610  1
  H+  H218  1  0.65001092  0.62495977  0.32889612  1
  H+  H219  1  0.89641470  0.87164936  0.32157370  1
  H+  H220  1  0.03754437  0.41168975  0.49427574  1
  H+  H221  1  0.90219619  0.10233712  0.50539708  1
  H+  H222  1  0.86401092  0.89696936  0.68173026  1
  H+  H223  1  0.96571781  0.60895235  0.65391605  1
  H+  H224  1  0.48131679  0.12137866  0.32615880  1
  H+  H225  1  0.13926226  0.78506954  0.17283190  1
  H+  H226  1  0.02790097  0.62003343  0.00568247  1
  H+  H227  1  0.87249379  0.76877404  0.51450809  1
  H+  H228  1  0.13423187  0.01317285  0.32567430  1
  H+  H229  1  -0.02277712  0.61617736  0.32588612  1
  H+  H230  1  0.87170800  0.75154771  0.68588140  1
  H+  H231  1  0.38016251  0.20608444  0.68408747  1
  H+  H232  1  0.85600963  0.38190967  0.67040396  1
  H+  H233  1  0.88905380  0.61815838  0.32258693  1
  H+  H234  1  0.38135269  0.36314815  0.48157176  1
  H+  H235  1  0.48863570  0.34088422  0.65705901  1
  H+  H236  1  0.88200558  0.58356393  -0.00259114  1
  H+  H237  1  0.42776995  0.34128251  0.15413557  1
  H+  H238  1  0.22961046  0.11026351  0.84648575  1
  H+  H239  1  0.41848946  0.82097700  0.59884600  1
  H+  H240  1  0.89115574  0.87201474  0.16836185  1
  H+  H241  1  0.38502184  0.92957417  0.81982345  1
  H+  H242  1  0.73889583  0.89442047  0.84273271  1
  H+  H243  1  0.87955211  0.26483620  0.83632694  1
  H+  H244  1  0.38326538  0.27187551  0.99799257  1
  H+  H245  1  0.76529338  0.37712368  0.67189131  1
  H+  H246  1  0.60814642  0.89413043  0.00572878  1
  H+  H247  1  0.10610149  0.20927652  0.16088955  1
  H+  H248  1  0.85248589  0.46393242  0.97727312  1
  H+  H249  1  0.90272905  0.70333776  0.02708888  1
  H+  H250  1  0.62806521  0.97469698  0.16877792  1
  H+  H251  1  0.11100032  0.72990493  0.33976174  1
  H+  H252  1  0.79195682  0.90334613  0.32956007  1
  H+  H253  1  0.36875866  0.73439176  0.01293812  1
  H+  H254  1  0.42058202  0.85207179  0.94250297  1
  H+  H255  1  0.13710459  0.55958671  0.16024280  1
  H+  H256  1  0.52612627  0.87981726  0.66983375  1
  H+  H257  1  0.36258738  0.12739409  0.33771192  1
  H+  H258  1  0.41138348  0.75890013  0.36207065  1
  H+  H259  1  0.08165031  0.42463069  0.73025979  1
  H+  H260  1  0.32754049  0.14736547  0.43019121  1
  H+  H261  1  0.65754007  0.10288322  0.50845037  1
  H+  H262  1  0.39686993  0.63640358  -0.00159484  1
  H+  H263  1  0.77550332  0.39162442  0.47894919  1
  H+  H264  1  0.12362105  0.14825282  0.83877363  1
  H+  H265  1  0.13735059  0.02563384  0.99411848  1
  H+  H266  1  0.64888640  0.62711815  0.83696203  1
  H+  H267  1  0.11438848  0.22414563  0.68894041  1
  H+  H268  1  0.40860080  0.54034305  0.85380003  1
  H+  H269  1  0.64938423  0.53500092  0.32935598  1
  H+  H270  1  0.32158093  0.32376085  0.13620867  1
  H+  H271  1  0.08427612  0.91398301  0.39449018  1
  H+  H272  1  0.19711427  0.34912043  0.77789839  1
  H+  H273  1  0.97316288  0.86584968  0.66505557  1
  H+  H274  1  0.14030736  0.86631763  0.32512391  1
  H+  H275  1  0.27758416  0.80392183  0.70736631  1
  H+  H276  1  0.27718887  0.89223967  0.16246211  1
  H+  H277  1  0.25106697  0.40664497  0.14748402  1
  H+  H278  1  0.36557779  0.13865254  0.99653203  1
  H+  H279  1  0.89370189  0.53288964  0.49836049  1
  H+  H280  1  0.86366251  0.48849734  0.32988948  1
  H+  H281  1  0.52540546  0.12389707  0.67592279  1
  H+  H282  1  0.88799143  0.89340162  -0.01074267  1
  H+  H283  1  0.61977533  0.47143914  0.68564266  1
  H+  H284  1  0.96787663  0.61268704  0.83919234  1
  H+  H285  1  0.43068779  0.60862160  0.93160085  1
  H+  H286  1  0.38338924  0.63140192  0.50923897  1
  H+  H287  1  0.11752093  0.35102703  0.32886480  1
  H+  H288  1  0.83963364  0.16212052  0.72718769  1
  H+  H289  1  0.58478655  0.92372273  0.06692561  1
  H+  H290  1  0.56521343  0.16859834  0.42766370  1
  H+  H291  1  0.87812604  0.25012906  0.34258680  1
  H+  H292  1  0.60635503  0.43217159  0.10088739  1
  H+  H293  1  0.33139075  0.15188384  0.06064430  1
  H+  H294  1  0.35853737  0.22214066  0.48311288  1
  H+  H295  1  0.17233730  0.84138703  0.23418429  1
  H+  H296  1  0.08552433  0.42200201  0.39508379  1
  H+  H297  1  0.89814743  0.31218850  0.93538178  1
  H+  H298  1  0.06924906  0.15422918  0.10092943  1
  H+  H299  1  0.05582003  0.14399574  0.37504524  1
  H+  H300  1  0.21776309  0.87400316  0.50736296  1
  H+  H301  1  0.67026176  0.84148861  0.93683084  1
  H+  H302  1  0.13873675  0.58516735  0.23007568  1
  H+  H303  1  0.61109781  0.29667207  0.62613610  1
  H+  H304  1  0.41275349  0.33340893  0.90690707  1
  H+  H305  1  0.10360255  0.88393169  0.67520488  1
  H+  H306  1  0.70010388  0.34984981  0.93547818  1
  H+  H307  1  0.20153523  0.33787673  0.62965879  1
  H+  H308  1  0.82276022  0.15044442  0.11342014  1
  H+  H309  1  0.17446664  0.07146985  0.23774279  1
  H+  H310  1  0.57551574  0.56921591  0.56365956  1
  H+  H311  1  0.92221998  0.35343352  0.56949820  1
  H+  H312  1  0.42280601  0.09043783  0.26584767  1
  H+  H313  1  0.92055997  0.85310269  0.90063760  1
  H+  H314  1  0.91069091  0.57014996  0.93044775  1
  H+  H315  1  0.58361941  0.66931808  0.06404540  1
  H+  H316  1  0.47596431  0.96429791  0.88847409  1
  H+  H317  1  0.66884451  0.07389942  0.60611439  1
  H+  H318  1  0.15368628  0.83579315  0.59809575  1
  H+  H319  1  0.66133752  0.79681777  0.83922435  1
  H+  H320  1  0.10480769  0.13660749  0.00477399  1
  H+  H321  1  0.14575792  0.08245566  0.53598943  1
  H+  H322  1  0.41584005  0.84726589  0.23456533  1
  H+  H323  1  0.32783185  0.90905021  0.07276903  1
  H+  H324  1  0.32897627  0.65529992  0.76897908  1
  H+  H325  1  0.14291929  0.31656930  0.53574311  1
  H+  H326  1  0.57124184  0.90387749  0.76746315  1
  H+  H327  1  0.84502131  0.68854824  0.75328633  1
  H+  H328  1  0.83945427  0.92699870  0.06299166  1
  H+  H329  1  0.62608259  0.15142104  0.00125483  1
  H+  H330  1  0.56860594  0.41262139  0.77459220  1
  H+  H331  1  0.07885876  0.16389628  0.78291027  1
  H+  H332  1  0.62004045  0.22338401  0.33774461  1
  H+  H333  1  0.67639438  0.33608068  0.26382599  1
  H+  H334  1  0.42467000  0.59677348  0.26594901  1
  H+  H335  1  0.36287575  0.24496223  0.35247323  1
  H+  H336  1  0.14606466  0.27688133  0.82627359  1
  H+  H337  1  0.91995454  0.58464542  0.56237619  1
  H+  H338  1  0.59248232  0.42120949  0.40014718  1
  H+  H339  1  0.92258172  0.84352258  0.22874657  1
  H+  H340  1  0.84716051  0.09692727  0.81228123  1
  H+  H341  1  0.84444099  0.37872022  0.82550433  1
  H+  H342  1  0.82173269  0.12417164  0.38812068  1
  H+  H343  1  0.35042866  0.15777825  0.79056519  1
  H+  H344  1  0.29258817  0.40688430  0.83952061  1
  H+  H345  1  0.55884222  0.92089584  0.43489639  1
  H+  H346  1  0.32501866  0.77434755  0.30657684  1
  H+  H347  1  0.43830628  0.32245046  0.22113755  1
  H+  H348  1  0.88645593  0.27252806  0.65688337  1
  H+  H349  1  0.13417606  0.32942244  0.93744540  1
  H+  H350  1  0.67612729  0.83398875  0.22083570  1
  H+  H351  1  0.18899534  0.09626134  0.63204827  1
  H+  H352  1  0.84882927  0.92637450  0.42533083  1
  H+  H353  1  0.23909266  0.35334568  0.32706136  1
  H+  H354  1  0.93645456  0.08727993  0.59849398  1
  H+  H355  1  0.57237844  0.16332789  0.78225964  1
  H+  H356  1  0.57830560  0.18738276  0.08301962  1
  H+  H357  1  0.02538461  0.89073820  0.16074428  1
  H+  H358  1  0.07324593  0.67079632  0.73130975  1
  H+  H359  1  0.44610308  0.58897731  0.58954647  1
  H+  H360  1  0.61295764  0.72580676  0.15511353  1
  H+  H361  1  0.87865032  0.52199032  0.83612383  1
  H+  H362  1  0.68785162  0.58430475  0.62655023  1
  H+  H363  1  0.89969250  0.82775299  0.61063972  1
  H+  H364  1  0.82574554  0.41536113  0.76450089  1
  H+  H365  1  0.76826845  0.11580377  0.17546379  1
  H+  H366  1  0.68288557  0.33193210  0.55032949  1
  H+  H367  1  0.17196500  0.59156245  0.56136089  1
  H+  H368  1  0.79755179  0.24537862  0.86981947  1
  H+  H369  1  0.92143547  0.59859027  0.23512427  1
  H+  H370  1  0.67060505  0.58884449  0.89559438  1
  H+  H371  1  0.67942907  0.83621339  0.60660304  1
  H+  H372  1  0.16455977  0.08149251  0.90231986  1
  H+  H373  1  0.31713310  0.42561664  0.05280002  1
  H+  H374  1  0.07750722  0.67331633  0.10045757  1
  H+  H375  1  0.34677985  0.67673954  0.44891007  1
  H+  H376  1  0.86898251  0.98119611  0.16418446  1
  H+  H377  1  0.66153340  0.06633588  0.26516191  1
  H+  H378  1  0.07392960  0.92290638  0.77037298  1
  H+  H379  1  0.08402422  0.91812508  0.06462224  1
  H+  H380  1  0.67448942  0.59304019  0.23447193  1
  H+  H381  1  0.32987592  0.43113377  0.42727090  1
  H+  H382  1  0.39954054  0.32206389  0.63272178  1
  H+  H383  1  0.87922474  0.40150883  0.12758691  1
  O2-  O384  1  0.06971090  0.14971304  0.14596358  1
  O2-  O385  1  0.08211930  0.16472296  0.45180472  1
  O2-  O386  1  0.09568054  0.18132742  0.82551770  1
  O2-  O387  1  0.06935052  0.38407536  0.13438871  1
  O2-  O388  1  0.09515795  0.43405086  0.47597940  1
  O2-  O389  1  0.09367824  0.42738345  0.80990921  1
  O2-  O390  1  0.07579949  0.68110711  0.14554315  1
  O2-  O391  1  0.09322827  0.67404681  0.47648892  1
  O2-  O392  1  0.07295251  0.67117123  0.81533139  1
  O2-  O393  1  0.08675179  0.92093973  0.14612054  1
  O2-  O394  1  0.07678821  0.91063058  0.46561522  1
  O2-  O395  1  0.07448153  0.92368398  0.81599557  1
  O2-  O396  1  0.32885825  0.14437944  0.14406892  1
  O2-  O397  1  0.32595840  0.15751973  0.47624812  1
  O2-  O398  1  0.34101048  0.16189449  0.83458346  1
  O2-  O399  1  0.29092867  0.45625444  0.12218789  1
  O2-  O400  1  0.33114641  0.42130700  0.47091172  1
  O2-  O401  1  0.35431314  0.44047604  0.82916829  1
  O2-  O402  1  0.33854168  0.68102524  0.15540373  1
  O2-  O403  1  0.33576735  0.66989022  0.49266581  1
  O2-  O404  1  0.33202902  0.65027470  0.81426259  1
  O2-  O405  1  0.33626912  0.92034838  0.14440368  1
  O2-  O406  1  0.30621159  0.92942797  0.47229697  1
  O2-  O407  1  0.35169526  0.94797147  0.79390286  1
  O2-  O408  1  0.57672860  0.18576674  0.13025900  1
  O2-  O409  1  0.55442600  0.18260127  0.46995376  1
  O2-  O410  1  0.58102932  0.17630299  0.82629607  1
  O2-  O411  1  0.62022414  0.43907038  0.14674111  1
  O2-  O412  1  0.57844385  0.41382388  0.47837790  1
  O2-  O413  1  0.56460344  0.41724612  0.81905603  1
  O2-  O414  1  0.57884123  0.66389771  0.14164098  1
  O2-  O415  1  0.57654972  0.68453386  0.46861877  1
  O2-  O416  1  0.60320095  0.68581617  0.81422118  1
  O2-  O417  1  0.59453363  0.91615912  0.14447881  1
  O2-  O418  1  0.56273627  0.91911086  0.47916072  1
  O2-  O419  1  0.56247154  0.89827624  0.81210567  1
  O2-  O420  1  0.82838659  0.15310136  0.15865287  1
  O2-  O421  1  0.82362787  0.11579463  0.47565409  1
  O2-  O422  1  0.83668962  0.14462870  0.80348285  1
  O2-  O423  1  0.88643867  0.45026191  0.10214849  1
  O2-  O424  1  0.83595481  0.42537449  0.46440387  1
  O2-  O425  1  0.82691187  0.41957527  0.80981249  1
  O2-  O426  1  0.83869994  0.67566541  0.15709174  1
  O2-  O427  1  0.86433801  0.68202385  0.46940010  1
  O2-  O428  1  0.84059666  0.67910750  0.82223485  1
  O2-  O429  1  0.84293853  0.92297547  0.14425980  1
  O2-  O430  1  0.85172104  0.92816897  0.47093618  1
  O2-  O431  1  0.84006072  0.98286417  0.80690148  1
  O2-  O432  1  0.17763668  0.06958060  0.19131997  1
  O2-  O433  1  0.16652887  0.09365287  0.49422935  1
  O2-  O434  1  0.16699469  0.08210352  0.85652785  1
  O2-  O435  1  0.15959388  0.31806530  0.18564716  1
  O2-  O436  1  0.15805055  0.33378590  0.49350399  1
  O2-  O437  1  0.17911938  0.34382306  0.82026332  1
  O2-  O438  1  0.16496646  0.60911611  0.18710205  1
  O2-  O439  1  0.17577315  0.59123286  0.51634744  1
  O2-  O440  1  0.13047213  0.57327104  0.87280826  1
  O2-  O441  1  0.17252202  0.84520255  0.18835004  1
  O2-  O442  1  0.15661529  0.83674088  0.52375101  1
  O2-  O443  1  0.17131246  0.84620544  0.82801928  1
  O2-  O444  1  0.42382384  0.08417813  0.18655403  1
  O2-  O445  1  0.38074031  -0.01437585  0.51156872  1
  O2-  O446  1  0.43090314  0.09710157  0.89710969  1
  O2-  O447  1  0.45073008  0.31262661  0.17979428  1
  O2-  O448  1  0.40851958  0.32689200  0.47255627  1
  O2-  O449  1  0.40854718  0.33176267  0.86140856  1
  O2-  O450  1  0.41793410  0.59307631  0.19362106  1
  O2-  O451  1  0.42352656  0.60254752  0.51821536  1
  O2-  O452  1  0.43722147  0.60336621  0.86445965  1
  O2-  O453  1  0.42179343  0.84746666  0.18975167  1
  O2-  O454  1  0.40787574  0.82383792  0.52525968  1
  O2-  O455  1  0.44470915  0.90598516  0.87236679  1
  O2-  O456  1  0.67041842  0.05687218  0.20288393  1
  O2-  O457  1  0.67050253  0.06098738  0.52599488  1
  O2-  O458  1  0.71399608  0.15428098  0.87403848  1
  O2-  O459  1  0.67949362  0.33912732  0.19585834  1
  O2-  O460  1  0.66988579  0.33597491  0.50779675  1
  O2-  O461  1  0.67358275  0.33943093  0.87394555  1
  O2-  O462  1  0.67806703  0.59640868  0.18916356  1
  O2-  O463  1  0.61396928  0.56690165  0.53290228  1
  O2-  O464  1  0.67797831  0.59469448  0.85054073  1
  O2-  O465  1  0.67220562  0.82924383  0.17567819  1
  O2-  O466  1  0.70471564  0.81774843  0.53285193  1
  O2-  O467  1  0.68090491  0.85365583  0.85832035  1
  O2-  O468  1  0.92070797  0.08081093  0.19859290  1
  O2-  O469  1  0.94338944  0.08344014  0.51874254  1
  O2-  O470  1  0.91558921  -0.00207503  0.83397898  1
  O2-  O471  1  0.89456947  0.32907844  0.17962568  1
  O2-  O472  1  0.92870848  0.36485162  0.52395890  1
  O2-  O473  1  0.85874360  0.29581363  0.86153062  1
  O2-  O474  1  0.92003628  0.60788685  0.18930816  1
  O2-  O475  1  0.92711297  0.59121417  0.51593938  1
  O2-  O476  1  0.90743082  0.58116737  0.85477559  1
  O2-  O477  1  0.92110196  0.83988652  0.18297451  1
  O2-  O478  1  0.86184069  0.80866141  0.53930962  1
  O2-  O479  1  0.92353590  0.84112498  0.85528979  1
  O2-  O480  1  0.16711541  0.07545544  0.30928638  1
  O2-  O481  1  0.17299386  0.08411925  0.67461735  1
  O2-  O482  1  0.16358623  0.08521374  0.97820069  1
  O2-  O483  1  0.14590692  0.31770403  0.31337774  1
  O2-  O484  1  0.18181161  0.34659981  0.66880135  1
  O2-  O485  1  0.13960747  0.33056090  0.98149098  1
  O2-  O486  1  0.09022438  0.55059387  0.28795136  1
  O2-  O487  1  0.16115569  0.59040278  0.64370437  1
  O2-  O488  1  0.18354027  0.58532764  0.99596945  1
  O2-  O489  1  0.17106724  0.83598776  0.31064529  1
  O2-  O490  1  0.15191676  0.83428958  0.64427284  1
  O2-  O491  1  0.17263838  0.82819967  0.98935455  1
  O2-  O492  1  0.42027445  0.09342291  0.31114841  1
  O2-  O493  1  0.43811366  0.09551512  0.63157027  1
  O2-  O494  1  0.43305219  0.10879157  0.96318814  1
  O2-  O495  1  0.39094012  0.31161070  0.35819573  1
  O2-  O496  1  0.43595252  0.29646731  0.63587824  1
  O2-  O497  1  0.41527442  0.33313134  0.98557449  1
  O2-  O498  1  0.43373694  0.60224159  0.31193639  1
  O2-  O499  1  0.46608897  0.57333693  0.62766755  1
  O2-  O500  1  0.43029983  0.60961043  0.97925823  1
  O2-  O501  1  0.38113551  0.82463630  0.31409014  1
  O2-  O502  1  0.42276652  0.81942291  0.64472893  1
  O2-  O503  1  0.41496059  0.83913618  0.98712611  1
  O2-  O504  1  0.65648351  0.07658678  0.31383124  1
  O2-  O505  1  0.66995654  0.07831283  0.65118043  1
  O2-  O506  1  0.67149982  0.11289036  0.98477823  1
  O2-  O507  1  0.67902722  0.33725503  0.31148141  1
  O2-  O508  1  0.64935515  0.30876590  0.66067083  1
  O2-  O509  1  0.72571084  0.36057093  0.98186746  1
  O2-  O510  1  0.68078889  0.59467697  0.31391629  1
  O2-  O511  1  0.68519897  0.59048599  0.67037165  1
  O2-  O512  1  0.66199339  0.58184244  0.97458003  1
  O2-  O513  1  0.68798701  0.84603348  0.30036859  1
  O2-  O514  1  0.67581882  0.83808128  0.65167612  1
  O2-  O515  1  0.66546043  0.83592966  0.98208634  1
  O2-  O516  1  0.96308295  0.09450362  0.31660716  1
  O2-  O517  1  0.93126416  0.09099486  0.64335986  1
  O2-  O518  1  0.89987167  0.07991110  0.98388819  1
  O2-  O519  1  0.90901133  0.31499979  0.33890131  1
  O2-  O520  1  0.91320387  0.33392281  0.64295028  1
  O2-  O521  1  0.90391290  0.32382211  0.98010553  1
  O2-  O522  1  0.91753725  0.58535484  0.30723434  1
  O2-  O523  1  0.90917528  0.57819705  0.63336987  1
  O2-  O524  1  0.91019478  0.55625633  0.97506701  1
  O2-  O525  1  0.92703114  0.84256214  0.30418806  1
  O2-  O526  1  0.90958655  0.83354157  0.65593033  1
  O2-  O527  1  0.91948149  0.86171916  0.97153419  1
  O2-  O528  1  0.07067264  0.16126823  0.02176803  1
  O2-  O529  1  0.05640610  0.14232641  0.32935762  1
  O2-  O530  1  0.08434852  0.16260783  0.69873481  1
  O2-  O531  1  0.06882272  0.43225230  0.02275678  1
  O2-  O532  1  0.07560191  0.40795107  0.35109230  1
  O2-  O533  1  0.07779610  0.42148285  0.68501749  1
  O2-  O534  1  0.08505150  0.65719064  0.02394539  1
  O2-  O535  1  0.07465335  0.66992023  0.35477722  1
  O2-  O536  1  0.07337039  0.66853733  0.68626519  1
  O2-  O537  1  0.08658378  0.91689841  0.01949297  1
  O2-  O538  1  0.08893068  0.91930175  0.34800497  1
  O2-  O539  1  0.07213614  0.91229496  0.69285394  1
  O2-  O540  1  0.33008483  0.16039258  0.01632881  1
  O2-  O541  1  0.32594601  0.15019009  0.35813822  1
  O2-  O542  1  0.35019449  0.14973094  0.70581300  1
  O2-  O543  1  0.32092090  0.40582625  0.01127293  1
  O2-  O544  1  0.30609291  0.38411596  0.33133431  1
  O2-  O545  1  0.31785009  0.48648351  0.71310197  1
  O2-  O546  1  0.34639182  0.67538427  0.03014296  1
  O2-  O547  1  0.44477663  0.73532162  0.38133747  1
  O2-  O548  1  0.32014511  0.64942914  0.69302689  1
  O2-  O549  1  0.32319732  0.90262491  0.02649999  1
  O2-  O550  1  0.33284340  0.92609606  0.35950800  1
  O2-  O551  1  0.30404926  0.86269389  0.69238874  1
  O2-  O552  1  0.59025614  0.18595556  0.01292686  1
  O2-  O553  1  0.58330268  0.16413359  0.35303039  1
  O2-  O554  1  0.58050173  0.15153521  0.69966152  1
  O2-  O555  1  0.57820379  0.41638047  0.03315570  1
  O2-  O556  1  0.59563398  0.42213295  0.35469243  1
  O2-  O557  1  0.58309097  0.40993806  0.69514872  1
  O2-  O558  1  0.58370319  0.67109957  0.01830326  1
  O2-  O559  1  0.60146527  0.68164727  0.34727522  1
  O2-  O560  1  0.60541884  0.67509383  0.69025512  1
  O2-  O561  1  0.57593138  0.92129774  0.02183431  1
  O2-  O562  1  0.56981422  0.88798836  0.34671939  1
  O2-  O563  1  0.58554021  0.90986034  0.68745012  1
  O2-  O564  1  0.81921557  0.15787810  0.03378072  1
  O2-  O565  1  0.82428913  0.14639117  0.34708880  1
  O2-  O566  1  0.84027692  0.16863157  0.68175061  1
  O2-  O567  1  0.81626633  0.39719450  -0.03401945  1
  O2-  O568  1  0.83028257  0.42653773  0.34525545  1
  O2-  O569  1  0.82572951  0.41237795  0.68484716  1
  O2-  O570  1  0.84859674  0.65008327  0.03305020  1
  O2-  O571  1  0.84887469  0.67698323  0.34546070  1
  O2-  O572  1  0.84377128  0.68968442  0.70628218  1
  O2-  O573  1  0.83496946  0.92623489  0.01782381  1
  O2-  O574  1  0.85005694  0.92645944  0.34849211  1
  O2-  O575  1  0.83762465  0.93272881  0.69064982  1
