# generated using pymatgen
data_H2O
_symmetry_space_group_name_H-M   'P 1'
_cell_length_a   17.99389241
_cell_length_b   17.99795721
_cell_length_c   22.00799794
_cell_angle_alpha   89.99813242
_cell_angle_beta   89.99273115
_cell_angle_gamma   119.99011413
_symmetry_Int_Tables_number   1
_chemical_formula_structural   H2O
_chemical_formula_sum   'H384 O192'
_cell_volume   6173.09202105
_cell_formula_units_Z   192
loop_
 _symmetry_equiv_pos_site_id
 _symmetry_equiv_pos_as_xyz
  1  'x, y, z'
loop_
 _atom_type_symbol
 _atom_type_oxidation_number
  H+  1.0
  O2-  -2.0
loop_
 _atom_site_type_symbol
 _atom_site_label
 _atom_site_symmetry_multiplicity
 _atom_site_fract_x
 _atom_site_fract_y
 _atom_site_fract_z
 _atom_site_occupancy
  H+  H0  1  0.72835582  0.10977331  0.65939564  1
  H+  H1  1  0.59583165  0.37337190  0.67512517  1
  H+  H2  1  0.87373817  0.71190976  0.29427782  1
  H+  H3  1  0.60793259  0.15353654  0.99807911  1
  H+  H4  1  0.86068039  0.21819342  0.15020443  1
  H+  H5  1  0.77430690  0.38738968  0.00559529  1
  H+  H6  1  0.34977560  0.07811784  0.82856006  1
  H+  H7  1  0.79336689  0.89749936  0.82193516  1
  H+  H8  1  0.62527968  0.13941022  0.67103968  1
  H+  H9  1  0.38054439  0.52041031  0.32633663  1
  H+  H10  1  0.76104378  0.12946548  0.48542313  1
  H+  H11  1  0.14649585  0.52724844  0.84069679  1
  H+  H12  1  0.11901988  0.88553667  0.34157356  1
  H+  H13  1  0.51701987  0.64018974  0.81222644  1
  H+  H14  1  0.27441162  0.46137810  0.78754771  1
  H+  H15  1  0.20901931  0.84051227  0.70773358  1
  H+  H16  1  0.36432222  0.64178961  0.00542627  1
  H+  H17  1  0.14693401  1.02608797  0.17846500  1
  H+  H18  1  0.36642454  0.13621133  0.33342331  1
  H+  H19  1  0.11493597  0.39275980  0.00249634  1
  H+  H20  1  0.22525844  0.37691753  0.16586107  1
  H+  H21  1  0.47706413  0.36725340  0.64580688  1
  H+  H22  1  0.38025760  0.51935960  0.17424391  1
  H+  H23  1  0.14378178  0.77605585  0.99460507  1
  H+  H24  1  0.37971638  0.13311933  1.00624306  1
  H+  H25  1  0.22686704  0.35181738  0.84282507  1
  H+  H26  1  0.38671365  0.52239447  0.99678258  1
  H+  H27  1  0.63783196  0.64999437  0.17994792  1
  H+  H28  1  0.71856622  0.61495462  -0.01709580  1
  H+  H29  1  0.52926587  0.39093079  0.01801490  1
  H+  H30  1  0.10634596  0.96104272  0.02251556  1
  H+  H31  1  0.45221983  0.86239925  0.97562475  1
  H+  H32  1  0.14868848  0.28163575  0.32781844  1
  H+  H33  1  0.61538400  0.13013565  0.15489095  1
  H+  H34  1  0.35736867  0.63247641  0.16123623  1
  H+  H35  1  0.60686755  0.46386169  0.35254056  1
  H+  H36  1  0.14514295  0.87263647  0.48352125  1
  H+  H37  1  0.08336346  0.66563586  0.42607465  1
  H+  H38  1  0.90014789  0.88100523  1.00348445  1
  H+  H39  1  0.62418454  0.14226597  0.33680716  1
  H+  H40  1  0.12657073  0.86088912  0.84540066  1
  H+  H41  1  0.60559278  0.46372231  0.66723581  1
  H+  H42  1  0.58274966  0.15344315  0.43036677  1
  H+  H43  1  0.86145121  0.65231584  0.67774242  1
  H+  H44  1  0.04703154  0.87872031  0.18762402  1
  H+  H45  1  0.37433549  0.99256913  0.00957345  1
  H+  H46  1  0.92826236  1.00803029  0.51436870  1
  H+  H47  1  0.58876585  0.87139874  0.49026226  1
  H+  H48  1  0.14569947  0.28833029  1.00107906  1
  H+  H49  1  0.85127636  0.38369311  0.46780972  1
  H+  H50  1  0.59821253  0.12706394  0.82634131  1
  H+  H51  1  0.03525354  0.12187079  0.82722948  1
  H+  H52  1  0.47959607  0.85090825  0.32871854  1
  H+  H53  1  0.03039406  0.89405207  0.49166520  1
  H+  H54  1  0.14200294  0.11547859  0.32625871  1
  H+  H55  1  0.91277021  0.01424364  0.34163297  1
  H+  H56  1  0.11704347  0.64106742  0.00334411  1
  H+  H57  1  0.88845962  0.87332335  0.66584274  1
  H+  H58  1  0.29285810  0.14042587  0.00411399  1
  H+  H59  1  0.81564001  0.61032680  0.80861615  1
  H+  H60  1  0.02477086  0.38485985  0.33160630  1
  H+  H61  1  0.93109026  0.84886510  0.11502314  1
  H+  H62  1  0.60346803  0.51417154  0.27404908  1
  H+  H63  1  0.37864161  0.27371029  0.17578810  1
  H+  H64  1  0.04584168  0.14931023  0.64250525  1
  H+  H65  1  0.78265758  0.40383971  0.83795612  1
  H+  H66  1  0.10953211  0.63825917  0.15656325  1
  H+  H67  1  0.87052409  0.14223838  0.68243948  1
  H+  H68  1  0.97338340  0.61142222  0.16397215  1
  H+  H69  1  0.33654991  0.42208965  0.10413932  1
  H+  H70  1  0.14684585  0.77247275  0.17546390  1
  H+  H71  1  0.13483853  0.52274414  0.49733695  1
  H+  H72  1  0.36365149  0.64253216  0.66016840  1
  H+  H73  1  0.64525293  0.27902855  0.66777326  1
  H+  H74  1  0.59737449  0.72985425  0.49805078  1
  H+  H75  1  0.50692651  0.13353097  1.00391184  1
  H+  H76  1  0.12110009  0.48269546  0.66981260  1
  H+  H77  1  0.86839074  0.49826402  0.83482945  1
  H+  H78  1  0.67352247  0.34580330  0.61229224  1
  H+  H79  1  0.33229641  0.21889954  0.62166727  1
  H+  H80  1  0.62824664  0.09856845  0.50018938  1
  H+  H81  1  0.27907976  0.13929350  0.33233716  1
  H+  H82  1  0.13854641  0.61631721  0.32665056  1
  H+  H83  1  0.35443090  0.73503216  0.48629978  1
  H+  H84  1  0.74910637  0.82336491  0.33242906  1
  H+  H85  1  -0.01189705  0.61782923  0.84004207  1
  H+  H86  1  0.88156949  0.25789862  0.33366984  1
  H+  H87  1  0.86185842  0.46998286  0.15521320  1
  H+  H88  1  0.73174521  0.63769826  0.82150848  1
  H+  H89  1  0.47413542  0.10386643  0.32851448  1
  H+  H90  1  0.88399059  0.78166750  0.66645413  1
  H+  H91  1  0.47483506  0.61139882  -0.00613753  1
  H+  H92  1  0.77937400  0.63309893  0.30604334  1
  H+  H93  1  0.11567679  0.64098325  0.48758084  1
  H+  H94  1  0.07325723  0.89481934  0.77998767  1
  H+  H95  1  0.59146741  0.60083627  0.05902529  1
  H+  H96  1  0.14977628  0.25556050  0.84795970  1
  H+  H97  1  1.01773914  0.62500356  0.67442273  1
  H+  H98  1  0.89112520  0.85248605  0.84527762  1
  H+  H99  1  0.13867332  0.86158278  1.00137722  1
  H+  H100  1  0.81109068  0.90705397  1.00048731  1
  H+  H101  1  0.89408488  0.37341862  0.83924126  1
  H+  H102  1  0.85874246  0.47465029  0.48067368  1
  H+  H103  1  0.62466663  0.58819256  0.96593673  1
  H+  H104  1  0.64963875  0.03515039  0.17881682  1
  H+  H105  1  0.13091878  0.23860075  0.63445405  1
  H+  H106  1  0.66325329  0.78065627  0.96622403  1
  H+  H107  1  0.11788434  0.15121579  1.01544871  1
  H+  H108  1  0.15065474  0.37329615  0.49315853  1
  H+  H109  1  0.23691202  0.09983550  0.85221184  1
  H+  H110  1  0.29926657  0.95514077  0.68035942  1
  H+  H111  1  0.91092114  0.33588941  0.63652773  1
  H+  H112  1  0.93578853  0.01833361  0.48096100  1
  H+  H113  1  0.10884876  0.12689792  0.78111070  1
  H+  H114  1  0.61060652  0.44286385  0.11659847  1
  H+  H115  1  0.39741401  0.12436729  0.50433511  1
  H+  H116  1  0.63115534  0.78203350  0.17924978  1
  H+  H117  1  0.35712811  0.38585014  0.16586834  1
  H+  H118  1  0.89478761  0.60475968  0.31119334  1
  H+  H119  1  0.64279541  0.25891161  0.16670759  1
  H+  H120  1  0.39734930  0.40604635  0.86247470  1
  H+  H121  1  0.78393159  0.91256491  0.69006579  1
  H+  H122  1  0.10428718  0.71076933  0.69238097  1
  H+  H123  1  0.66833200  0.86469691  0.99235258  1
  H+  H124  1  0.83100010  0.43338450  0.74381498  1
  H+  H125  1  0.13496900  0.52361131  0.99190471  1
  H+  H126  1  0.46843384  0.86760102  0.49994336  1
  H+  H127  1  0.46534824  0.61310066  0.49750490  1
  H+  H128  1  0.27037219  0.89360819  0.48264867  1
  H+  H129  1  0.63678196  0.36762666  -0.00176558  1
  H+  H130  1  0.91859524  0.33687598  0.89701104  1
  H+  H131  1  0.90028218  0.04120016  0.66353646  1
  H+  H132  1  0.38046063  0.75830107  0.32207459  1
  H+  H133  1  0.88975699  0.96586387  0.34400497  1
  H+  H134  1  0.03770367  0.15885648  0.33539473  1
  H+  H135  1  0.83431078  0.92848749  0.09044166  1
  H+  H136  1  0.86070954  0.22541103  0.69236141  1
  H+  H137  1  0.22559373  0.61980728  0.17105804  1
  H+  H138  1  0.59199622  0.92640887  0.01225707  1
  H+  H139  1  0.28238256  0.90183626  0.01403370  1
  H+  H140  1  0.71263255  0.84035277  0.62545171  1
  H+  H141  1  0.38452422  0.52976899  0.83590186  1
  H+  H142  1  0.63799780  0.02158054  0.65528650  1
  H+  H143  1  0.87920558  0.75832867  0.84450042  1
  H+  H144  1  0.03255487  0.39619712  0.68453075  1
  H+  H145  1  0.16158830  0.03543928  0.50341667  1
  H+  H146  1  0.10905818  0.48635492  0.15368908  1
  H+  H147  1  0.27466355  0.63541384  0.82307241  1
  H+  H148  1  0.97371108  0.35962086  0.98936210  1
  H+  H149  1  0.85084809  0.61931024  0.52892417  1
  H+  H150  1  0.59979626  0.96653926  0.48751135  1
  H+  H151  1  0.37828266  0.27890132  0.81199525  1
  H+  H152  1  0.33515441  0.86710339  0.32309449  1
  H+  H153  1  0.02330357  0.38678836  0.47199111  1
  H+  H154  1  0.22865901  0.86769939  0.84353228  1
  H+  H155  1  0.35310706  0.96997595  0.82894810  1
  H+  H156  1  0.97634992  0.36418338  0.17180824  1
  H+  H157  1  0.61355229  0.60466592  0.50597753  1
  H+  H158  1  0.77605132  0.37578089  0.15474951  1
  H+  H159  1  0.88941410  0.76975807  0.52628109  1
  H+  H160  1  0.35596133  0.72729395  1.00546739  1
  H+  H161  1  0.60918506  0.73927480  0.32676835  1
  H+  H162  1  0.38969947  0.26846963  0.32859032  1
  H+  H163  1  0.77402345  0.63946225  0.16231301  1
  H+  H164  1  0.97736405  0.21235145  0.27772498  1
  H+  H165  1  0.33339477  0.66968304  0.72217125  1
  H+  H166  1  0.92919275  0.08520041  0.90431233  1
  H+  H167  1  0.33159145  0.66711371  0.39400662  1
  H+  H168  1  0.66436775  0.07367518  0.55946467  1
  H+  H169  1  0.68727612  0.98632707  0.03083823  1
  H+  H170  1  0.56124789  0.42355327  0.76729491  1
  H+  H171  1  0.49156043  0.42032124  0.85559255  1
  H+  H172  1  0.36232734  0.63183262  0.33656631  1
  H+  H173  1  0.07335290  0.63525554  0.76664737  1
  H+  H174  1  0.61035668  0.49953721  0.81453024  1
  H+  H175  1  0.62004452  0.89342081  0.17944382  1
  H+  H176  1  0.87806996  0.52736269  0.66913204  1
  H+  H177  1  1.02209967  0.89253246  0.68477014  1
  H+  H178  1  0.06410138  0.03007008  0.97150870  1
  H+  H179  1  0.86121889  0.22259329  0.83142360  1
  H+  H180  1  0.14593201  0.37466244  0.64882853  1
  H+  H181  1  0.20917774  0.08920593  0.75142402  1
  H+  H182  1  0.37145116  0.87081822  0.99605460  1
  H+  H183  1  0.32492349  0.15645037  0.78578755  1
  H+  H184  1  0.88606668  0.97988059  0.83045404  1
  H+  H185  1  0.16324185  0.86602208  0.18263050  1
  H+  H186  1  0.89292855  0.15281251  0.51188465  1
  H+  H187  1  0.31576528  0.40969608  0.75861148  1
  H+  H188  1  0.27334028  0.38683969  0.34242504  1
  H+  H189  1  0.71912067  0.28037469  0.87650199  1
  H+  H190  1  0.13791024  0.60897254  0.65360882  1
  H+  H191  1  0.76960153  0.39426166  0.68430024  1
  H+  H192  1  0.39266466  0.76759288  0.17535174  1
  H+  H193  1  0.89532167  0.11078762  0.84533783  1
  H+  H194  1  0.69510275  0.59270193  0.51169638  1
  H+  H195  1  0.44946893  0.09769320  0.83401966  1
  H+  H196  1  0.87749665  0.02677782  0.16887657  1
  H+  H197  1  0.60418410  0.58964452  0.31998175  1
  H+  H198  1  0.90580952  0.32538503  0.41058506  1
  H+  H199  1  0.22555535  0.61195019  0.99583642  1
  H+  H200  1  0.11218007  0.62191163  0.82885639  1
  H+  H201  1  0.72597250  0.60565895  0.66163900  1
  H+  H202  1  0.10700075  0.97949272  0.70815421  1
  H+  H203  1  0.63319640  0.36520809  0.52026969  1
  H+  H204  1  0.60722386  0.64599554  0.80848880  1
  H+  H205  1  0.12215686  0.73583681  0.34189009  1
  H+  H206  1  0.61259700  0.22455831  0.33806720  1
  H+  H207  1  0.22491578  0.61108404  0.32282761  1
  H+  H208  1  0.13876327  0.11122685  0.17414979  1
  H+  H209  1  0.72051967  0.11167409  0.84075514  1
  H+  H210  1  0.72402648  0.86824539  0.17353809  1
  H+  H211  1  0.90494003  0.02584625  1.00025509  1
  H+  H212  1  0.84539754  0.88662153  0.14974876  1
  H+  H213  1  0.14687208  0.78318157  0.48204605  1
  H+  H214  1  0.59788567  0.21385959  0.82714637  1
  H+  H215  1  0.63399109  0.06293305  1.00895700  1
  H+  H216  1  0.86416828  0.38049179  0.33182419  1
  H+  H217  1  0.67150305  0.68477376  0.04035307  1
  H+  H218  1  0.03542736  0.39998573  0.82615688  1
  H+  H219  1  0.73833081  0.12688942  0.99930304  1
  H+  H220  1  0.01785939  0.12644720  0.16216473  1
  H+  H221  1  0.64901193  0.81274091  0.27468707  1
  H+  H222  1  0.62816394  0.27458481  0.99953964  1
  H+  H223  1  0.87295743  0.76317040  0.15004123  1
  H+  H224  1  0.16168185  0.33979440  0.22081446  1
  H+  H225  1  0.35045799  0.36065913  0.67728356  1
  H+  H226  1  0.14216720  0.14911080  0.49944171  1
  H+  H227  1  1.00546676  0.85562924  0.29677979  1
  H+  H228  1  0.51847014  0.37502126  0.34790988  1
  H+  H229  1  0.27957516  0.13750266  0.15882705  1
  H+  H230  1  0.46652524  0.61816693  0.64775922  1
  H+  H231  1  0.27777941  0.39410538  1.00844205  1
  H+  H232  1  0.41576643  0.04209243  0.65798136  1
  H+  H233  1  0.10409886  0.17668544  0.55098352  1
  H+  H234  1  0.02791178  0.64193220  0.00388887  1
  H+  H235  1  0.50204144  0.64021907  0.17070809  1
  H+  H236  1  0.91388465  0.64400197  0.84321718  1
  H+  H237  1  0.72351992  0.37058656  0.51310954  1
  H+  H238  1  0.38067198  0.61868270  0.49595777  1
  H+  H239  1  0.16515250  0.12589669  0.86457906  1
  H+  H240  1  0.89364225  0.11091497  0.99715954  1
  H+  H241  1  0.38781974  0.10871656  0.17093345  1
  H+  H242  1  0.47427908  0.32531384  0.50201716  1
  H+  H243  1  0.12582793  0.85018317  0.70625456  1
  H+  H244  1  0.49857306  0.13231008  0.65478530  1
  H+  H245  1  0.37216894  0.76376404  0.83154642  1
  H+  H246  1  0.48322648  0.85897400  0.18083950  1
  H+  H247  1  0.36730739  0.89653345  0.49526722  1
  H+  H248  1  0.59812922  0.68427134  0.43601014  1
  H+  H249  1  0.08275233  0.92249175  0.42865235  1
  H+  H250  1  0.58775656  0.85489692  0.34202133  1
  H+  H251  1  0.63706900  0.36126177  0.32538463  1
  H+  H252  1  0.14498987  0.36848286  0.32310610  1
  H+  H253  1  0.56938172  0.66179064  0.71215031  1
  H+  H254  1  0.47447083  0.60432254  0.32040244  1
  H+  H255  1  0.54289557  0.60335051  0.38284196  1
  H+  H256  1  0.36607550  0.64031438  0.82253448  1
  H+  H257  1  0.26783942  0.64310355  0.48604891  1
  H+  H258  1  0.16236687  0.29199799  0.50264772  1
  H+  H259  1  0.39599063  0.27832054  -0.00070199  1
  H+  H260  1  0.85816697  0.21700230  0.00734502  1
  H+  H261  1  0.11881321  0.97585888  0.33591698  1
  H+  H262  1  0.37224231  0.36165740  0.55518627  1
  H+  H263  1  0.39093949  0.35888397  0.33482354  1
  H+  H264  1  0.61393824  0.89037209  0.65762856  1
  H+  H265  1  0.83214299  0.74374722  0.01466189  1
  H+  H266  1  0.52171351  0.12225497  0.48872169  1
  H+  H267  1  -0.00661679  0.61426285  0.50399788  1
  H+  H268  1  0.40448218  0.57769238  0.23562732  1
  H+  H269  1  0.89637068  0.52918286  -0.00642425  1
  H+  H270  1  0.65461683  0.87637034  0.83144188  1
  H+  H271  1  0.83896082  0.84862575  0.49431472  1
  H+  H272  1  0.58083297  0.45586194  0.49977943  1
  H+  H273  1  0.79607101  0.63122149  0.57883061  1
  H+  H274  1  0.36646739  0.39120442  1.01336787  1
  H+  H275  1  0.68716940  0.84247088  0.50095521  1
  H+  H276  1  0.87042729  0.26924868  0.46865420  1
  H+  H277  1  0.37358670  0.26113154  0.84370911  1
  H+  H278  1  0.88246162  0.37174862  0.69095009  1
  H+  H279  1  0.38115594  0.86527880  0.65620539  1
  H+  H280  1  0.51399380  0.87758491  0.83811095  1
  H+  H281  1  1.01307864  0.85747206  0.84008353  1
  H+  H282  1  0.72643472  0.36347117  0.31761252  1
  H+  H283  1  0.02048321  0.87243954  0.02005676  1
  H+  H284  1  0.61885379  0.47388558  1.00268868  1
  H+  H285  1  0.74074327  0.12171746  0.16329217  1
  H+  H286  1  0.87184114  0.15539837  0.34008121  1
  H+  H287  1  0.32949657  0.41833133  0.40320000  1
  H+  H288  1  0.16182506  0.81876512  0.60125855  1
  H+  H289  1  0.83692073  0.41479865  0.06273527  1
  H+  H290  1  0.33319088  0.66736612  0.10125091  1
  H+  H291  1  0.17897630  0.12014911  0.69183006  1
  H+  H292  1  0.58884798  0.16442276  0.73061346  1
  H+  H293  1  0.55935580  0.89594981  0.39710969  1
  H+  H294  1  0.18438579  0.35848059  0.58580049  1
  H+  H295  1  0.91279458  0.58718329  0.60991360  1
  H+  H296  1  0.87703836  0.72511499  0.40102692  1
  H+  H297  1  0.83025137  0.15821014  0.77537012  1
  H+  H298  1  0.33120864  0.92616904  0.73941298  1
  H+  H299  1  0.57704492  0.15704209  0.09718327  1
  H+  H300  1  0.16493919  0.58901582  0.22991205  1
  H+  H301  1  0.41579195  0.58386590  0.89790767  1
  H+  H302  1  0.92038708  0.84296577  0.57408204  1
  H+  H303  1  0.11347186  0.47730240  0.32912013  1
  H+  H304  1  0.42907466  0.35765410  0.95032014  1
  H+  H305  1  0.23055383  0.61529744  0.65233794  1
  H+  H306  1  0.08434777  0.90444388  0.11928024  1
  H+  H307  1  0.92620882  0.59384670  0.93790297  1
  H+  H308  1  0.89011003  0.75867653  0.42543382  1
  H+  H309  1  0.63808272  0.51988219  0.16114696  1
  H+  H310  1  0.68663726  0.10846833  0.26587553  1
  H+  H311  1  0.67385412  0.59518986  0.88051427  1
  H+  H312  1  0.59766717  0.92263147  0.11844391  1
  H+  H313  1  0.17671290  0.58827182  0.90042669  1
  H+  H314  1  0.74343015  0.13621062  0.32639994  1
  H+  H315  1  0.63808082  0.82379058  0.57386772  1
  H+  H316  1  0.19530247  0.86506518  0.60446129  1
  H+  H317  1  0.41383090  0.07955427  0.94329116  1
  H+  H318  1  0.91902012  0.83138274  0.94655472  1
  H+  H319  1  0.17119885  0.08783413  0.26540386  1
  H+  H320  1  0.38577595  0.81901418  0.89242585  1
  H+  H321  1  0.95273420  0.53418676  0.54787627  1
  H+  H322  1  0.87794114  0.11726370  0.16050112  1
  H+  H323  1  0.40900398  0.83868542  0.56078793  1
  H+  H324  1  0.66343385  0.08877072  0.90006608  1
  H+  H325  1  0.08393642  0.67052813  0.09664364  1
  H+  H326  1  0.56621157  0.67760205  0.11268457  1
  H+  H327  1  0.40296209  0.58804258  0.59073206  1
  H+  H328  1  0.69968019  0.86073617  0.88626785  1
  H+  H329  1  0.93961599  0.31842597  0.56394962  1
  H+  H330  1  0.52735417  0.89275087  0.66218068  1
  H+  H331  1  0.38048611  0.77590395  0.65433768  1
  H+  H332  1  0.88464513  0.35886372  0.99066644  1
  H+  H333  1  0.40703448  0.33132476  0.23574135  1
  H+  H334  1  0.82810557  0.16040961  0.07355104  1
  H+  H335  1  0.82876539  0.67884565  0.73813125  1
  H+  H336  1  0.88667851  0.35951627  0.17242439  1
  H+  H337  1  0.41673523  0.07635772  0.26911196  1
  H+  H338  1  0.34810765  0.95115094  0.11516563  1
  H+  H339  1  0.42173276  0.09099961  0.56594738  1
  H+  H340  1  0.82807382  0.41566186  0.38529369  1
  H+  H341  1  0.34223926  0.16804648  0.10061073  1
  H+  H342  1  0.65854080  0.57093226  0.60507218  1
  H+  H343  1  0.34977756  0.87658587  0.82321352  1
  H+  H344  1  0.85757484  0.62733957  0.15572316  1
  H+  H345  1  0.09813629  0.43125484  0.76899182  1
  H+  H346  1  0.82516187  0.16417744  0.42501489  1
  H+  H347  1  0.33779503  0.95482003  0.33165310  1
  H+  H348  1  0.17203810  0.82428309  0.28100225  1
  H+  H349  1  0.79878975  0.67319079  0.06736886  1
  H+  H350  1  0.11309376  0.39952868  0.15288051  1
  H+  H351  1  0.32901724  0.13405618  0.63866567  1
  H+  H352  1  0.80531195  0.82379293  0.38485910  1
  H+  H353  1  0.93595500  0.84211175  0.24624239  1
  H+  H354  1  0.08752070  0.17135961  0.11083699  1
  H+  H355  1  0.92372412  0.11075995  0.60834956  1
  H+  H356  1  0.89763210  0.51765036  0.31696327  1
  H+  H357  1  0.08025231  0.42180948  0.06002446  1
  H+  H358  1  0.41842912  0.82064181  0.25708884  1
  H+  H359  1  0.03126489  0.15243656  0.01213904  1
  H+  H360  1  0.98569926  0.15958538  0.51695678  1
  H+  H361  1  0.67490994  0.32349565  0.91157837  1
  H+  H362  1  0.93751967  0.12113883  0.24768177  1
  H+  H363  1  0.67111758  0.32426089  0.22224763  1
  H+  H364  1  0.15887932  0.07311864  0.94439789  1
  H+  H365  1  0.03421328  0.63745681  0.33762804  1
  H+  H366  1  0.08404327  0.17106868  0.40038666  1
  H+  H367  1  0.26146723  0.36055016  0.67256859  1
  H+  H368  1  0.22468026  0.10901143  0.54927164  1
  H+  H369  1  0.85366356  0.93286939  0.74125335  1
  H+  H370  1  0.17631686  0.33623464  0.93780613  1
  H+  H371  1  0.91683524  0.32919973  0.27148830  1
  H+  H372  1  0.82245468  0.91464642  0.45872797  1
  H+  H373  1  0.67277754  0.61765441  0.23467030  1
  H+  H374  1  0.56930509  0.39874469  0.44016855  1
  H+  H375  1  0.09103328  0.42207377  0.41993776  1
  H+  H376  1  0.92004620  0.57819760  0.22512917  1
  H+  H377  1  0.47531396  0.10308439  0.16984728  1
  H+  H378  1  0.17367378  0.84260083  0.91077598  1
  H+  H379  1  0.16537930  0.57952240  0.55878405  1
  H+  H380  1  0.59998384  0.96864188  0.84089121  1
  H+  H381  1  0.59742852  0.72034586  0.65330435  1
  H+  H382  1  0.94638953  0.36338599  0.56169782  1
  H+  H383  1  0.36591462  0.99140550  0.49804040  1
  O2-  O384  1  0.08006187  0.15141679  0.15339151  1
  O2-  O385  1  0.10823552  0.17959515  0.50506283  1
  O2-  O386  1  0.09758637  0.15076934  0.81846117  1
  O2-  O387  1  0.07932252  0.42671109  0.13711048  1
  O2-  O388  1  0.08616341  0.42037427  0.46569468  1
  O2-  O389  1  0.09646185  0.43355510  0.81403579  1
  O2-  O390  1  0.07858367  0.66802649  0.14192668  1
  O2-  O391  1  0.08231085  0.66831420  0.47313192  1
  O2-  O392  1  0.07156545  0.63891621  0.81152417  1
  O2-  O393  1  0.09819639  0.91665638  0.16319951  1
  O2-  O394  1  0.08883832  0.92441112  0.47431385  1
  O2-  O395  1  0.07419315  0.88794480  0.82514572  1
  O2-  O396  1  0.34110728  0.16680679  0.14593909  1
  O2-  O397  1  0.39154699  0.20997483  0.47466490  1
  O2-  O398  1  0.28539630  0.09651164  0.79548044  1
  O2-  O399  1  0.33329320  0.42298271  0.14928128  1
  O2-  O400  1  0.42536042  0.39716512  0.57801572  1
  O2-  O401  1  0.31104941  0.43796721  0.79867367  1
  O2-  O402  1  0.33181740  0.66760856  0.14656042  1
  O2-  O403  1  0.32750825  0.67563780  0.46953823  1
  O2-  O404  1  0.33400994  0.66732001  0.80471080  1
  O2-  O405  1  0.34673908  0.94241748  0.16023169  1
  O2-  O406  1  0.33898935  0.93035894  0.47973952  1
  O2-  O407  1  0.31981204  0.90901382  0.81052148  1
  O2-  O408  1  0.57616214  0.15231355  0.14235705  1
  O2-  O409  1  0.58163560  0.14557553  0.47547734  1
  O2-  O410  1  0.56734425  0.15577190  0.80915727  1
  O2-  O411  1  0.61557359  0.45786077  0.15992384  1
  O2-  O412  1  0.56174675  0.39599866  0.48591461  1
  O2-  O413  1  0.57031503  0.43635107  0.81110806  1
  O2-  O414  1  0.56443231  0.67940903  0.15724196  1
  O2-  O415  1  0.57986644  0.66960629  0.47828342  1
  O2-  O416  1  0.57126402  0.66696165  0.78923732  1
  O2-  O417  1  0.58840126  0.92217475  0.16240295  1
  O2-  O418  1  0.56219895  0.90605478  0.47280877  1
  O2-  O419  1  0.57708363  0.90610552  0.84153187  1
  O2-  O420  1  0.82988077  0.15880987  0.13463384  1
  O2-  O421  1  0.82224125  0.16510492  0.47174012  1
  O2-  O422  1  0.83048488  0.16038794  0.82108435  1
  O2-  O423  1  0.83757632  0.41064062  0.13892848  1
  O2-  O424  1  0.81962293  0.41660653  0.46502304  1
  O2-  O425  1  0.83988937  0.43792748  0.81866717  1
  O2-  O426  1  0.82812627  0.65836316  0.13948702  1
  O2-  O427  1  0.81948350  0.64955847  0.53767996  1
  O2-  O428  1  0.82864994  0.66929637  0.80267502  1
  O2-  O429  1  0.81928424  0.92131893  0.13650377  1
  O2-  O430  1  0.79461107  0.85450651  0.47046225  1
  O2-  O431  1  0.85695770  0.92160335  0.81147411  1
  O2-  O432  1  0.17653787  0.08814142  0.18931906  1
  O2-  O433  1  0.19757946  0.09810266  0.50893103  1
  O2-  O434  1  0.20381278  0.11084254  0.88663531  1
  O2-  O435  1  0.16364254  0.35167041  0.17711056  1
  O2-  O436  1  0.18990192  0.35502813  0.51012239  1
  O2-  O437  1  0.17669599  0.31269699  0.86758446  1
  O2-  O438  1  0.16434683  0.58969376  0.18435925  1
  O2-  O439  1  0.16371381  0.58283277  0.51334983  1
  O2-  O440  1  0.17934702  0.58949322  0.85499015  1
  O2-  O441  1  0.18399656  0.82750181  0.19693390  1
  O2-  O442  1  0.18134301  0.84559575  0.49061341  1
  O2-  O443  1  0.16992879  0.83951551  0.86413453  1
  O2-  O444  1  0.41672694  0.07831502  0.18879661  1
  O2-  O445  1  0.41325101  0.08231469  0.52078490  1
  O2-  O446  1  0.39137472  0.06252379  0.85117407  1
  O2-  O447  1  0.39605687  0.33175511  0.19168702  1
  O2-  O448  1  0.41261913  0.27355076  0.51350056  1
  O2-  O449  1  0.44695065  0.41529688  0.88606092  1
  O2-  O450  1  0.40674640  0.58083517  0.18961059  1
  O2-  O451  1  0.40482403  0.58331614  0.51098297  1
  O2-  O452  1  0.41570697  0.58891447  0.85306142  1
  O2-  O453  1  0.42319260  0.82449744  0.19620240  1
  O2-  O454  1  0.40659939  0.84071979  0.51525816  1
  O2-  O455  1  0.39598056  0.82416586  0.84798958  1
  O2-  O456  1  0.68077066  0.09826868  0.18357991  1
  O2-  O457  1  0.66082582  0.06849252  0.51440901  1
  O2-  O458  1  0.65971803  0.08585969  0.85499943  1
  O2-  O459  1  0.68199740  0.31947145  0.17881788  1
  O2-  O460  1  0.67337178  0.35038319  0.54021841  1
  O2-  O461  1  0.68865656  0.31153353  0.86883345  1
  O2-  O462  1  0.68093714  0.63291269  0.19082178  1
  O2-  O463  1  0.63336882  0.56442579  0.52044046  1
  O2-  O464  1  0.66971748  0.60500141  0.83669273  1
  O2-  O465  1  0.66814988  0.84046442  0.19659373  1
  O2-  O466  1  0.62854194  0.81897601  0.51690534  1
  O2-  O467  1  0.69935599  0.86132331  0.84148700  1
  O2-  O468  1  0.91013013  0.08839800  0.18058465  1
  O2-  O469  1  0.93578393  0.15132311  0.54025368  1
  O2-  O470  1  0.92823835  0.08281378  0.85866160  1
  O2-  O471  1  0.91754315  0.33063550  0.18928303  1
  O2-  O472  1  0.90442849  0.33146230  0.45484433  1
  O2-  O473  1  0.91966966  0.33803896  0.85128498  1
  O2-  O474  1  0.91299370  0.57903306  0.17986375  1
  O2-  O475  1  0.93736671  0.57266766  0.52729717  1
  O2-  O476  1  0.92846958  0.60132736  0.85818520  1
  O2-  O477  1  0.89843722  0.82734494  0.15240888  1
  O2-  O478  1  0.91666907  0.83288742  0.52891229  1
  O2-  O479  1  0.91280640  0.81663660  0.86424671  1
  O2-  O480  1  0.16951927  0.08337135  0.31105512  1
  O2-  O481  1  0.15713503  0.08404035  0.72827256  1
  O2-  O482  1  0.12342432  0.05440479  0.98485758  1
  O2-  O483  1  0.17880208  0.34061169  0.31037057  1
  O2-  O484  1  0.17776580  0.34800394  0.63108547  1
  O2-  O485  1  0.17662062  0.34737501  0.98307494  1
  O2-  O486  1  0.16445314  0.58270966  0.30806845  1
  O2-  O487  1  0.16954134  0.58078578  0.63692341  1
  O2-  O488  1  0.16701552  0.58510768  0.97777585  1
  O2-  O489  1  0.15894919  0.82172749  0.32509930  1
  O2-  O490  1  0.14736062  0.81019656  0.71553397  1
  O2-  O491  1  0.17303879  0.83829663  0.98168541  1
  O2-  O492  1  0.41337427  0.07393103  0.31424598  1
  O2-  O493  1  0.43701350  0.09968270  0.64095334  1
  O2-  O494  1  0.41874853  0.08309521  0.98780001  1
  O2-  O495  1  0.42348727  0.33287445  0.31786120  1
  O2-  O496  1  0.41548420  0.33914520  0.62802251  1
  O2-  O497  1  0.42348047  0.34199283  0.99452482  1
  O2-  O498  1  0.40963946  0.57947708  0.30907955  1
  O2-  O499  1  0.40416398  0.59359151  0.63591270  1
  O2-  O500  1  0.41532931  0.58348904  0.98019271  1
  O2-  O501  1  0.41387942  0.82016782  0.30714356  1
  O2-  O502  1  0.41024910  0.83662601  0.63821037  1
  O2-  O503  1  0.38995933  0.82999669  0.97536012  1
  O2-  O504  1  0.68290065  0.10657940  0.31081443  1
  O2-  O505  1  0.66996317  0.08440345  0.64158771  1
  O2-  O506  1  0.67589958  0.10172353  0.97980409  1
  O2-  O507  1  0.66482394  0.33196495  0.30538558  1
  O2-  O508  1  0.67055129  0.34146362  0.65845472  1
  O2-  O509  1  0.66479165  0.33466474  0.98311341  1
  O2-  O510  1  0.63963900  0.55870375  0.30310819  1
  O2-  O511  1  0.68646915  0.55486379  0.63686729  1
  O2-  O512  1  0.66762323  0.57099790  0.95881771  1
  O2-  O513  1  0.63905415  0.80270177  0.31910714  1
  O2-  O514  1  0.65385568  0.82887757  0.62588284  1
  O2-  O515  1  0.69764483  0.84297062  0.96592550  1
  O2-  O516  1  0.95952676  0.15314917  0.28818597  1
  O2-  O517  1  0.92916073  0.10313261  0.65324979  1
  O2-  O518  1  0.93153476  0.08904326  0.98295485  1
  O2-  O519  1  0.92019849  0.33048980  0.31677823  1
  O2-  O520  1  0.91353889  0.33934093  0.68090187  1
  O2-  O521  1  0.91315866  0.32727389  0.97432212  1
  O2-  O522  1  0.93130159  0.57832791  0.30235764  1
  O2-  O523  1  0.91084228  0.58869791  0.65452484  1
  O2-  O524  1  0.92860955  0.59099505  0.98288600  1
  O2-  O525  1  0.97011384  0.81828566  0.26241172  1
  O2-  O526  1  0.91856167  0.84308303  0.65109975  1
  O2-  O527  1  0.91999307  0.83596643  0.99162939  1
  O2-  O528  1  0.09190563  0.18593791  0.02797414  1
  O2-  O529  1  0.09361375  0.17655618  0.35646253  1
  O2-  O530  1  0.10574060  0.17560088  0.62788511  1
  O2-  O531  1  0.08038114  0.42026741  0.01428527  1
  O2-  O532  1  0.08749380  0.41676104  0.34435463  1
  O2-  O533  1  0.09561702  0.42405385  0.68870007  1
  O2-  O534  1  0.09011900  0.67457797  0.01809746  1
  O2-  O535  1  0.09248441  0.66786702  0.35620147  1
  O2-  O536  1  0.07837713  0.64694910  0.68676991  1
  O2-  O537  1  0.08016841  0.90079796  0.03768723  1
  O2-  O538  1  0.08551321  0.91586560  0.35154879  1
  O2-  O539  1  0.07892652  0.91522167  0.70500076  1
  O2-  O540  1  0.35102678  0.17035438  0.02022393  1
  O2-  O541  1  0.34049191  0.17219882  0.34407409  1
  O2-  O542  1  0.29212115  0.15703130  0.62673709  1
  O2-  O543  1  0.33853334  0.42570812  0.02449155  1
  O2-  O544  1  0.33408296  0.41716897  0.35917244  1
  O2-  O545  1  0.30436871  0.36072344  0.70154807  1
  O2-  O546  1  0.33157451  0.66815653  0.02234330  1
  O2-  O547  1  0.33145522  0.66342599  0.34836552  1
  O2-  O548  1  0.33164440  0.67327898  0.67719457  1
  O2-  O549  1  0.34351634  0.92896700  0.02618471  1
  O2-  O550  1  0.30825326  0.89437471  0.34587388  1
  O2-  O551  1  0.33355211  0.92971236  0.69289819  1
  O2-  O552  1  0.57245909  0.17277054  0.01920993  1
  O2-  O553  1  0.58593556  0.16467280  0.35336018  1
  O2-  O554  1  0.59707593  0.17247427  0.68575616  1
  O2-  O555  1  0.59212391  0.42097027  0.02764201  1
  O2-  O556  1  0.57846691  0.40333133  0.36630106  1
  O2-  O557  1  0.56295513  0.40423204  0.68135103  1
  O2-  O558  1  0.60754827  0.65564016  0.03944389  1
  O2-  O559  1  0.56311518  0.63152420  0.34356906  1
  O2-  O560  1  0.56786398  0.65943611  0.66664215  1
  O2-  O561  1  0.63799854  0.92884503  0.03707228  1
  O2-  O562  1  0.55658960  0.88657361  0.35190435  1
  O2-  O563  1  0.58821678  0.92389977  0.67442974  1
  O2-  O564  1  0.82437085  0.15710244  0.02238277  1
  O2-  O565  1  0.84237289  0.18464194  0.35626225  1
  O2-  O566  1  0.83127038  0.16246741  0.69904191  1
  O2-  O567  1  0.83621957  0.41560324  0.01686646  1
  O2-  O568  1  0.83393539  0.41405975  0.34042360  1
  O2-  O569  1  0.83165363  0.42767948  0.69826938  1
  O2-  O570  1  0.77912045  0.69207369  0.03110890  1
  O2-  O571  1  0.84017505  0.65648679  0.31552378  1
  O2-  O572  1  0.82986937  0.68213223  0.68927158  1
  O2-  O573  1  0.86558323  0.93586208  0.02269977  1
  O2-  O574  1  0.80505574  0.82740081  0.34037101  1
  O2-  O575  1  0.84548337  0.93536392  0.69510471  1
