# generated using pymatgen
data_H2O
_symmetry_space_group_name_H-M   'P 1'
_cell_length_a   17.97968332
_cell_length_b   17.98954516
_cell_length_c   22.00091857
_cell_angle_alpha   90.03058906
_cell_angle_beta   90.00310912
_cell_angle_gamma   120.03101088
_symmetry_Int_Tables_number   1
_chemical_formula_structural   H2O
_chemical_formula_sum   'H384 O192'
_cell_volume   6160.80948412
_cell_formula_units_Z   192
loop_
 _symmetry_equiv_pos_site_id
 _symmetry_equiv_pos_as_xyz
  1  'x, y, z'
loop_
 _atom_type_symbol
 _atom_type_oxidation_number
  H+  1.0
  O2-  -2.0
loop_
 _atom_site_type_symbol
 _atom_site_label
 _atom_site_symmetry_multiplicity
 _atom_site_fract_x
 _atom_site_fract_y
 _atom_site_fract_z
 _atom_site_occupancy
  H+  H0  1  0.27381871  0.91745057  0.82906317  1
  H+  H1  1  0.10494785  0.38195929  0.67917065  1
  H+  H2  1  0.89118473  0.11408318  0.75421616  1
  H+  H3  1  0.68131883  0.83221216  0.15686508  1
  H+  H4  1  0.12911861  0.76780940  0.17888299  1
  H+  H5  1  0.23063841  0.11237546  0.66691714  1
  H+  H6  1  0.63259858  0.36558533  0.68068479  1
  H+  H7  1  1.02803436  0.89141941  0.33780807  1
  H+  H8  1  0.87803829  0.78202075  0.16757770  1
  H+  H9  1  0.45196055  0.59181963  0.32428287  1
  H+  H10  1  0.36732320  0.39634189  0.82985059  1
  H+  H11  1  0.89304911  0.28151252  0.16179147  1
  H+  H12  1  0.86885095  0.98699933  0.70945595  1
  H+  H13  1  0.20756369  0.13419259  0.32894438  1
  H+  H14  1  0.47136783  0.60553489  0.52342899  1
  H+  H15  1  0.15842508  0.51794599  0.17130991  1
  H+  H16  1  0.47947671  0.60810277  0.18374896  1
  H+  H17  1  0.71817888  0.11210015  0.50310322  1
  H+  H18  1  0.87567140  1.02513580  0.33010998  1
  H+  H19  1  0.63626165  0.57642906  0.31678615  1
  H+  H20  1  0.12096902  0.14430126  0.17094150  1
  H+  H21  1  0.75780440  0.37523530  0.14962819  1
  H+  H22  1  0.97310952  0.61069672  0.99835444  1
  H+  H23  1  0.86657251  0.83000653  0.84445298  1
  H+  H24  1  0.07051837  0.61916752  0.14765185  1
  H+  H25  1  0.34485657  0.17060205  0.73639359  1
  H+  H26  1  0.03134529  0.88839660  0.49788207  1
  H+  H27  1  0.36182533  0.46859068  0.49792848  1
  H+  H28  1  0.61223775  0.48411283  0.67897057  1
  H+  H29  1  0.53099991  0.86610795  -0.01039827  1
  H+  H30  1  0.81348447  0.00053924  0.90302232  1
  H+  H31  1  0.53994761  0.15222846  0.83393908  1
  H+  H32  1  0.00983212  0.38430039  0.01052125  1
  H+  H33  1  0.63330278  0.36442747  0.50442874  1
  H+  H34  1  0.75808358  0.53321005  0.45006668  1
  H+  H35  1  0.23253150  0.38225435  0.83370301  1
  H+  H36  1  0.86204307  0.72442310  0.01055689  1
  H+  H37  1  0.76393948  0.92388672  0.16074213  1
  H+  H38  1  0.97345248  0.86032187  0.99658980  1
  H+  H39  1  0.08483420  0.14259123  0.42909483  1
  H+  H40  1  0.99388925  1.14451915  0.18259506  1
  H+  H41  1  0.11508100  0.88619880  0.16118410  1
  H+  H42  1  0.14475123  0.52268018  0.50520240  1
  H+  H43  1  0.15255420  0.78894039  0.99650049  1
  H+  H44  1  0.86195149  0.21541482  0.64222147  1
  H+  H45  1  0.92663030  0.83950914  0.57695871  1
  H+  H46  1  0.89952544  0.37018979  0.65603268  1
  H+  H47  1  0.40689826  0.34547201  0.32803176  1
  H+  H48  1  0.11084386  0.47947717  0.82242587  1
  H+  H49  1  0.09797996  0.38317053  0.00386225  1
  H+  H50  1  0.38816295  0.77527941  0.83909908  1
  H+  H51  1  0.64364767  0.18553309  0.13914311  1
  H+  H52  1  0.74300761  0.59768822  0.48776004  1
  H+  H53  1  0.14823146  0.86091009  0.64942876  1
  H+  H54  1  0.13234462  0.50509690  0.33128591  1
  H+  H55  1  0.91991885  0.82871911  0.26458306  1
  H+  H56  1  0.47886745  0.87494559  0.33834152  1
  H+  H57  1  0.61073173  0.49050513  0.17016803  1
  H+  H58  1  0.85357580  0.13926041  0.47033695  1
  H+  H59  1  0.88930956  1.02572313  0.16829699  1
  H+  H60  1  0.38800601  0.74829882  0.17127773  1
  H+  H61  1  0.75040749  0.60517603  0.83322229  1
  H+  H62  1  0.64227657  0.91412405  0.34173421  1
  H+  H63  1  0.73430452  0.86836609  0.52171157  1
  H+  H64  1  0.92052183  0.58241005  0.90735169  1
  H+  H65  1  0.40432659  0.76914874  -0.02086048  1
  H+  H66  1  -0.01318913  0.87159157  0.66269394  1
  H+  H67  1  0.30647892  0.15782578  0.83784922  1
  H+  H68  1  0.89205399  0.76634084  0.32281187  1
  H+  H69  1  0.36954445  0.36544407  0.99004814  1
  H+  H70  1  0.77265383  0.12756180  0.64327493  1
  H+  H71  1  0.48163951  0.37741670  0.84492917  1
  H+  H72  1  0.36517777  0.12571980  0.50092754  1
  H+  H73  1  0.89980900  0.87784372  0.66826547  1
  H+  H74  1  0.82280924  0.66684010  0.10072332  1
  H+  H75  1  0.37439371  0.48318606  0.15429280  1
  H+  H76  1  0.32077890  0.66039779  -0.07294725  1
  H+  H77  1  0.91107330  0.57668565  0.25669110  1
  H+  H78  1  0.12403426  0.89931874  0.00757524  1
  H+  H79  1  0.74909266  0.88489227  0.67384560  1
  H+  H80  1  0.85756947  0.52414863  0.16010339  1
  H+  H81  1  0.89701023  0.77732840  0.51925662  1
  H+  H82  1  0.71137871  0.98098095  0.82048317  1
  H+  H83  1  0.16457241  0.33129303  0.42412515  1
  H+  H84  1  0.61293072  0.63764774  0.51611147  1
  H+  H85  1  0.15143084  0.79109058  0.84622510  1
  H+  H86  1  0.59864253  0.76301647  0.36777343  1
  H+  H87  1  0.63500719  0.27702881  0.50289225  1
  H+  H88  1  0.36095686  0.22146291  0.50551569  1
  H+  H89  1  0.48176258  0.85927567  0.67628923  1
  H+  H90  1  0.48452013  0.86708464  0.16649115  1
  H+  H91  1  0.48323230  0.16620481  0.94188944  1
  H+  H92  1  -0.02963592  0.14449922  0.88103811  1
  H+  H93  1  0.06460754  0.07349500  0.33912158  1
  H+  H94  1  0.48217185  0.85742851  0.51751266  1
  H+  H95  1  0.39480282  0.76970045  0.51710911  1
  H+  H96  1  0.77820786  0.55905142  0.78509773  1
  H+  H97  1  0.87982729  0.59790066  0.84754715  1
  H+  H98  1  0.71661717  0.11539726  0.33231095  1
  H+  H99  1  0.73060277  0.35885126  0.31601557  1
  H+  H100  1  0.66064614  0.04789471  0.85808383  1
  H+  H101  1  0.87619178  0.27040735  0.99566602  1
  H+  H102  1  0.82737793  0.41435591  0.39224318  1
  H+  H103  1  0.75187832  0.90238328  0.31564999  1
  H+  H104  1  0.40475532  0.96948815  0.03031781  1
  H+  H105  1  0.98850804  0.19062482  0.89108560  1
  H+  H106  1  0.75931864  0.62959135  0.15790843  1
  H+  H107  1  0.62953269  0.60804347  1.00496756  1
  H+  H108  1  0.74664774  0.84309485  0.83929195  1
  H+  H109  1  0.35721546  0.61668038  0.34194559  1
  H+  H110  1  0.61074250  0.22172274  0.68250484  1
  H+  H111  1  0.24548985  0.87404447  -0.00039243  1
  H+  H112  1  0.14346775  0.11977666  1.00285416  1
  H+  H113  1  0.84672444  0.22071111  0.32971774  1
  H+  H114  1  0.98177575  0.36448159  0.84144301  1
  H+  H115  1  0.26813362  0.12612856  0.50542908  1
  H+  H116  1  0.40524486  0.57564947  0.23560645  1
  H+  H117  1  0.24808706  0.37454971  0.17522044  1
  H+  H118  1  0.12020180  0.51974147  -0.00529262  1
  H+  H119  1  0.47048579  0.11168096  0.50281870  1
  H+  H120  1  0.62960348  0.90012428  0.83867073  1
  H+  H121  1  0.72016105  0.36562077  0.67433071  1
  H+  H122  1  0.12064301  0.97176915  0.67582333  1
  H+  H123  1  0.60576456  0.60387868  0.17295919  1
  H+  H124  1  0.82422826  0.64513231  0.38932243  1
  H+  H125  1  0.97129664  0.11594600  0.46809308  1
  H+  H126  1  0.72962786  0.12783548  0.13842823  1
  H+  H127  1  0.14906536  0.86791892  0.49981904  1
  H+  H128  1  0.86825893  0.61668120  0.16897996  1
  H+  H129  1  0.73011956  0.58734770  0.31990284  1
  H+  H130  1  0.27662288  0.63187882  0.49391167  1
  H+  H131  1  0.18514153  0.14669374  0.85944036  1
  H+  H132  1  0.53980274  0.39971414  0.09919103  1
  H+  H133  1  0.01350552  0.12720853  0.70131682  1
  H+  H134  1  0.59800546  0.47662110  1.01876571  1
  H+  H135  1  0.27385978  0.38056130  0.48226704  1
  H+  H136  1  0.68580437  0.85374726  0.61452206  1
  H+  H137  1  0.61797105  0.69660143  0.18375365  1
  H+  H138  1  0.60662570  0.22999980  0.34018473  1
  H+  H139  1  0.13737383  0.61357248  0.65976548  1
  H+  H140  1  0.12334439  0.90546078  0.34020470  1
  H+  H141  1  0.10124391  0.37829275  0.48480259  1
  H+  H142  1  0.82083982  0.89342388  -0.02940561  1
  H+  H143  1  0.61092891  0.98780132  0.12554064  1
  H+  H144  1  1.01138358  0.37134406  0.33327385  1
  H+  H145  1  0.86236982  0.47302581  0.48805954  1
  H+  H146  1  0.36576734  0.63885295  0.83199154  1
  H+  H147  1  0.00254832  0.12748109  0.01528603  1
  H+  H148  1  0.89090191  0.35926631  0.84303057  1
  H+  H149  1  0.65458568  0.13264069  0.85399195  1
  H+  H150  1  0.55024899  0.05773539  0.02996182  1
  H+  H151  1  0.88009040  0.22432553  0.83388414  1
  H+  H152  1  0.29771403  0.15203327  0.01502332  1
  H+  H153  1  0.21907012  0.60615817  0.84095728  1
  H+  H154  1  0.27635681  0.87471566  0.16394472  1
  H+  H155  1  0.86833390  0.15761947  0.15073306  1
  H+  H156  1  0.29343195  0.15943657  0.16081995  1
  H+  H157  1  0.64648179  0.27743153  0.83141960  1
  H+  H158  1  0.16003421  0.03093628  0.33136529  1
  H+  H159  1  0.40315519  0.87016186  0.83667014  1
  H+  H160  1  0.32755760  0.66477267  0.77544995  1
  H+  H161  1  0.36055790  0.50596127  0.33121480  1
  H+  H162  1  0.13723048  0.24441432  0.82915021  1
  H+  H163  1  0.64852651  0.75764570  0.68499023  1
  H+  H164  1  0.72098269  0.61027663  1.00364799  1
  H+  H165  1  0.33764102  0.92105350  0.73097286  1
  H+  H166  1  0.38953275  0.27114836  0.66450388  1
  H+  H167  1  0.36586652  0.63187566  0.49396369  1
  H+  H168  1  0.89437869  0.87836493  0.17089150  1
  H+  H169  1  0.27631944  0.88726567  0.47134969  1
  H+  H170  1  0.62874692  0.91238853  0.14165405  1
  H+  H171  1  0.35825821  0.72240096  0.68266268  1
  H+  H172  1  0.58397265  0.65930019  0.35615518  1
  H+  H173  1  0.88455209  0.02900614  0.46137287  1
  H+  H174  1  0.15279106  0.32610741  0.74552148  1
  H+  H175  1  0.38683131  0.40165975  0.14774532  1
  H+  H176  1  0.87353033  0.59274609  0.50350479  1
  H+  H177  1  0.87294081  0.47636866  0.83651954  1
  H+  H178  1  0.57244365  0.75706841  0.33930488  1
  H+  H179  1  0.12616167  1.01115873  0.79939820  1
  H+  H180  1  0.55732997  0.67746576  0.68557696  1
  H+  H181  1  0.35720763  0.60375524  0.66877943  1
  H+  H182  1  0.16866345  0.61015337  0.18487002  1
  H+  H183  1  0.61204293  0.76131880  0.86119472  1
  H+  H184  1  0.04174356  0.13156973  -0.04769249  1
  H+  H185  1  0.14090826  0.25901716  0.31891189  1
  H+  H186  1  0.52257465  0.39412331  0.67849645  1
  H+  H187  1  0.86630806  0.62777830  0.33094592  1
  H+  H188  1  0.62734942  0.89347406  0.49940902  1
  H+  H189  1  0.31666249  0.11403310  0.33041188  1
  H+  H190  1  0.27183738  0.38188599  0.34290653  1
  H+  H191  1  0.09414349  -0.00158863  0.82468365  1
  H+  H192  1  0.38379119  0.28388823  0.99512063  1
  H+  H193  1  0.63318388  1.02079954  0.66087837  1
  H+  H194  1  0.63019368  0.52222109  0.85394617  1
  H+  H195  1  0.23684668  0.86109276  0.65269291  1
  H+  H196  1  0.29509921  0.64455631  0.16914696  1
  H+  H197  1  0.60222235  0.13262801  0.49597610  1
  H+  H198  1  0.15952511  0.37616769  0.17432846  1
  H+  H199  1  0.76908696  0.38684427  0.48452969  1
  H+  H200  1  0.37570870  0.34921173  0.51035457  1
  H+  H201  1  0.71433220  0.35082327  0.98360829  1
  H+  H202  1  0.87757351  0.11594622  0.68401644  1
  H+  H203  1  0.11852307  0.71218522  0.33357663  1
  H+  H204  1  0.85920403  0.47126623  0.33077887  1
  H+  H205  1  0.11311940  0.62180591  0.33615560  1
  H+  H206  1  0.62088928  -0.01834271  0.49543463  1
  H+  H207  1  0.26373900  0.63543963  0.67948397  1
  H+  H208  1  0.87105693  0.88017306  0.33659188  1
  H+  H209  1  0.86550232  1.02164353  0.01019642  1
  H+  H210  1  0.10600316  0.72944743  0.48634647  1
  H+  H211  1  0.11720921  0.72120564  0.66298493  1
  H+  H212  1  0.84438957  0.37314336  0.00100669  1
  H+  H213  1  0.53760532  0.35014696  0.35463622  1
  H+  H214  1  0.31244120  1.00142426  0.79044061  1
  H+  H215  1  0.96960801  0.61086240  0.50778030  1
  H+  H216  1  0.50989991  0.38171208  0.50612166  1
  H+  H217  1  0.37216638  0.88404238  0.67776917  1
  H+  H218  1  0.61501926  0.63651698  0.83947429  1
  H+  H219  1  0.61687971  0.39151940  0.82919830  1
  H+  H220  1  0.04881844  0.74256487  0.79311543  1
  H+  H221  1  0.59391811  0.45030798  0.34240751  1
  H+  H222  1  0.87851731  0.35662243  0.32085121  1
  H+  H223  1  0.12259939  0.25735926  0.69350777  1
  H+  H224  1  0.11689558  0.13025353  0.49454660  1
  H+  H225  1  0.09908612  0.36739619  0.33523436  1
  H+  H226  1  0.50452414  0.39426497  0.00948534  1
  H+  H227  1  0.43355102  0.58417426  0.67487114  1
  H+  H228  1  0.14208188  0.02059167  0.51129376  1
  H+  H229  1  0.61740775  0.98872435  0.35576321  1
  H+  H230  1  0.37195993  0.51415973  0.99260122  1
  H+  H231  1  0.25153232  0.37946958  0.00583954  1
  H+  H232  1  0.86668773  0.74239562  0.84917452  1
  H+  H233  1  0.41575246  0.14653154  0.84893931  1
  H+  H234  1  0.60185931  0.27854547  0.97505410  1
  H+  H235  1  0.61774929  0.51825359  0.51667491  1
  H+  H236  1  -0.03473314  0.35885349  0.49930587  1
  H+  H237  1  0.85265528  0.59232030  0.65545016  1
  H+  H238  1  1.03982196  0.39417720  0.16000514  1
  H+  H239  1  0.40993797  0.05729739  0.86252085  1
  H+  H240  1  0.99387370  0.63547672  0.15377344  1
  H+  H241  1  0.86491939  0.96388889  0.53990611  1
  H+  H242  1  0.21049218  0.60666016  0.98488502  1
  H+  H243  1  0.36848686  0.90399667  0.37479625  1
  H+  H244  1  0.72292166  0.43037276  0.11930404  1
  H+  H245  1  0.26524100  0.61961876  0.34821887  1
  H+  H246  1  0.38852679  0.24658885  0.82516354  1
  H+  H247  1  0.88200760  0.49209297  0.67658194  1
  H+  H248  1  0.13024883  0.23692412  0.17193983  1
  H+  H249  1  0.87633033  0.11411317  0.33094485  1
  H+  H250  1  0.90537639  0.37479267  0.16594691  1
  H+  H251  1  0.13746495  0.52404226  0.65946415  1
  H+  H252  1  0.11424513  0.26605921  0.98187544  1
  H+  H253  1  0.82653864  0.93244775  0.83533713  1
  H+  H254  1  0.24653863  0.89654797  0.33994158  1
  H+  H255  1  0.52320163  0.13187622  0.67617076  1
  H+  H256  1  0.62514719  0.89703245  0.68420350  1
  H+  H257  1  0.64900216  0.62666590  0.66614846  1
  H+  H258  1  0.87678501  0.36050513  0.49705413  1
  H+  H259  1  0.51309437  0.62010983  0.01785903  1
  H+  H260  1  0.78588956  0.14698086  0.83399706  1
  H+  H261  1  0.38336958  1.02487135  0.17399601  1
  H+  H262  1  0.64916302  0.35438011  0.28202625  1
  H+  H263  1  0.48024343  0.61796946  0.84250236  1
  H+  H264  1  0.14888558  0.02981989  0.17022045  1
  H+  H265  1  0.08834213  0.92155936  0.06667735  1
  H+  H266  1  0.09197207  0.42182488  0.09797079  1
  H+  H267  1  0.38166349  0.35601744  0.66362668  1
  H+  H268  1  0.10821990  0.64275294  0.00496771  1
  H+  H269  1  1.02744000  0.88910870  0.16007636  1
  H+  H270  1  0.37680837  0.15004740  0.16100275  1
  H+  H271  1  0.39193837  0.86109559  0.17425151  1
  H+  H272  1  0.85913458  0.63319250  0.01186671  1
  H+  H273  1  0.09669064  0.86149155  0.82413151  1
  H+  H274  1  0.47159078  0.12561687  0.32956734  1
  H+  H275  1  0.64236033  0.78145468  0.52855588  1
  H+  H276  1  0.97675974  0.60444544  0.31389761  1
  H+  H277  1  0.02097445  0.65453177  0.82561757  1
  H+  H278  1  0.38804898  0.01810216  0.65933393  1
  H+  H279  1  0.13767425  0.37715707  0.82933945  1
  H+  H280  1  0.00412677  0.11241668  0.34292238  1
  H+  H281  1  0.59993959  0.13966062  0.34803361  1
  H+  H282  1  0.63417611  0.82490165  0.92006463  1
  H+  H283  1  0.34005514  0.45920354  0.67190353  1
  H+  H284  1  0.13765950  0.10556893  0.66668412  1
  H+  H285  1  0.58397346  0.42542717  0.77399959  1
  H+  H286  1  0.99776607  0.83561411  0.81724482  1
  H+  H287  1  0.73360820  0.62055833  0.66265346  1
  H+  H288  1  0.73579121  0.13070376  0.95823994  1
  H+  H289  1  0.63690041  0.07058475  0.28512226  1
  H+  H290  1  0.93778080  0.05793676  0.59460194  1
  H+  H291  1  0.81648354  0.16716889  0.39244834  1
  H+  H292  1  0.33479472  0.42086416  0.40185519  1
  H+  H293  1  0.65898606  0.07814395  0.56383783  1
  H+  H294  1  0.73679263  0.36885141  0.83417905  1
  H+  H295  1  0.35764052  0.19141822  0.07306342  1
  H+  H296  1  0.39031963  0.52975820  0.83925254  1
  H+  H297  1  0.43799173  0.83961040  0.92732571  1
  H+  H298  1  0.66422854  0.58229078  0.57410581  1
  H+  H299  1  0.65995497  0.54666133  0.22912507  1
  H+  H300  1  0.40560480  0.32285880  0.57296267  1
  H+  H301  1  0.41407224  0.07839905  0.60106701  1
  H+  H302  1  0.26057782  0.36773592  0.68872116  1
  H+  H303  1  0.17037787  0.07977521  0.57219301  1
  H+  H304  1  0.17323582  0.83698089  0.23349905  1
  H+  H305  1  0.58569625  0.68183736  0.46478882  1
  H+  H306  1  0.57052079  0.64556190  0.07784723  1
  H+  H307  1  0.83891352  0.18376865  0.08697999  1
  H+  H308  1  0.15154319  0.57287128  0.89553934  1
  H+  H309  1  0.18460106  0.83688858  0.55460834  1
  H+  H310  1  0.18741559  0.08552939  0.22987775  1
  H+  H311  1  0.08056650  0.89396183  0.72596082  1
  H+  H312  1  0.13743026  0.26269129  0.47541973  1
  H+  H313  1  0.60724391  0.93523193  0.74315439  1
  H+  H314  1  0.17698962  0.33201246  0.26815964  1
  H+  H315  1  0.87223833  0.88850221  0.51088737  1
  H+  H316  1  0.18280483  0.85003722  0.90682956  1
  H+  H317  1  0.87126417  0.73907446  0.67670035  1
  H+  H318  1  0.17647217  0.56624680  0.27392446  1
  H+  H319  1  0.38123316  0.02252631  0.49282822  1
  H+  H320  1  0.66472655  0.58321282  0.91381492  1
  H+  H321  1  0.06801647  0.66349163  0.43111658  1
  H+  H322  1  0.08542896  0.92090686  0.43585909  1
  H+  H323  1  0.83558121  0.67238036  0.73297656  1
  H+  H324  1  0.21066331  0.11559825  0.92010119  1
  H+  H325  1  0.92524967  0.11216705  0.23804945  1
  H+  H326  1  0.90995329  0.07041671  0.57655601  1
  H+  H327  1  0.08414401  0.67334816  0.72558734  1
  H+  H328  1  0.59050130  0.16630757  0.77038909  1
  H+  H329  1  0.17734715  0.58212775  0.56420204  1
  H+  H330  1  0.42608167  0.82761725  0.61487703  1
  H+  H331  1  0.42237346  0.29747121  0.16283683  1
  H+  H332  1  0.87136027  0.98915806  0.10323412  1
  H+  H333  1  0.07004976  0.41060006  0.43040311  1
  H+  H334  1  0.07785599  0.67771129  0.06184222  1
  H+  H335  1  0.87259452  0.10945393  1.02898950  1
  H+  H336  1  0.96543422  0.49885091  0.70623293  1
  H+  H337  1  0.73545345  0.90059180  -0.01701490  1
  H+  H338  1  0.07571257  0.41963019  0.76151367  1
  H+  H339  1  0.35467447  0.62651519  -0.02024153  1
  H+  H340  1  0.87479675  0.55438704  0.59715002  1
  H+  H341  1  0.31888986  0.41238666  0.06262281  1
  H+  H342  1  0.59542522  0.90643204  0.05131779  1
  H+  H343  1  0.33885484  0.42219150  0.76808193  1
  H+  H344  1  0.41204631  0.08890905  0.23001966  1
  H+  H345  1  0.57323888  0.16730151  0.43862807  1
  H+  H346  1  0.38791370  0.64754837  0.16970068  1
  H+  H347  1  0.33995320  0.90392705  0.10655806  1
  H+  H348  1  0.54018792  0.56567648  0.38309910  1
  H+  H349  1  0.14735448  0.03334511  1.00475621  1
  H+  H350  1  0.85122842  0.22633044  0.48513100  1
  H+  H351  1  0.06009070  0.15073059  0.83923800  1
  H+  H352  1  0.88302701  0.51877540  0.99538925  1
  H+  H353  1  0.69865907  0.89843375  0.25525621  1
  H+  H354  1  0.56191803  0.41638131  0.44469161  1
  H+  H355  1  0.82941150  0.89959528  0.74740349  1
  H+  H356  1  0.82757418  0.89323902  0.39549133  1
  H+  H357  1  0.85872968  0.42900764  0.77315314  1
  H+  H358  1  0.83974269  0.07737229  0.85255091  1
  H+  H359  1  0.41354673  0.34228489  0.90033144  1
  H+  H360  1  0.65797282  0.09523410  0.18764417  1
  H+  H361  1  0.80139369  0.40558393  0.05298065  1
  H+  H362  1  0.69880171  0.28996841  0.22631179  1
  H+  H363  1  0.15395225  0.33547128  0.92855846  1
  H+  H364  1  0.39727415  0.56957459  0.57333768  1
  H+  H365  1  0.91143094  0.32939841  0.26133510  1
  H+  H366  1  0.50355726  0.11094274  0.02421911  1
  H+  H367  1  0.09269653  0.15517782  0.74469372  1
  H+  H368  1  0.24376940  0.95264331  0.28816060  1
  H+  H369  1  0.59980719  0.67817329  0.77938305  1
  H+  H370  1  0.60221024  0.92255991  0.41862288  1
  H+  H371  1  0.37687915  0.87550921  0.01130423  1
  H+  H372  1  0.63383717  0.10999286  0.65898276  1
  H+  H373  1  0.41766013  0.57699528  0.93569940  1
  H+  H374  1  0.38228093  0.25019948  0.31852708  1
  H+  H375  1  0.91429943  0.33509230  0.93810749  1
  H+  H376  1  0.01887775  0.38384442  0.66272066  1
  H+  H377  1  0.91477403  0.82030917  0.93853600  1
  H+  H378  1  0.33375111  0.65583562  0.40947798  1
  H+  H379  1  0.45735635  0.20027456  -0.00023453  1
  H+  H380  1  0.66567605  0.33290247  0.91320643  1
  H+  H381  1  0.36602495  0.13434222  0.67579819  1
  H+  H382  1  0.91220558  0.33595981  0.59117024  1
  H+  H383  1  0.42259189  0.85975858  0.28046534  1
  O2-  O384  1  0.09073990  0.17619018  0.16113652  1
  O2-  O385  1  0.08742630  0.15723904  0.47324138  1
  O2-  O386  1  0.11679303  0.18196044  0.82032808  1
  O2-  O387  1  0.09966145  0.42563811  0.14365737  1
  O2-  O388  1  0.07166502  0.41092748  0.47561883  1
  O2-  O389  1  0.08068845  0.41750191  0.80674840  1
  O2-  O390  1  0.05730216  0.66503658  0.14245048  1
  O2-  O391  1  0.05960065  0.67152727  0.47413390  1
  O2-  O392  1  0.06924049  0.70170405  0.80270728  1
  O2-  O393  1  0.08798745  0.91892708  0.14564555  1
  O2-  O394  1  0.09050604  0.92074178  0.48108711  1
  O2-  O395  1  0.04874087  0.84230155  0.79449619  1
  O2-  O396  1  0.35446067  0.18918654  0.14763822  1
  O2-  O397  1  0.33096435  0.15886203  0.49053299  1
  O2-  O398  1  0.36271273  0.18442421  0.81382229  1
  O2-  O399  1  0.34624864  0.42319031  0.13899718  1
  O2-  O400  1  0.33798344  0.41081367  0.47856308  1
  O2-  O401  1  0.33785382  0.42731129  0.81331622  1
  O2-  O402  1  0.35721456  0.68096233  0.15649951  1
  O2-  O403  1  0.33807423  0.66282632  0.47599396  1
  O2-  O404  1  0.33188551  0.66754608  0.82094394  1
  O2-  O405  1  0.33803627  0.90416787  0.15217737  1
  O2-  O406  1  0.33770144  0.92396860  0.45675595  1
  O2-  O407  1  0.32827429  0.96133065  0.80781223  1
  O2-  O408  1  0.64237697  0.23874887  0.14961871  1
  O2-  O409  1  0.57136653  0.16352701  0.48396825  1
  O2-  O410  1  0.59860418  0.17748021  0.81536799  1
  O2-  O411  1  0.54032051  0.39195737  0.14672956  1
  O2-  O412  1  0.56920909  0.41941504  0.48978845  1
  O2-  O413  1  0.58662166  0.42374256  0.81956385  1
  O2-  O414  1  0.57932090  0.64188439  0.16451452  1
  O2-  O415  1  0.58351365  0.67316393  0.50862261  1
  O2-  O416  1  0.58477973  0.66627903  0.82300808  1
  O2-  O417  1  0.58566427  0.92408133  0.12120437  1
  O2-  O418  1  0.59683541  0.92043601  0.47856702  1
  O2-  O419  1  0.64833640  0.95558497  0.81683077  1
  O2-  O420  1  0.83708569  0.18565515  0.13394351  1
  O2-  O421  1  0.81714366  0.16687907  0.46752171  1
  O2-  O422  1  0.84515249  0.16371857  0.81986846  1
  O2-  O423  1  0.77620687  0.42916703  0.12504959  1
  O2-  O424  1  0.82989593  0.41514273  0.46801666  1
  O2-  O425  1  0.84176592  0.41807683  0.81702702  1
  O2-  O426  1  0.82041055  0.66862912  0.14675845  1
  O2-  O427  1  0.78666144  0.59393599  0.46125984  1
  O2-  O428  1  0.80164757  0.61292936  0.80768135  1
  O2-  O429  1  0.86137586  0.96809770  0.14565147  1
  O2-  O430  1  0.84236881  0.92287663  0.50598357  1
  O2-  O431  1  0.80615128  0.87145755  0.82261397  1
  O2-  O432  1  0.18085868  0.08987474  0.18558720  1
  O2-  O433  1  0.17314422  0.08160791  0.52649174  1
  O2-  O434  1  0.22280653  0.12643181  0.87581879  1
  O2-  O435  1  0.18955130  0.34883996  0.19387201  1
  O2-  O436  1  0.16588040  0.32683655  0.46832178  1
  O2-  O437  1  0.16927402  0.34572866  0.84192665  1
  O2-  O438  1  0.19567403  0.57594039  0.19331809  1
  O2-  O439  1  0.18415299  0.58181645  0.51937231  1
  O2-  O440  1  0.15713529  0.57160265  0.85080632  1
  O2-  O441  1  0.16762151  0.82927278  0.18886901  1
  O2-  O442  1  0.18160500  0.83803132  0.50912818  1
  O2-  O443  1  0.18112931  0.85144343  0.86119471  1
  O2-  O444  1  0.41070154  0.08597368  0.18516639  1
  O2-  O445  1  0.40749890  0.07893344  0.51522669  1
  O2-  O446  1  0.44638800  0.11927390  0.87040841  1
  O2-  O447  1  0.45245662  0.36163438  0.16887120  1
  O2-  O448  1  0.40385080  0.31741201  0.52713776  1
  O2-  O449  1  0.41894443  0.34583956  0.85454896  1
  O2-  O450  1  0.41617451  0.58519890  0.19076821  1
  O2-  O451  1  0.40804772  0.57143936  0.52869823  1
  O2-  O452  1  0.41907524  0.58922750  0.85677009  1
  O2-  O453  1  0.42792419  0.83399974  0.18741237  1
  O2-  O454  1  0.42744079  0.82463610  0.53912920  1
  O2-  O455  1  0.42483157  0.83524534  0.85450992  1
  O2-  O456  1  0.66502333  0.09687262  0.14381335  1
  O2-  O457  1  0.65744677  0.07710743  0.51789218  1
  O2-  O458  1  0.68815983  0.10827997  0.87265179  1
  O2-  O459  1  0.72173443  0.28331627  0.18631669  1
  O2-  O460  1  0.67078291  0.33956289  0.51028463  1
  O2-  O461  1  0.67476179  0.33886561  0.84752291  1
  O2-  O462  1  0.65228749  0.55106399  0.18448206  1
  O2-  O463  1  0.65567937  0.58063390  0.52866137  1
  O2-  O464  1  0.66467665  0.58356483  0.86745275  1
  O2-  O465  1  0.70005636  0.88911856  0.17344634  1
  O2-  O466  1  0.67390525  0.84460535  0.53637628  1
  O2-  O467  1  0.64263364  0.82205583  0.87463678  1
  O2-  O468  1  0.93075219  0.12025492  0.19331340  1
  O2-  O469  1  0.91158362  0.09071153  0.45314845  1
  O2-  O470  1  0.81988073  0.01506151  0.85929880  1
  O2-  O471  1  0.92904162  0.34032847  0.18176194  1
  O2-  O472  1  0.90433758  0.32807056  0.51372980  1
  O2-  O473  1  0.92286163  0.33167146  0.85951452  1
  O2-  O474  1  0.89650217  0.58131708  0.17880938  1
  O2-  O475  1  0.90882493  0.57122777  0.52262164  1
  O2-  O476  1  0.92101212  0.58012940  0.86172631  1
  O2-  O477  1  0.91612438  0.84043062  0.18472450  1
  O2-  O478  1  0.92621943  0.83789724  0.53047818  1
  O2-  O479  1  0.90247913  0.80379970  0.85689534  1
  O2-  O480  1  0.20666211  0.08377634  0.31149627  1
  O2-  O481  1  0.17073310  0.07922181  0.65016850  1
  O2-  O482  1  0.18206811  0.09633426  0.99568973  1
  O2-  O483  1  0.16642761  0.32129808  0.31344539  1
  O2-  O484  1  0.15423712  0.32134992  0.70109303  1
  O2-  O485  1  0.14773147  0.32920038  0.97327052  1
  O2-  O486  1  0.16850926  0.56724949  0.31860227  1
  O2-  O487  1  0.17118347  0.58518523  0.64619630  1
  O2-  O488  1  0.14752107  0.57981782  0.97853316  1
  O2-  O489  1  0.20807566  0.89623753  0.30675035  1
  O2-  O490  1  0.17884625  0.83191780  0.63335180  1
  O2-  O491  1  0.18601014  0.85021586  0.98362130  1
  O2-  O492  1  0.41229622  0.09756632  0.31156838  1
  O2-  O493  1  0.41588706  0.07970631  0.64605210  1
  O2-  O494  1  0.50574469  0.19546466  0.98181370  1
  O2-  O495  1  0.35904890  0.28922344  0.31703433  1
  O2-  O496  1  0.41691947  0.33118123  0.64811543  1
  O2-  O497  1  0.40607017  0.34167257  0.97513068  1
  O2-  O498  1  0.39151982  0.57005924  0.31232345  1
  O2-  O499  1  0.38140767  0.56664849  0.65157369  1
  O2-  O500  1  0.40889511  0.57592704  0.98062561  1
  O2-  O501  1  0.42444815  0.86906217  0.32450190  1
  O2-  O502  1  0.42159415  0.82799990  0.66056713  1
  O2-  O503  1  0.44230844  0.83251082  0.97296583  1
  O2-  O504  1  0.65023542  0.08105247  0.32826941  1
  O2-  O505  1  0.65966498  0.07766606  0.63979701  1
  O2-  O506  1  0.73936338  0.13325368  1.00312887  1
  O2-  O507  1  0.67385460  0.31948934  0.29483275  1
  O2-  O508  1  0.65808978  0.32845407  0.67364118  1
  O2-  O509  1  0.65719829  0.33126003  0.96075736  1
  O2-  O510  1  0.66929407  0.54784924  0.30614497  1
  O2-  O511  1  0.67174524  0.59035570  0.64976800  1
  O2-  O512  1  0.66111140  0.57902743  0.98760252  1
  O2-  O513  1  0.70453561  0.91010954  0.29961786  1
  O2-  O514  1  0.68721324  0.85257534  0.65986299  1
  O2-  O515  1  0.63497460  0.84441109  0.99353360  1
  O2-  O516  1  0.90815543  0.08530956  0.31608836  1
  O2-  O517  1  0.90444792  0.09463196  0.71595790  1
  O2-  O518  1  0.89994259  0.07307282  1.03661782  1
  O2-  O519  1  0.90741676  0.32446204  0.30656653  1
  O2-  O520  1  0.91796798  0.33246970  0.63629538  1
  O2-  O521  1  0.90777398  0.33483516  0.98333566  1
  O2-  O522  1  0.91498572  0.57553625  0.30199742  1
  O2-  O523  1  0.84652437  0.53903428  0.63785488  1
  O2-  O524  1  0.91208251  0.58039275  0.98386360  1
  O2-  O525  1  0.92239099  0.82794347  0.30997527  1
  O2-  O526  1  0.92443290  0.84408586  0.64971931  1
  O2-  O527  1  0.91266340  0.82567076  0.98326812  1
  O2-  O528  1  0.05985481  0.15510261  -0.00692884  1
  O2-  O529  1  0.06426203  0.12486480  0.35284750  1
  O2-  O530  1  0.07713925  0.15052519  0.70070049  1
  O2-  O531  1  0.07231018  0.41553702  0.02304691  1
  O2-  O532  1  0.07180879  0.40059689  0.34943556  1
  O2-  O533  1  0.07695597  0.41730671  0.68273115  1
  O2-  O534  1  0.08124885  0.67793220  0.01686052  1
  O2-  O535  1  0.08068380  0.65237601  0.34493184  1
  O2-  O536  1  0.08679342  0.66313937  0.68155938  1
  O2-  O537  1  0.08885539  0.92472652  0.02131040  1
  O2-  O538  1  0.08629711  0.92777755  0.35619066  1
  O2-  O539  1  0.08760119  0.90822554  0.68157068  1
  O2-  O540  1  0.35820712  0.19125609  0.02705005  1
  O2-  O541  1  0.37865294  0.14805769  0.34095066  1
  O2-  O542  1  0.33730243  0.16616686  0.69102706  1
  O2-  O543  1  0.31344477  0.41126950  0.01738851  1
  O2-  O544  1  0.33011868  0.42566799  0.35687790  1
  O2-  O545  1  0.32492600  0.40294028  0.69042066  1
  O2-  O546  1  0.32554998  0.66157121  -0.02860817  1
  O2-  O547  1  0.32785209  0.65008082  0.36130743  1
  O2-  O548  1  0.32408790  0.66137321  0.69714634  1
  O2-  O549  1  0.35307781  0.90961976  0.02933250  1
  O2-  O550  1  0.33059311  0.92563936  0.39024884  1
  O2-  O551  1  0.33990133  0.91539269  0.68636375  1
  O2-  O552  1  0.49877514  0.05837428  0.04287708  1
  O2-  O553  1  0.57207301  0.17311409  0.36022961  1
  O2-  O554  1  0.58259887  0.15910032  0.69296179  1
  O2-  O555  1  0.55894706  0.41692375  0.03327548  1
  O2-  O556  1  0.54536268  0.40575399  0.36676735  1
  O2-  O557  1  0.58123017  0.42532275  0.69680670  1
  O2-  O558  1  0.57278944  0.64615351  0.03325113  1
  O2-  O559  1  0.55370897  0.59822963  0.34519266  1
  O2-  O560  1  0.61542302  0.69498822  0.69889263  1
  O2-  O561  1  0.59685360  0.90028852  0.00463868  1
  O2-  O562  1  0.60105702  0.92741789  0.36765821  1
  O2-  O563  1  0.59112984  0.92322305  0.69913163  1
  O2-  O564  1  0.83325047  0.17613521  0.01560838  1
  O2-  O565  1  0.81387844  0.16085197  0.34660552  1
  O2-  O566  1  0.83574827  0.15229469  0.63920750  1
  O2-  O567  1  0.80819023  0.40127517  0.00843185  1
  O2-  O568  1  0.82632944  0.41105147  0.34628020  1
  O2-  O569  1  0.90412008  0.45832481  0.70127003  1
  O2-  O570  1  0.82941099  0.66387440  0.02690041  1
  O2-  O571  1  0.83294943  0.65589346  0.34485399  1
  O2-  O572  1  0.83715649  0.67708473  0.68830506  1
  O2-  O573  1  0.79952883  0.93391639  -0.02909549  1
  O2-  O574  1  0.84108554  0.91049285  0.35306990  1
  O2-  O575  1  0.84454737  0.92318942  0.70508467  1
