# generated using pymatgen
data_H2O
_symmetry_space_group_name_H-M   'P 1'
_cell_length_a   17.97303755
_cell_length_b   17.97554037
_cell_length_c   21.98725212
_cell_angle_alpha   89.92844069
_cell_angle_beta   90.03357521
_cell_angle_gamma   120.00014093
_symmetry_Int_Tables_number   1
_chemical_formula_structural   H2O
_chemical_formula_sum   'H384 O192'
_cell_volume   6151.82635943
_cell_formula_units_Z   192
loop_
 _symmetry_equiv_pos_site_id
 _symmetry_equiv_pos_as_xyz
  1  'x, y, z'
loop_
 _atom_type_symbol
 _atom_type_oxidation_number
  H+  1.0
  O2-  -2.0
loop_
 _atom_site_type_symbol
 _atom_site_label
 _atom_site_symmetry_multiplicity
 _atom_site_fract_x
 _atom_site_fract_y
 _atom_site_fract_z
 _atom_site_occupancy
  H+  H0  1  0.87313093  0.50246397  0.65904107  1
  H+  H1  1  0.17214274  0.83857809  0.92484085  1
  H+  H2  1  0.48164012  0.35476100  0.16880096  1
  H+  H3  1  0.35292683  0.12664288  0.17394202  1
  H+  H4  1  0.11149919  0.87983501  -0.00367771  1
  H+  H5  1  0.38172404  0.36520517  0.49803433  1
  H+  H6  1  0.36068204  0.48597076  0.67954023  1
  H+  H7  1  0.64974894  0.03080931  0.17019642  1
  H+  H8  1  0.19242082  0.57825717  0.67024175  1
  H+  H9  1  0.63281820  0.27636831  0.50137116  1
  H+  H10  1  0.38614027  0.87191737  0.98507724  1
  H+  H11  1  0.36226589  0.47422240  0.33348166  1
  H+  H12  1  0.90466237  0.32782659  0.57638200  1
  H+  H13  1  0.87240260  0.60532152  0.98123497  1
  H+  H14  1  0.88914973  0.27319578  0.16123299  1
  H+  H15  1  0.34928841  0.91666692  0.73035092  1
  H+  H16  1  0.51359657  0.38701696  0.67032963  1
  H+  H17  1  0.12789742  0.55927634  0.29309395  1
  H+  H18  1  0.12110764  0.63207874  0.18088564  1
  H+  H19  1  0.61371985  0.98042334  0.82311976  1
  H+  H20  1  0.88969329  0.85791784  0.32800447  1
  H+  H21  1  0.78006962  0.13764161  0.15913954  1
  H+  H22  1  0.86226661  0.23447706  0.67695919  1
  H+  H23  1  0.86180711  0.64212743  0.14779132  1
  H+  H24  1  0.76000957  0.89127069  0.67090888  1
  H+  H25  1  0.34397119  0.69800435  0.17576658  1
  H+  H26  1  0.87805388  0.39548266  0.14295386  1
  H+  H27  1  0.13814632  0.36808074  0.99060188  1
  H+  H28  1  0.51550838  0.62858262  0.33514726  1
  H+  H29  1  0.13006890  0.65635909  0.67274754  1
  H+  H30  1  0.71882739  0.37305169  0.35083539  1
  H+  H31  1  0.63869779  1.02619806  -0.00937559  1
  H+  H32  1  0.85313557  0.87382149  0.82565468  1
  H+  H33  1  0.10205909  0.21665661  0.83973495  1
  H+  H34  1  0.22828168  0.36310298  0.84379742  1
  H+  H35  1  1.01415200  0.12605541  0.15831865  1
  H+  H36  1  0.38256139  0.14772336  0.66612340  1
  H+  H37  1  1.02396807  0.64313414  0.34767038  1
  H+  H38  1  0.86151357  0.31377651  0.70499061  1
  H+  H39  1  0.88576777  0.51612176  0.83292101  1
  H+  H40  1  0.91149052  0.06993322  0.93365015  1
  H+  H41  1  0.36419632  0.88477276  0.82180201  1
  H+  H42  1  0.02214388  0.37084075  0.82830758  1
  H+  H43  1  0.22435506  0.60803297  0.83990079  1
  H+  H44  1  0.34359937  0.93602707  0.05359523  1
  H+  H45  1  0.39937238  0.65446030  0.66595729  1
  H+  H46  1  0.22466038  0.36421897  0.66599130  1
  H+  H47  1  0.22445811  0.85484208  0.50870910  1
  H+  H48  1  0.96622788  0.60994577  0.97641024  1
  H+  H49  1  0.11764717  0.64434059  0.50122592  1
  H+  H50  1  0.27487384  0.63373203  0.49922911  1
  H+  H51  1  0.60402928  0.47473145  0.34173364  1
  H+  H52  1  0.88886415  1.03369329  0.32431049  1
  H+  H53  1  0.71064665  0.59417773  0.49914257  1
  H+  H54  1  0.37932193  0.83720998  0.66549226  1
  H+  H55  1  0.29138522  0.88809572  0.67129083  1
  H+  H56  1  0.91873213  1.03698672  0.51122977  1
  H+  H57  1  0.59950088  0.48083971  0.49121211  1
  H+  H58  1  0.07216709  0.43998029  0.66923702  1
  H+  H59  1  0.60524502  0.12908234  0.15476110  1
  H+  H60  1  0.77548206  0.63402312  0.66701547  1
  H+  H61  1  0.02420850  0.39179603  0.51453317  1
  H+  H62  1  0.85352164  0.84361644  0.49192230  1
  H+  H63  1  0.10527059  0.72141524  0.98953559  1
  H+  H64  1  0.61987318  0.89157779  0.15396838  1
  H+  H65  1  0.47087232  0.10372344  0.17251440  1
  H+  H66  1  0.59733553  0.72019132  0.79015180  1
  H+  H67  1  0.36436594  0.39828368  0.83196081  1
  H+  H68  1  0.53756202  0.90317507  0.16365712  1
  H+  H69  1  0.61351824  0.38435649  0.00338108  1
  H+  H70  1  0.88281666  0.72123771  0.82110869  1
  H+  H71  1  0.86282591  0.87232750  1.00760242  1
  H+  H72  1  0.83514025  0.16283987  0.09673810  1
  H+  H73  1  0.15334839  0.50490167  0.37055799  1
  H+  H74  1  0.83692238  0.91155881  0.40681426  1
  H+  H75  1  0.89806641  0.61803595  0.33014103  1
  H+  H76  1  0.11394712  0.73195495  0.50333134  1
  H+  H77  1  0.38444450  0.02869585  0.50886123  1
  H+  H78  1  0.96728326  0.84036191  0.99755653  1
  H+  H79  1  0.15128894  0.77724581  0.18004142  1
  H+  H80  1  0.72044742  0.85329396  0.31321225  1
  H+  H81  1  0.52348952  0.62841768  -0.00122649  1
  H+  H82  1  0.07527828  0.15693490  0.09363224  1
  H+  H83  1  0.60326643  0.38421706  0.35220871  1
  H+  H84  1  0.11231256  0.46622788  0.15426901  1
  H+  H85  1  0.23173424  0.36596540  0.99205435  1
  H+  H86  1  0.02678356  0.38098805  -0.00100863  1
  H+  H87  1  0.27360341  0.67563768  0.65562109  1
  H+  H88  1  0.12688143  1.01201738  -0.00544678  1
  H+  H89  1  0.10690210  0.21698628  0.68041554  1
  H+  H90  1  0.35031357  0.12931734  0.01560131  1
  H+  H91  1  0.73147815  0.86339409  0.16263022  1
  H+  H92  1  0.88422518  0.01624638  0.66624621  1
  H+  H93  1  0.13574935  0.03089700  0.51613278  1
  H+  H94  1  0.61278631  0.21833412  0.00252704  1
  H+  H95  1  0.74900511  0.41310091  0.85646350  1
  H+  H96  1  0.63284879  0.60727212  0.32586773  1
  H+  H97  1  0.52218010  0.12863278  0.99211577  1
  H+  H98  1  0.22070210  0.60673311  0.98684980  1
  H+  H99  1  0.26710040  0.13299689  0.99773164  1
  H+  H100  1  0.12694806  0.10184246  0.99705776  1
  H+  H101  1  0.35396899  0.63388563  0.82702774  1
  H+  H102  1  0.95539762  0.89125359  0.63543367  1
  H+  H103  1  0.53734689  0.13710879  0.82545037  1
  H+  H104  1  0.85838110  0.11204240  0.68279004  1
  H+  H105  1  0.60382674  0.38700419  0.66603549  1
  H+  H106  1  0.86592734  0.97953755  0.15804093  1
  H+  H107  1  0.91063980  0.05581309  0.48295322  1
  H+  H108  1  0.01323022  0.12650719  0.83566867  1
  H+  H109  1  0.02582991  0.88807556  0.31712670  1
  H+  H110  1  0.88923244  0.53078915  0.14775342  1
  H+  H111  1  0.86055700  0.13104910  0.00288066  1
  H+  H112  1  0.03517065  0.86374245  0.68892757  1
  H+  H113  1  0.22223378  0.57992722  0.14407501  1
  H+  H114  1  0.14794036  0.36582342  0.17371630  1
  H+  H115  1  0.38968781  1.02441118  0.33554116  1
  H+  H116  1  0.10987047  0.14283308  0.34063078  1
  H+  H117  1  0.72626252  0.60675429  0.98664052  1
  H+  H118  1  0.35963504  0.21863521  0.16726915  1
  H+  H119  1  0.85728016  0.40828604  0.64433885  1
  H+  H120  1  0.02246366  0.36777657  0.32445264  1
  H+  H121  1  0.37624868  0.52026649  0.83239692  1
  H+  H122  1  0.88635969  0.01428888  0.99476578  1
  H+  H123  1  0.63399159  0.27845729  0.34922707  1
  H+  H124  1  0.35305768  0.72173823  0.82572417  1
  H+  H125  1  0.83245570  0.21789145  0.50683537  1
  H+  H126  1  0.12667082  0.24158991  0.49198507  1
  H+  H127  1  0.47180941  0.36029435  0.32436933  1
  H+  H128  1  0.51994625  0.87630510  0.33979932  1
  H+  H129  1  0.63219099  0.85287243  0.31623677  1
  H+  H130  1  0.35883605  0.38295588  0.00330685  1
  H+  H131  1  0.47093228  0.60039232  0.16604155  1
  H+  H132  1  0.29075552  0.14053945  0.67116339  1
  H+  H133  1  0.38637999  0.62543807  0.52261953  1
  H+  H134  1  0.15214974  0.90396786  0.15420860  1
  H+  H135  1  0.85876605  0.72194934  0.65050330  1
  H+  H136  1  0.60502421  0.71540927  0.33737232  1
  H+  H137  1  0.60678765  0.88498101  0.01040331  1
  H+  H138  1  0.47838644  0.36437191  -0.00213869  1
  H+  H139  1  0.63220684  0.76064955  1.01719428  1
  H+  H140  1  0.88507610  0.86270314  0.17674471  1
  H+  H141  1  0.11336312  0.88402693  0.83025475  1
  H+  H142  1  0.61660473  0.46546110  0.16231590  1
  H+  H143  1  0.11769187  0.63845837  0.82848007  1
  H+  H144  1  0.89449356  0.62471209  0.64936984  1
  H+  H145  1  0.10472752  0.22044961  0.00483666  1
  H+  H146  1  0.27066358  0.13873123  0.33872521  1
  H+  H147  1  0.38356893  0.36020746  0.32083008  1
  H+  H148  1  0.11201057  0.88717552  0.52116508  1
  H+  H149  1  0.28179132  0.89153522  0.34440444  1
  H+  H150  1  0.13408269  0.03096202  0.31906238  1
  H+  H151  1  0.10064625  0.63104824  0.99154680  1
  H+  H152  1  0.09244683  0.91154369  0.05873822  1
  H+  H153  1  0.14483588  0.37090861  0.51888199  1
  H+  H154  1  0.38515669  0.52235070  0.98520906  1
  H+  H155  1  0.77588222  0.87676475  0.01615177  1
  H+  H156  1  0.26971781  0.80402437  0.45620008  1
  H+  H157  1  0.12706015  0.62155260  0.34489543  1
  H+  H158  1  0.14237321  0.77342344  0.83617613  1
  H+  H159  1  0.89228537  0.11680507  0.16788430  1
  H+  H160  1  0.37532738  0.90035316  0.15418243  1
  H+  H161  1  0.94959289  0.85166904  0.50272133  1
  H+  H162  1  0.87780956  0.09663695  0.84302617  1
  H+  H163  1  0.87658724  0.75133312  0.99661536  1
  H+  H164  1  0.11932569  0.89684572  0.31844179  1
  H+  H165  1  0.90014039  0.53163044  0.33437378  1
  H+  H166  1  0.62318304  0.59967931  0.50345728  1
  H+  H167  1  0.61472388  0.51239756  0.83005523  1
  H+  H168  1  0.71041508  0.84119179  0.49275482  1
  H+  H169  1  0.41671021  0.07756434  0.23612035  1
  H+  H170  1  0.47753718  0.62139084  0.52159417  1
  H+  H171  1  0.61388549  0.13472543  0.34139403  1
  H+  H172  1  0.59942059  0.71664020  0.49517847  1
  H+  H173  1  0.61277547  0.47349463  1.00352247  1
  H+  H174  1  0.38926612  0.87212102  0.33717689  1
  H+  H175  1  0.36487615  0.84300525  0.50523674  1
  H+  H176  1  0.75478814  0.36835913  0.17140243  1
  H+  H177  1  0.72169952  0.10934739  0.32265184  1
  H+  H178  1  0.63471536  0.60200294  0.17114219  1
  H+  H179  1  0.13556517  0.36251675  0.84388528  1
  H+  H180  1  0.52606330  0.13667815  0.34211279  1
  H+  H181  1  0.77282317  0.31280898  0.25403019  1
  H+  H182  1  0.48991103  0.12215624  0.65710229  1
  H+  H183  1  0.62564928  0.22821338  0.82851459  1
  H+  H184  1  0.11544684  0.47265144  0.00057316  1
  H+  H185  1  0.22448091  0.11936871  0.50580287  1
  H+  H186  1  0.20629141  -0.01233890  0.11649157  1
  H+  H187  1  0.23019718  0.87115420  0.98481427  1
  H+  H188  1  0.88192725  0.77318715  0.17379079  1
  H+  H189  1  0.63725500  0.61423004  0.70077372  1
  H+  H190  1  0.62468209  0.84965789  0.49937649  1
  H+  H191  1  0.46431526  0.60815420  0.82113686  1
  H+  H192  1  0.49574407  0.45667677  0.86799205  1
  H+  H193  1  1.01406936  0.13077233  1.00386489  1
  H+  H194  1  0.86655032  0.15908837  0.52754449  1
  H+  H195  1  0.97557764  0.12260506  0.32365037  1
  H+  H196  1  0.38336634  0.61166074  0.31890378  1
  H+  H197  1  0.14516311  0.78076971  0.32817749  1
  H+  H198  1  0.97514599  0.34197014  0.31790415  1
  H+  H199  1  0.35954223  0.14123992  0.49367558  1
  H+  H200  1  0.12655057  0.10034978  0.84333057  1
  H+  H201  1  0.63462421  1.01658746  0.32627496  1
  H+  H202  1  0.63669440  0.00544422  0.54158213  1
  H+  H203  1  0.47431162  0.86357046  0.83109539  1
  H+  H204  1  0.64467631  0.89220499  0.64770901  1
  H+  H205  1  0.72189115  0.09824566  0.54197494  1
  H+  H206  1  0.84194590  0.87880037  0.66859906  1
  H+  H207  1  0.36641660  0.37639728  0.15328759  1
  H+  H208  1  0.77236834  0.12722457  0.83400921  1
  H+  H209  1  0.86091563  0.72099804  0.33836565  1
  H+  H210  1  0.11463745  0.14765577  0.49441949  1
  H+  H211  1  0.36540361  0.98237787  0.15885400  1
  H+  H212  1  0.65362079  0.37185301  0.83226482  1
  H+  H213  1  0.72642792  0.36015294  0.98972638  1
  H+  H214  1  0.88998058  0.34381975  0.82471650  1
  H+  H215  1  0.13429356  0.27613932  0.33212952  1
  H+  H216  1  0.27904571  0.38795021  0.49143419  1
  H+  H217  1  0.97353227  0.86134640  0.84269115  1
  H+  H218  1  0.15033473  0.78083520  0.66608456  1
  H+  H219  1  0.06680937  0.65031723  0.22906750  1
  H+  H220  1  0.72681381  0.60987523  0.17148210  1
  H+  H221  1  0.77023219  0.34377399  0.79332893  1
  H+  H222  1  -0.00728925  0.34865877  0.68234932  1
  H+  H223  1  0.65993208  0.82682185  1.07022536  1
  H+  H224  1  0.27371203  0.64441985  0.34518543  1
  H+  H225  1  0.38829697  0.27620330  0.98822724  1
  H+  H226  1  0.50057011  0.87312533  0.49979321  1
  H+  H227  1  0.83830395  0.38556593  0.33240130  1
  H+  H228  1  0.61293743  0.24198297  0.66968711  1
  H+  H229  1  0.37317731  0.97766397  0.82121230  1
  H+  H230  1  0.20405135  0.57683703  0.21424935  1
  H+  H231  1  0.27892235  0.38157895  0.15956465  1
  H+  H232  1  0.86253756  0.47449842  -0.00721379  1
  H+  H233  1  0.17862278  0.08622600  0.60629096  1
  H+  H234  1  0.77268387  0.63057660  0.33718660  1
  H+  H235  1  0.38691096  0.50731876  0.16777116  1
  H+  H236  1  0.61329418  0.62656135  1.00004878  1
  H+  H237  1  0.12957515  0.35019897  0.66118833  1
  H+  H238  1  0.88915003  0.25698299  0.83776413  1
  H+  H239  1  0.39665343  0.23224375  0.81970070  1
  H+  H240  1  0.85789977  0.15360949  0.31896824  1
  H+  H241  1  0.88478487  0.36950676  0.51797389  1
  H+  H242  1  0.88401706  0.60997997  0.50320981  1
  H+  H243  1  0.03607605  0.64900059  0.67078237  1
  H+  H244  1  0.82565697  0.67697114  0.09566704  1
  H+  H245  1  0.60965977  0.89027852  0.81091169  1
  H+  H246  1  0.61017989  0.71331894  0.15136363  1
  H+  H247  1  0.24241993  0.86538510  0.16996453  1
  H+  H248  1  0.63245664  0.36565285  0.49888769  1
  H+  H249  1  0.53273024  0.38352742  0.82398593  1
  H+  H250  1  0.14028272  0.53192442  0.52285783  1
  H+  H251  1  0.86600413  0.38593782  0.99352368  1
  H+  H252  1  0.15713057  0.87260795  0.66971634  1
  H+  H253  1  0.36113292  0.22559134  0.33680754  1
  H+  H254  1  0.36267378  0.72908701  -0.00695051  1
  H+  H255  1  0.22802809  0.12357991  0.17647254  1
  H+  H256  1  0.38400980  0.27457320  0.50056118  1
  H+  H257  1  1.07729983  0.16354724  0.74247260  1
  H+  H258  1  0.64459846  0.11530481  0.83756513  1
  H+  H259  1  0.56325328  0.41580097  0.42676349  1
  H+  H260  1  0.47302903  0.86810988  0.98865694  1
  H+  H261  1  0.33615849  0.57886795  0.12905158  1
  H+  H262  1  0.71861921  0.85194588  0.82310582  1
  H+  H263  1  0.52496557  0.14839106  0.49455949  1
  H+  H264  1  0.97407743  0.62063990  0.15815499  1
  H+  H265  1  0.63795306  0.52759362  0.68958028  1
  H+  H266  1  0.36275190  0.39780462  0.67295840  1
  H+  H267  1  0.47563220  0.63018692  0.68075701  1
  H+  H268  1  0.84495242  0.71007362  0.49118618  1
  H+  H269  1  0.77354217  0.13552083  0.00261484  1
  H+  H270  1  0.11360977  0.12775095  0.15769337  1
  H+  H271  1  0.66835934  0.33358203  0.93116819  1
  H+  H272  1  0.58096723  0.89216952  0.39617220  1
  H+  H273  1  0.85358667  0.62367217  0.82410007  1
  H+  H274  1  0.15356966  0.02430643  0.66429849  1
  H+  H275  1  0.79538911  0.59234949  0.04352909  1
  H+  H276  1  0.87784374  0.00696235  0.83988725  1
  H+  H277  1  0.41027234  0.80379796  0.18583311  1
  H+  H278  1  0.38458859  0.27891242  0.65671781  1
  H+  H279  1  0.82932277  0.22500491  0.30985505  1
  H+  H280  1  1.00220060  0.17636065  0.53026974  1
  H+  H281  1  0.35098471  0.68963190  0.20838392  1
  H+  H282  1  0.41242701  0.11257018  0.83212121  1
  H+  H283  1  0.77227802  0.38872548  0.49501652  1
  H+  H284  1  0.06945007  0.91546391  0.57010791  1
  H+  H285  1  0.37404838  -0.00534847  0.99262808  1
  H+  H286  1  0.27402551  0.38378148  0.33611723  1
  H+  H287  1  0.63755332  0.11514025  -0.00948223  1
  H+  H288  1  0.59412220  0.94683204  0.72609548  1
  H+  H289  1  0.86583203  0.33022829  0.24275581  1
  H+  H290  1  0.15791243  0.07214271  0.90162234  1
  H+  H291  1  0.97990109  0.36024885  0.16487176  1
  H+  H292  1  0.31004889  0.61552939  0.07051076  1
  H+  H293  1  0.40905049  0.33934419  0.59806383  1
  H+  H294  1  0.33099889  0.90543864  0.40828960  1
  H+  H295  1  0.56803595  0.14519476  0.09349501  1
  H+  H296  1  0.08023606  0.39863804  0.76881697  1
  H+  H297  1  0.97569937  0.10732379  0.67590175  1
  H+  H298  1  0.66736828  0.34790995  0.20168605  1
  H+  H299  1  0.23072838  0.86547279  0.83256121  1
  H+  H300  1  0.41766666  0.08685216  0.56840409  1
  H+  H301  1  0.09090989  0.91578779  0.74550024  1
  H+  H302  1  0.93118760  0.96798805  0.37920725  1
  H+  H303  1  0.40985404  0.57798713  0.25876533  1
  H+  H304  1  0.88911424  0.27049133  0.98873100  1
  H+  H305  1  0.17517524  0.83675228  0.57417569  1
  H+  H306  1  0.82559771  0.93369403  0.48966401  1
  H+  H307  1  0.42557255  0.13818904  0.95985040  1
  H+  H308  1  0.36307107  0.72350035  0.49758874  1
  H+  H309  1  0.21582568  0.48355625  0.40668640  1
  H+  H310  1  0.43807644  0.07992888  0.89449159  1
  H+  H311  1  0.33376220  0.41174767  0.42930825  1
  H+  H312  1  0.59785344  0.59130891  0.82524928  1
  H+  H313  1  0.40413968  0.02800120  0.65750863  1
  H+  H314  1  0.43390242  0.86150515  0.24350595  1
  H+  H315  1  0.32407820  0.41202115  0.76925687  1
  H+  H316  1  0.94803728  0.14061334  0.59090613  1
  H+  H317  1  0.41979863  0.33007624  0.22701554  1
  H+  H318  1  0.91068612  0.82419853  0.90013844  1
  H+  H319  1  0.18433270  0.60660512  0.57350012  1
  H+  H320  1  0.36706384  0.64174762  -0.01430498  1
  H+  H321  1  0.65513325  0.05410547  0.62710190  1
  H+  H322  1  0.58039880  0.40468901  0.75920156  1
  H+  H323  1  0.82995152  0.14732600  0.77395904  1
  H+  H324  1  0.36550772  0.17745769  0.75929199  1
  H+  H325  1  0.56537428  0.96025128  0.46636219  1
  H+  H326  1  0.57856124  0.64939679  0.09469786  1
  H+  H327  1  0.17901926  0.34510471  0.23599900  1
  H+  H328  1  0.05380411  0.84376476  0.42238697  1
  H+  H329  1  0.92207774  0.08766021  0.22889450  1
  H+  H330  1  0.64359581  0.80965524  0.87188113  1
  H+  H331  1  0.17845006  0.33424021  0.57057730  1
  H+  H332  1  0.38653047  0.11178294  0.33200865  1
  H+  H333  1  0.83811084  0.41770047  0.40234192  1
  H+  H334  1  0.49774352  0.38076345  0.49164276  1
  H+  H335  1  0.43583291  0.37239892  0.90766111  1
  H+  H336  1  0.66116522  0.34323424  0.59209746  1
  H+  H337  1  0.17099264  0.33886938  0.92038155  1
  H+  H338  1  0.41896923  0.57918135  0.92414125  1
  H+  H339  1  0.08058833  0.17373420  0.40052446  1
  H+  H340  1  0.58530844  0.17287240  0.43642165  1
  H+  H341  1  0.83044227  0.39903451  0.73904809  1
  H+  H342  1  0.16528268  0.10053759  0.26762395  1
  H+  H343  1  0.42573816  0.61064631  0.59443345  1
  H+  H344  1  0.93172659  0.59396954  0.59635833  1
  H+  H345  1  0.15249020  0.37303496  0.34062190  1
  H+  H346  1  0.33649358  0.66725653  0.40185368  1
  H+  H347  1  0.33068011  0.16918999  0.43232436  1
  H+  H348  1  0.66421663  0.57753462  0.26679466  1
  H+  H349  1  0.97720014  0.61610721  0.50261707  1
  H+  H350  1  0.13542080  0.51680966  0.83745271  1
  H+  H351  1  0.15865191  0.57077872  0.92981412  1
  H+  H352  1  0.66514685  0.84356500  0.59498898  1
  H+  H353  1  0.57897727  0.92348188  0.06326870  1
  H+  H354  1  0.84181368  0.91832667  0.09907334  1
  H+  H355  1  0.09618437  0.42764097  0.46100646  1
  H+  H356  1  0.86314801  0.47702972  0.49628906  1
  H+  H357  1  0.66410288  0.82571742  0.21713379  1
  H+  H358  1  0.39929183  0.81369817  0.56780002  1
  H+  H359  1  0.67135168  0.08530839  0.23133800  1
  H+  H360  1  0.86906973  0.53820310  0.89970893  1
  H+  H361  1  0.76063943  0.09748649  0.68973647  1
  H+  H362  1  0.18282506  0.83799979  0.26720384  1
  H+  H363  1  0.41766229  0.83587998  0.89228657  1
  H+  H364  1  0.56105709  0.65162933  0.43895641  1
  H+  H365  1  0.32775037  0.41093351  0.06266113  1
  H+  H366  1  0.59044526  0.18033497  0.72765869  1
  H+  H367  1  0.07271547  0.81625106  0.41387166  1
  H+  H368  1  0.89105538  0.83033577  0.58463177  1
  H+  H369  1  0.08705478  0.67790620  0.40737537  1
  H+  H370  1  0.08575789  0.40722360  0.09534061  1
  H+  H371  1  0.82380411  0.65336437  0.43124338  1
  H+  H372  1  0.84083744  0.41946514  0.08426406  1
  H+  H373  1  0.11105010  0.97355881  0.83265751  1
  H+  H374  1  0.66754891  0.08196600  0.89927511  1
  H+  H375  1  0.90887781  0.82434016  0.26481507  1
  H+  H376  1  0.14144272  0.03371578  0.17156576  1
  H+  H377  1  0.38633593  0.78050476  0.33148094  1
  H+  H378  1  0.82392421  0.90520089  0.76513404  1
  H+  H379  1  0.58910834  0.40825778  0.10318904  1
  H+  H380  1  0.65217516  0.57505690  0.92993304  1
  H+  H381  1  0.91916296  0.32675558  0.92774793  1
  H+  H382  1  0.09112859  0.67201076  0.77013279  1
  H+  H383  1  0.72379383  0.38364283  0.64890955  1
  O2-  O384  1  0.07568075  0.15345139  0.14001355  1
  O2-  O385  1  0.08933219  0.18145919  0.47710130  1
  O2-  O386  1  0.07467255  0.15880899  0.82190336  1
  O2-  O387  1  0.08317225  0.40530045  0.14062481  1
  O2-  O388  1  0.08760968  0.42425127  0.50565690  1
  O2-  O389  1  0.08405427  0.40181674  0.81401377  1
  O2-  O390  1  0.09083205  0.66508484  0.18808302  1
  O2-  O391  1  0.08616380  0.67279395  0.48476165  1
  O2-  O392  1  0.09203902  0.67347997  0.81519121  1
  O2-  O393  1  0.14761578  0.94970455  0.13061407  1
  O2-  O394  1  0.07662164  0.91648759  0.52616681  1
  O2-  O395  1  0.08069592  0.91237065  0.81548394  1
  O2-  O396  1  0.32012845  0.15561014  0.16174362  1
  O2-  O397  1  0.33034629  0.17231313  0.47800588  1
  O2-  O398  1  0.37224155  0.17402328  0.80421973  1
  O2-  O399  1  0.33695578  0.40812863  0.13864330  1
  O2-  O400  1  0.33820387  0.41304117  0.47445884  1
  O2-  O401  1  0.32025490  0.41160331  0.81480855  1
  O2-  O402  1  0.28709129  0.57353000  0.10478775  1
  O2-  O403  1  0.33575495  0.66101718  0.48360857  1
  O2-  O404  1  0.31862528  0.65976220  0.81546182  1
  O2-  O405  1  0.33947173  0.92371670  0.13862928  1
  O2-  O406  1  0.30423920  0.86169149  0.47314792  1
  O2-  O407  1  0.33664107  0.91736369  0.80549143  1
  O2-  O408  1  0.56027690  0.13962114  0.13840882  1
  O2-  O409  1  0.58544480  0.18098889  0.48129670  1
  O2-  O410  1  0.59944675  0.17087508  0.81028445  1
  O2-  O411  1  0.58695905  0.40482317  0.14829626  1
  O2-  O412  1  0.56287451  0.41451064  0.47451204  1
  O2-  O413  1  0.58967083  0.40617358  0.80488529  1
  O2-  O414  1  0.57840232  0.65163706  0.14042057  1
  O2-  O415  1  0.56448611  0.65318437  0.48412594  1
  O2-  O416  1  0.56055395  0.65700209  0.78279876  1
  O2-  O417  1  0.59328492  0.92647034  0.14137454  1
  O2-  O418  1  0.56140751  0.90739208  0.48158546  1
  O2-  O419  1  0.58078708  0.92377575  0.80150837  1
  O2-  O420  1  0.84025075  0.16471789  0.14214475  1
  O2-  O421  1  0.81402295  0.15657829  0.50952465  1
  O2-  O422  1  0.83399619  0.15430204  0.81972726  1
  O2-  O423  1  0.84792827  0.42663450  0.12942693  1
  O2-  O424  1  0.83423799  0.41535824  0.48330042  1
  O2-  O425  1  0.82472594  0.35865542  0.77249815  1
  O2-  O426  1  0.82741772  0.67253708  0.14056252  1
  O2-  O427  1  0.81922837  0.64930897  0.47689239  1
  O2-  O428  1  0.87973432  0.67359001  0.79710495  1
  O2-  O429  1  0.83435983  0.91847836  0.14434693  1
  O2-  O430  1  0.80268171  0.88004267  0.46690567  1
  O2-  O431  1  0.82143438  0.90334199  0.81094525  1
  O2-  O432  1  0.16193833  0.09350197  0.18564835  1
  O2-  O433  1  0.16577396  0.09374555  0.52387759  1
  O2-  O434  1  0.15518425  0.06823516  0.85665368  1
  O2-  O435  1  0.18503107  0.34502474  0.19128272  1
  O2-  O436  1  0.17914868  0.34183042  0.52534393  1
  O2-  O437  1  0.16827946  0.33498628  0.86333287  1
  O2-  O438  1  0.17601779  0.57415357  0.17573813  1
  O2-  O439  1  0.17503615  0.59571950  0.52815706  1
  O2-  O440  1  0.16213244  0.57501324  0.85513950  1
  O2-  O441  1  0.18327592  0.84004034  0.18847657  1
  O2-  O442  1  0.16568078  0.83469974  0.52901024  1
  O2-  O443  1  0.17120253  0.83591850  0.84963963  1
  O2-  O444  1  0.41070365  0.07562136  0.19101687  1
  O2-  O445  1  0.41130610  0.08826279  0.52236741  1
  O2-  O446  1  0.43924868  0.07860959  0.84665188  1
  O2-  O447  1  0.41951870  0.32716076  0.18165497  1
  O2-  O448  1  0.41478286  0.33605376  0.51521810  1
  O2-  O449  1  0.44749047  0.39619574  0.86501803  1
  O2-  O450  1  0.41035283  0.56890832  0.18088337  1
  O2-  O451  1  0.42135545  0.60261016  0.54449313  1
  O2-  O452  1  0.41143808  0.58065407  0.84692003  1
  O2-  O453  1  0.43953623  0.86434500  0.19775127  1
  O2-  O454  1  0.40499732  0.81988444  0.52240513  1
  O2-  O455  1  0.41434736  0.83206669  0.84699913  1
  O2-  O456  1  0.67937250  0.09062902  0.18616325  1
  O2-  O457  1  0.66207519  0.06246180  0.55996788  1
  O2-  O458  1  0.67000556  0.08033061  0.85360417  1
  O2-  O459  1  0.71035833  0.32992054  0.20113383  1
  O2-  O460  1  0.66472633  0.33947329  0.51573706  1
  O2-  O461  1  0.69535154  0.35599398  0.85025752  1
  O2-  O462  1  0.66736139  0.57591925  0.18892749  1
  O2-  O463  1  0.64878647  0.56281324  0.51193972  1
  O2-  O464  1  0.60115056  0.55084000  0.85422055  1
  O2-  O465  1  0.66775048  0.82978699  0.17182817  1
  O2-  O466  1  0.65126501  0.81672786  0.51409585  1
  O2-  O467  1  0.65366424  0.82173656  0.82853643  1
  O2-  O468  1  0.92352035  0.08639429  0.18290757  1
  O2-  O469  1  0.96399431  0.18427899  0.55834871  1
  O2-  O470  1  0.90874172  0.06622588  0.85771915  1
  O2-  O471  1  0.91734187  0.33458036  0.17423896  1
  O2-  O472  1  0.91789873  0.34178337  0.53322724  1
  O2-  O473  1  0.92060106  0.32025038  0.84868777  1
  O2-  O474  1  0.91130797  0.59213939  0.15904172  1
  O2-  O475  1  0.91714348  0.58235068  0.51836615  1
  O2-  O476  1  0.84032254  0.51187316  0.85931236  1
  O2-  O477  1  0.91230461  0.83092951  0.19336109  1
  O2-  O478  1  0.88823265  0.81688241  0.51297025  1
  O2-  O479  1  0.91178190  0.83106071  0.85525736  1
  O2-  O480  1  0.16498364  0.09580395  0.31263639  1
  O2-  O481  1  0.19137218  0.08310149  0.64967249  1
  O2-  O482  1  0.15921631  0.07415610  0.98235851  1
  O2-  O483  1  0.16995336  0.33719045  0.31742400  1
  O2-  O484  1  0.16670632  0.32710944  0.64791955  1
  O2-  O485  1  0.16991076  0.33708807  0.97394351  1
  O2-  O486  1  0.15648487  0.58690868  0.33091395  1
  O2-  O487  1  0.20239842  0.62802744  0.64631023  1
  O2-  O488  1  0.15889634  0.57069545  0.97581623  1
  O2-  O489  1  0.18050344  0.84045483  0.31252969  1
  O2-  O490  1  0.18447712  0.84201068  0.65062692  1
  O2-  O491  1  0.16941307  0.83788465  0.97075054  1
  O2-  O492  1  0.41867481  0.08331950  0.31731909  1
  O2-  O493  1  0.42836328  0.08717730  0.64105076  1
  O2-  O494  1  0.43695460  0.09066180  0.96254177  1
  O2-  O495  1  0.41272286  0.32835115  0.30646640  1
  O2-  O496  1  0.40819466  0.34038335  0.64322767  1
  O2-  O497  1  0.41887530  0.33945769  0.98014406  1
  O2-  O498  1  0.41197533  0.57992438  0.30455111  1
  O2-  O499  1  0.42028577  0.61244190  0.65646499  1
  O2-  O500  1  0.41943008  0.58204383  0.96970687  1
  O2-  O501  1  0.41935333  0.84186413  0.31869583  1
  O2-  O502  1  0.40047787  0.80167250  0.64377117  1
  O2-  O503  1  0.41345466  0.83757149  0.97202029  1
  O2-  O504  1  0.65831179  0.07540033  0.31023123  1
  O2-  O505  1  0.65387119  0.04776387  0.67472910  1
  O2-  O506  1  0.67149167  0.08656505  0.97583590  1
  O2-  O507  1  0.65527907  0.34110260  0.34652536  1
  O2-  O508  1  0.66224260  0.34750874  0.63768699  1
  O2-  O509  1  0.66489059  0.33050905  0.97626282  1
  O2-  O510  1  0.66338835  0.57668347  0.31252150  1
  O2-  O511  1  0.67580790  0.58953463  0.69729425  1
  O2-  O512  1  0.65970750  0.57759461  0.97457419  1
  O2-  O513  1  0.66156508  0.82281648  0.29791203  1
  O2-  O514  1  0.66992496  0.85552262  0.63918222  1
  O2-  O515  1  0.66294769  0.82476184  1.02587986  1
  O2-  O516  1  0.91715507  0.09116662  0.30443865  1
  O2-  O517  1  0.91563579  0.07925143  0.65710012  1
  O2-  O518  1  0.91442169  0.07480210  0.97942479  1
  O2-  O519  1  0.82265679  0.31434114  0.27583056  1
  O2-  O520  1  0.88825562  0.29902281  0.67144484  1
  O2-  O521  1  0.92175729  0.33089449  0.97310732  1
  O2-  O522  1  0.93486253  0.59266786  0.32045751  1
  O2-  O523  1  0.93184316  0.59685010  0.64180196  1
  O2-  O524  1  0.90329617  0.57410894  0.96600738  1
  O2-  O525  1  0.91249819  0.82208062  0.31121091  1
  O2-  O526  1  0.89963954  0.83974949  0.63063896  1
  O2-  O527  1  0.90631036  0.81266218  0.98354115  1
  O2-  O528  1  0.07445601  0.16159213  0.02148868  1
  O2-  O529  1  0.07810889  0.17255073  0.35467166  1
  O2-  O530  1  0.07124393  0.15890946  0.69761945  1
  O2-  O531  1  0.08773273  0.41000050  0.01417312  1
  O2-  O532  1  0.15703471  0.45730349  0.39159041  1
  O2-  O533  1  0.05701126  0.38597558  0.68943977  1
  O2-  O534  1  0.06788809  0.66037081  0.00084860  1
  O2-  O535  1  0.08772176  0.67546733  0.36176969  1
  O2-  O536  1  0.09493325  0.68104571  0.68882328  1
  O2-  O537  1  0.07755869  0.90528145  0.01485234  1
  O2-  O538  1  0.08856020  0.92956316  0.31926103  1
  O2-  O539  1  0.09185217  0.91183205  0.69848276  1
  O2-  O540  1  0.32993730  0.16907852  0.00582833  1
  O2-  O541  1  0.33086801  0.16630295  0.35473576  1
  O2-  O542  1  0.35342570  0.17872670  0.68203945  1
  O2-  O543  1  0.32488567  0.41083119  0.01664339  1
  O2-  O544  1  0.33559883  0.41459405  0.34991635  1
  O2-  O545  1  0.33137761  0.42502006  0.69204810  1
  O2-  O546  1  0.33233670  0.66621020  0.00232971  1
  O2-  O547  1  0.33504824  0.67058575  0.35644091  1
  O2-  O548  1  0.35428551  0.71597237  0.67167959  1
  O2-  O549  1  0.34042296  0.93332369  0.00862807  1
  O2-  O550  1  0.34087500  0.92009909  0.36248953  1
  O2-  O551  1  0.35245329  0.91337348  0.68466429  1
  O2-  O552  1  0.58320479  0.15658564  0.01356793  1
  O2-  O553  1  0.58593137  0.16624113  0.35830470  1
  O2-  O554  1  0.58376047  0.18117224  0.68304862  1
  O2-  O555  1  0.58276135  0.41338825  0.02011006  1
  O2-  O556  1  0.56903571  0.41583471  0.35986252  1
  O2-  O557  1  0.57258912  0.41247375  0.68765863  1
  O2-  O558  1  0.58177772  0.65584747  0.01771718  1
  O2-  O559  1  0.57368617  0.65656049  0.35453374  1
  O2-  O560  1  0.56148928  0.64741793  0.71633297  1
  O2-  O561  1  0.57811409  0.91900761  0.01787382  1
  O2-  O562  1  0.58176143  0.89812903  0.35150401  1
  O2-  O563  1  0.60183401  0.95432963  0.68053603  1
  O2-  O564  1  0.83464748  0.16536135  0.01783663  1
  O2-  O565  1  0.81938556  0.17396134  0.33367382  1
  O2-  O566  1  0.82239593  0.13711853  0.70011540  1
  O2-  O567  1  0.83298784  0.41336996  0.00816279  1
  O2-  O568  1  0.83231844  0.42789757  0.35854587  1
  O2-  O569  1  0.83380735  0.43762953  0.66802584  1
  O2-  O570  1  0.81137188  0.63762008  0.01318937  1
  O2-  O571  1  0.83206802  0.66026974  0.35415594  1
  O2-  O572  1  0.83188400  0.65975998  0.64505688  1
  O2-  O573  1  0.83927245  0.90964137  0.02228460  1
  O2-  O574  1  0.87175225  0.93802844  0.36493155  1
  O2-  O575  1  0.81956879  0.91281676  0.68926950  1
