# generated using pymatgen
data_H2O
_symmetry_space_group_name_H-M   'P 1'
_cell_length_a   17.98593266
_cell_length_b   17.98775431
_cell_length_c   22.00201812
_cell_angle_alpha   90.00609592
_cell_angle_beta   89.99759460
_cell_angle_gamma   119.99909943
_symmetry_Int_Tables_number   1
_chemical_formula_structural   H2O
_chemical_formula_sum   'H384 O192'
_cell_volume   6164.62975610
_cell_formula_units_Z   192
loop_
 _symmetry_equiv_pos_site_id
 _symmetry_equiv_pos_as_xyz
  1  'x, y, z'
loop_
 _atom_type_symbol
 _atom_type_oxidation_number
  H+  1.0
  O2-  -2.0
loop_
 _atom_site_type_symbol
 _atom_site_label
 _atom_site_symmetry_multiplicity
 _atom_site_fract_x
 _atom_site_fract_y
 _atom_site_fract_z
 _atom_site_occupancy
  H+  H0  1  0.88818029  0.87349450  -0.01623959  1
  H+  H1  1  0.65022332  1.01445724  0.82649882  1
  H+  H2  1  0.36151712  -0.01045815  1.00356211  1
  H+  H3  1  0.53080776  0.64322585  0.48994754  1
  H+  H4  1  0.61595134  0.86510123  0.01454475  1
  H+  H5  1  0.29803574  0.65368859  0.14269109  1
  H+  H6  1  0.37624837  0.10535344  0.85271122  1
  H+  H7  1  0.72176300  0.89297856  0.51144056  1
  H+  H8  1  0.12788444  0.90525376  0.67923807  1
  H+  H9  1  1.03272804  0.65935216  0.82223614  1
  H+  H10  1  0.37791232  0.03455837  0.51075052  1
  H+  H11  1  0.11626580  0.23136152  0.15631560  1
  H+  H12  1  0.89318775  1.04291544  -0.01613514  1
  H+  H13  1  0.90884179  0.40215345  0.31568107  1
  H+  H14  1  0.15471294  0.12525872  0.33997548  1
  H+  H15  1  0.36348824  0.46792837  0.00344151  1
  H+  H16  1  0.66750394  0.83499235  0.27595670  1
  H+  H17  1  0.40578712  0.56689336  0.27357769  1
  H+  H18  1  0.10721054  0.18379589  0.99355375  1
  H+  H19  1  0.39283446  0.12806220  0.50427903  1
  H+  H20  1  0.46867450  0.37628608  0.50646410  1
  H+  H21  1  0.85389147  -0.00710847  0.48709817  1
  H+  H22  1  0.52336268  0.14342443  0.48964706  1
  H+  H23  1  0.16935260  0.34446660  0.60264936  1
  H+  H24  1  0.14611068  0.36089789  0.17476218  1
  H+  H25  1  0.90562894  0.78381289  0.50097841  1
  H+  H26  1  0.04239134  0.14829957  0.36502880  1
  H+  H27  1  0.71447434  0.79028491  0.99010883  1
  H+  H28  1  0.20003458  0.89500221  0.57787020  1
  H+  H29  1  0.36988608  0.84559447  0.50336180  1
  H+  H30  1  0.37761051  0.77286511  0.66308211  1
  H+  H31  1  0.61042261  0.88564658  0.34740686  1
  H+  H32  1  0.11718605  0.65966842  0.34390181  1
  H+  H33  1  0.57426161  0.68688164  0.09554135  1
  H+  H34  1  0.17050166  0.38770922  0.50485669  1
  H+  H35  1  0.15635804  0.03289650  0.49010309  1
  H+  H36  1  0.28168346  0.38200846  0.16642355  1
  H+  H37  1  0.89858637  0.54789689  0.84186298  1
  H+  H38  1  0.53131924  0.38907561  0.00809651  1
  H+  H39  1  0.59155549  0.90305035  0.07094054  1
  H+  H40  1  0.64193469  0.28564110  0.48982804  1
  H+  H41  1  0.39640981  0.78693542  0.14156565  1
  H+  H42  1  0.81437987  0.88800572  0.15169638  1
  H+  H43  1  0.60838128  0.87361891  0.84369610  1
  H+  H44  1  0.86956537  0.49280746  0.33209072  1
  H+  H45  1  0.73335457  0.13000626  0.17047353  1
  H+  H46  1  0.67372291  0.79304607  0.18206508  1
  H+  H47  1  0.28609520  0.14463109  0.00829174  1
  H+  H48  1  0.58830902  0.40604759  0.09689173  1
  H+  H49  1  0.23589512  0.38547545  0.84426680  1
  H+  H50  1  0.28500555  0.14571216  0.48420932  1
  H+  H51  1  0.99340437  0.37300599  0.16267088  1
  H+  H52  1  0.10456077  0.97627431  0.14002322  1
  H+  H53  1  0.75635404  0.81275839  0.22294041  1
  H+  H54  1  0.87107021  0.65678789  0.16960709  1
  H+  H55  1  0.12158249  0.39746836  0.82374056  1
  H+  H56  1  0.48395361  0.35959480  0.16286573  1
  H+  H57  1  0.08671380  0.42345589  0.73257921  1
  H+  H58  1  0.62346934  0.67200349  0.14699179  1
  H+  H59  1  0.08237252  0.19031330  0.08967389  1
  H+  H60  1  0.79107391  0.39966017  0.47947350  1
  H+  H61  1  0.90747810  0.90225815  0.13961907  1
  H+  H62  1  0.23018619  0.87713999  0.83814199  1
  H+  H63  1  0.39146817  0.36257606  0.16622018  1
  H+  H64  1  0.13521223  0.53605279  0.66728677  1
  H+  H65  1  0.36210685  -0.02104049  0.67710005  1
  H+  H66  1  0.87828316  0.39643232  0.48423806  1
  H+  H67  1  0.60903738  0.48173962  0.49101587  1
  H+  H68  1  0.57861140  0.92120456  0.44467703  1
  H+  H69  1  0.22544005  0.62038042  0.34627510  1
  H+  H70  1  0.76647064  0.08028661  0.35663733  1
  H+  H71  1  0.87924545  0.33042052  0.83472467  1
  H+  H72  1  0.73134463  0.37384183  0.32244194  1
  H+  H73  1  0.41650718  0.38018114  0.66097337  1
  H+  H74  1  0.12142211  0.24227810  0.68678171  1
  H+  H75  1  0.64292613  0.61129205  0.50270289  1
  H+  H76  1  0.85897694  0.73562733  0.82726949  1
  H+  H77  1  0.64524789  0.28101558  0.32721425  1
  H+  H78  1  0.13660890  0.79011675  0.66588152  1
  H+  H79  1  0.92028617  0.34271162  0.60091901  1
  H+  H80  1  0.08405031  0.51256094  0.19498559  1
  H+  H81  1  0.26795100  0.88449937  0.49829299  1
  H+  H82  1  0.16892674  0.33099118  0.23728827  1
  H+  H83  1  0.91223221  0.31714927  0.31657043  1
  H+  H84  1  0.13939473  0.62907811  0.66644020  1
  H+  H85  1  0.08744460  0.40294700  0.08984126  1
  H+  H86  1  0.64181011  0.61170097  0.65141647  1
  H+  H87  1  0.16804151  0.09185572  1.04230673  1
  H+  H88  1  0.51297084  0.13549483  -0.00455350  1
  H+  H89  1  0.51743241  0.62405591  0.66167709  1
  H+  H90  1  0.11432904  0.63286452  0.00281247  1
  H+  H91  1  0.37017592  0.14225003  0.67681704  1
  H+  H92  1  0.61278007  0.09794921  0.68553837  1
  H+  H93  1  0.08967007  0.91940644  0.42677152  1
  H+  H94  1  0.86764947  0.23391341  0.36443569  1
  H+  H95  1  0.14861964  0.30106128  0.85944865  1
  H+  H96  1  0.87706493  0.39421325  0.68496128  1
  H+  H97  1  0.78642125  0.64253276  0.49194978  1
  H+  H98  1  0.47608672  0.84883791  1.00459071  1
  H+  H99  1  0.37190080  0.82949825  0.35790168  1
  H+  H100  1  0.17657326  0.58493944  0.18589865  1
  H+  H101  1  0.27103932  0.54995241  0.39394229  1
  H+  H102  1  0.61392233  0.14596625  0.48810073  1
  H+  H103  1  0.62325844  0.14133228  0.16842127  1
  H+  H104  1  0.11562479  0.86497573  0.31532036  1
  H+  H105  1  1.01363262  0.36932768  0.99495361  1
  H+  H106  1  0.12959957  0.15274823  0.85411252  1
  H+  H107  1  0.38473237  0.05113867  0.32920696  1
  H+  H108  1  0.72391110  0.61689107  0.84942672  1
  H+  H109  1  0.61712277  0.48654038  0.83462041  1
  H+  H110  1  0.83514719  0.87204838  0.67215244  1
  H+  H111  1  0.70122745  0.33884563  0.83682375  1
  H+  H112  1  0.23260497  0.12008688  0.85389104  1
  H+  H113  1  0.52729147  0.89622931  0.35231086  1
  H+  H114  1  0.60235703  0.38003426  0.34138105  1
  H+  H115  1  0.15502951  0.65604857  0.49388062  1
  H+  H116  1  0.47982286  0.37022093  0.84059779  1
  H+  H117  1  0.46846503  0.60520121  0.98836261  1
  H+  H118  1  0.83371196  0.93651129  0.34096727  1
  H+  H119  1  0.63729030  0.27728832  0.98897716  1
  H+  H120  1  0.89355868  0.25095142  0.82742253  1
  H+  H121  1  0.84169652  0.85171275  0.33991529  1
  H+  H122  1  0.10855935  0.87892899  -0.00219880  1
  H+  H123  1  0.36497564  0.56685408  0.50216585  1
  H+  H124  1  0.17736630  0.92372237  0.51562265  1
  H+  H125  1  0.77888088  0.64428536  0.16795957  1
  H+  H126  1  0.23016943  0.61018566  0.85012025  1
  H+  H127  1  0.34485370  0.36292011  0.36130128  1
  H+  H128  1  0.50830521  0.87118527  0.68053231  1
  H+  H129  1  0.90674729  0.28716020  0.50527912  1
  H+  H130  1  0.61863939  0.45825341  0.16090622  1
  H+  H131  1  0.14048489  0.52287983  0.84560077  1
  H+  H132  1  0.13631949  0.51669385  0.99717343  1
  H+  H133  1  1.04363274  0.15534206  0.50445133  1
  H+  H134  1  0.87273828  0.40032997  0.18039046  1
  H+  H135  1  0.61952880  0.85422960  0.66367067  1
  H+  H136  1  0.79798996  0.40893657  0.69027166  1
  H+  H137  1  0.62864428  0.57327113  0.17870111  1
  H+  H138  1  0.88351260  0.78132598  0.99158191  1
  H+  H139  1  0.25013652  0.61702561  0.52080306  1
  H+  H140  1  0.27342805  0.63174031  0.00133366  1
  H+  H141  1  0.60298003  0.71369390  0.65785062  1
  H+  H142  1  0.61753075  0.72650686  0.84486804  1
  H+  H143  1  0.22720877  0.36466179  0.33730915  1
  H+  H144  1  0.12517990  0.49412866  0.35210751  1
  H+  H145  1  0.64123215  0.52970275  1.00292776  1
  H+  H146  1  0.21337368  0.87197825  0.17080086  1
  H+  H147  1  0.23830663  0.12164155  0.33230222  1
  H+  H148  1  0.10154163  -0.02316488  0.33067729  1
  H+  H149  1  0.62129658  0.23918489  0.17190467  1
  H+  H150  1  0.92804628  0.55186200  0.48304919  1
  H+  H151  1  0.14141405  0.37282496  0.33526187  1
  H+  H152  1  0.37413897  0.23857869  1.00450548  1
  H+  H153  1  0.35873125  0.45775425  0.35222590  1
  H+  H154  1  0.83808309  0.96340699  0.67326192  1
  H+  H155  1  0.14406977  0.77827033  -0.01360456  1
  H+  H156  1  0.49268331  0.11949259  0.83722579  1
  H+  H157  1  0.63771331  0.03177979  0.50621662  1
  H+  H158  1  0.36944755  0.48500044  0.82691884  1
  H+  H159  1  0.83062450  0.40654515  0.86544304  1
  H+  H160  1  0.88156260  0.12526421  0.98870744  1
  H+  H161  1  0.36516731  0.72411657  0.00138142  1
  H+  H162  1  0.00786884  0.89004380  0.32546913  1
  H+  H163  1  0.60242366  0.71468137  0.33578856  1
  H+  H164  1  0.37145135  0.51582361  0.65851239  1
  H+  H165  1  0.60601464  0.20773778  0.70079374  1
  H+  H166  1  0.25656733  0.91759629  0.33865033  1
  H+  H167  1  0.45258179  0.32568322  0.34333142  1
  H+  H168  1  0.36059178  0.89179091  0.17265689  1
  H+  H169  1  0.05169904  0.15864493  0.72260410  1
  H+  H170  1  0.47393156  0.11036112  0.66791081  1
  H+  H171  1  0.12756259  0.25299559  0.35358557  1
  H+  H172  1  0.91027909  0.54003733  0.68036785  1
  H+  H173  1  0.37055463  0.23832600  0.49439690  1
  H+  H174  1  0.12191242  0.87072882  0.16278505  1
  H+  H175  1  0.77948573  0.39388245  -0.04067806  1
  H+  H176  1  0.47755994  0.61416743  0.17767378  1
  H+  H177  1  0.38678807  0.61625847  0.83749383  1
  H+  H178  1  0.85805707  0.23140233  -0.00310561  1
  H+  H179  1  0.99831258  0.12202470  0.81179413  1
  H+  H180  1  0.89119751  0.03237218  0.13767692  1
  H+  H181  1  0.67952148  0.09660665  0.86725748  1
  H+  H182  1  0.53324260  0.14799833  0.33374662  1
  H+  H183  1  0.38846571  0.60746759  0.17028928  1
  H+  H184  1  0.35349858  0.63943817  0.68169813  1
  H+  H185  1  0.52814161  0.63880759  0.83697571  1
  H+  H186  1  0.15871430  0.12192753  0.50058580  1
  H+  H187  1  0.30281826  0.32747079  0.69781231  1
  H+  H188  1  0.38606396  0.86467214  0.85021068  1
  H+  H189  1  0.41105550  0.87303142  0.36332793  1
  H+  H190  1  0.86519548  0.77281181  0.22345623  1
  H+  H191  1  0.93198324  0.08670655  0.68642728  1
  H+  H192  1  0.78205383  0.90155105  -0.00402861  1
  H+  H193  1  0.62104961  0.38952690  1.00531467  1
  H+  H194  1  0.25724094  0.37521157  0.67426447  1
  H+  H195  1  0.39030554  0.36937895  0.84215670  1
  H+  H196  1  0.79163210  0.14944491  0.49849311  1
  H+  H197  1  0.99465565  0.37613334  0.51054482  1
  H+  H198  1  0.60324946  0.39076564  0.48747129  1
  H+  H199  1  0.51280211  0.89288490  0.50180797  1
  H+  H200  1  0.92456610  0.63673344  0.48790906  1
  H+  H201  1  0.32810026  0.91768667  0.23006660  1
  H+  H202  1  0.87531844  0.12853484  0.79539215  1
  H+  H203  1  0.40766350  0.76647480  0.30860061  1
  H+  H204  1  0.76903193  0.62814032  0.33779393  1
  H+  H205  1  0.13686143  0.12257654  0.13284254  1
  H+  H206  1  0.10510264  0.73867982  0.15285242  1
  H+  H207  1  0.88778090  0.53561525  0.18635788  1
  H+  H208  1  0.86149516  0.76100797  0.66022754  1
  H+  H209  1  0.01815418  0.65110337  0.33173698  1
  H+  H210  1  0.63159317  0.39287234  0.67936178  1
  H+  H211  1  0.11989367  0.74739221  0.82280730  1
  H+  H212  1  0.86372751  0.10405171  0.65680226  1
  H+  H213  1  0.13268697  0.37425208  0.65988975  1
  H+  H214  1  0.89142043  0.62654120  0.32809983  1
  H+  H215  1  0.11357032  0.75271118  0.32469412  1
  H+  H216  1  0.89925908  0.62154342  0.67242913  1
  H+  H217  1  0.00708052  0.15825818  -0.00174290  1
  H+  H218  1  0.51682425  0.62178903  0.33701975  1
  H+  H219  1  1.02063131  0.88409926  0.99581412  1
  H+  H220  1  0.22848259  0.87382353  0.99067879  1
  H+  H221  1  0.36314874  0.73039842  0.83639155  1
  H+  H222  1  0.39492826  0.03647389  0.17902167  1
  H+  H223  1  0.53212847  0.89905118  0.15611140  1
  H+  H224  1  0.39695961  0.36846169  0.99619257  1
  H+  H225  1  0.16335987  0.47086897  0.12788538  1
  H+  H226  1  0.34736448  0.66203339  0.08125436  1
  H+  H227  1  0.23861511  0.12520555  0.67154048  1
  H+  H228  1  0.78048500  0.39204756  0.18395228  1
  H+  H229  1  0.86609210  0.89464216  0.82751850  1
  H+  H230  1  0.36559414  0.23237137  0.83353234  1
  H+  H231  1  0.63083444  0.35117796  0.17257403  1
  H+  H232  1  0.77589851  0.64555227  0.01466265  1
  H+  H233  1  0.22698024  0.87676123  0.67237355  1
  H+  H234  1  0.95406087  0.04823982  0.31873750  1
  H+  H235  1  0.86696758  0.48517186  -0.04111792  1
  H+  H236  1  0.38695279  0.26092136  0.15829477  1
  H+  H237  1  -0.01807190  0.62244423  -0.00898096  1
  H+  H238  1  0.97455490  0.12383490  0.14274631  1
  H+  H239  1  0.26633537  0.64277883  0.68015161  1
  H+  H240  1  0.70812560  0.84428674  0.33982297  1
  H+  H241  1  0.62487810  0.88050363  0.51823492  1
  H+  H242  1  1.03616385  0.65521388  0.67472113  1
  H+  H243  1  0.60138522  0.63742885  0.01147304  1
  H+  H244  1  0.09640431  0.30363476  0.00257770  1
  H+  H245  1  0.77790921  0.63559053  0.67605105  1
  H+  H246  1  0.65069393  0.52783609  0.65761519  1
  H+  H247  1  0.89671665  0.36853473  -0.03666838  1
  H+  H248  1  0.11941287  0.90098068  0.82748554  1
  H+  H249  1  0.72495084  0.13375080  0.96769306  1
  H+  H250  1  0.63073040  0.60214797  0.32319687  1
  H+  H251  1  0.33012268  0.63873403  0.42725499  1
  H+  H252  1  0.03871015  0.40807528  0.34458097  1
  H+  H253  1  0.91316664  0.03130887  0.79745510  1
  H+  H254  1  0.36153545  0.97767088  0.83720704  1
  H+  H255  1  0.08306540  0.67685411  0.47619066  1
  H+  H256  1  0.71299479  0.85898949  0.66279897  1
  H+  H257  1  0.62219413  -0.01695436  0.16018401  1
  H+  H258  1  0.97406496  0.62600469  0.17069361  1
  H+  H259  1  0.88318626  0.27613009  0.65639031  1
  H+  H260  1  0.39098796  0.58191406  0.60452365  1
  H+  H261  1  0.92583231  0.31965815  0.91838618  1
  H+  H262  1  0.13553436  0.00843864  0.67992851  1
  H+  H263  1  0.76046102  0.13599646  0.66951155  1
  H+  H264  1  0.62366798  0.36036501  0.83700891  1
  H+  H265  1  0.69951968  0.28143383  0.62625970  1
  H+  H266  1  1.02554015  0.39470972  0.67337218  1
  H+  H267  1  0.37925225  0.60232029  0.98590499  1
  H+  H268  1  0.85923628  0.14424918  0.14191314  1
  H+  H269  1  0.12595620  0.20197814  0.79631840  1
  H+  H270  1  0.82566026  0.23249853  0.35747126  1
  H+  H271  1  0.81411012  0.77887664  0.60791815  1
  H+  H272  1  0.37733411  0.58851645  0.33787036  1
  H+  H273  1  0.89307572  0.62512435  0.99568393  1
  H+  H274  1  0.36997272  0.47226334  0.16539903  1
  H+  H275  1  0.86086996  0.64833340  0.82981895  1
  H+  H276  1  0.22509400  0.12004046  0.13752232  1
  H+  H277  1  0.13761241  0.48856855  0.50565749  1
  H+  H278  1  0.58230798  0.21313319  0.83107990  1
  H+  H279  1  0.16816997  0.84661320  0.89620559  1
  H+  H280  1  0.63759955  0.02576578  0.32785421  1
  H+  H281  1  0.90423654  0.08097308  0.36095513  1
  H+  H282  1  0.59764454  -0.04324547  0.69287912  1
  H+  H283  1  0.63889580  0.13713767  -0.03695392  1
  H+  H284  1  0.15102968  0.12721474  0.67938114  1
  H+  H285  1  1.03817612  0.89613883  0.48924541  1
  H+  H286  1  0.97858595  0.87103197  0.83666900  1
  H+  H287  1  0.86664052  0.23623784  0.15326748  1
  H+  H288  1  0.66259225  0.84878799  0.58219306  1
  H+  H289  1  0.41257934  0.07876434  0.91621944  1
  H+  H290  1  0.84686821  0.15562496  0.44287211  1
  H+  H291  1  0.58844994  0.17453749  0.39432151  1
  H+  H292  1  0.39835777  0.11760459  0.99257079  1
  H+  H293  1  0.84609436  0.42846978  0.38836157  1
  H+  H294  1  0.66017091  0.32737156  0.23749825  1
  H+  H295  1  0.93318889  0.84220332  0.55922784  1
  H+  H296  1  0.66896833  0.58881667  0.94401101  1
  H+  H297  1  0.84005543  0.68330232  0.07137320  1
  H+  H298  1  0.65301746  0.33036611  0.92843850  1
  H+  H299  1  0.10796736  0.19438176  0.42451111  1
  H+  H300  1  0.85136381  0.93264676  0.04939454  1
  H+  H301  1  0.48887727  0.77179221  0.27821052  1
  H+  H302  1  0.58327598  0.16537001  0.05162410  1
  H+  H303  1  0.35659259  0.20331570  0.40181588  1
  H+  H304  1  0.11664835  0.98845900  0.83363184  1
  H+  H305  1  0.67446557  0.82885246  0.91582191  1
  H+  H306  1  0.40580862  0.14787502  0.32347017  1
  H+  H307  1  0.54255270  0.39068695  0.67246079  1
  H+  H308  1  0.14960358  0.83839560  0.25522693  1
  H+  H309  1  0.68122439  0.10304040  0.55765464  1
  H+  H310  1  0.85141856  0.72340404  0.33264029  1
  H+  H311  1  0.06830334  0.90438371  0.09179464  1
  H+  H312  1  0.09642355  0.93852520  0.74120761  1
  H+  H313  1  0.92438602  0.60566064  0.90125452  1
  H+  H314  1  0.60514930  0.25873401  0.61611914  1
  H+  H315  1  0.41605242  0.83166679  0.94667118  1
  H+  H316  1  0.42617808  0.10398283  0.23278070  1
  H+  H317  1  0.42045567  0.08947290  0.60429807  1
  H+  H318  1  0.87856312  0.06242924  0.25245174  1
  H+  H319  1  0.37452098  0.36622815  0.51777076  1
  H+  H320  1  0.41019489  0.83371323  0.60360839  1
  H+  H321  1  0.72643848  0.86709515  0.85197142  1
  H+  H322  1  0.33674727  0.92116150  0.77544219  1
  H+  H323  1  0.60255408  0.04214957  0.62783848  1
  H+  H324  1  0.37857562  0.23488167  0.67685944  1
  H+  H325  1  0.92504698  0.60304260  0.26666643  1
  H+  H326  1  0.60313305  0.72690466  0.00426128  1
  H+  H327  1  0.67753450  0.09592206  0.23281677  1
  H+  H328  1  0.65090245  0.11958632  0.32899335  1
  H+  H329  1  0.59211868  0.43174969  0.77203460  1
  H+  H330  1  0.41162111  0.57895283  0.89547633  1
  H+  H331  1  0.23949400  0.79839742  0.46431951  1
  H+  H332  1  0.56970302  0.41082205  0.39933133  1
  H+  H333  1  0.28892803  0.39517674  0.45497630  1
  H+  H334  1  0.43146448  0.34266609  0.60075495  1
  H+  H335  1  0.17624544  0.08878371  0.91510001  1
  H+  H336  1  0.87210030  0.42684139  0.05341639  1
  H+  H337  1  0.90970079  0.12857776  0.51507193  1
  H+  H338  1  0.09681877  0.68905931  0.73334471  1
  H+  H339  1  0.83961487  0.67423221  0.43108770  1
  H+  H340  1  0.86978607  0.44227913  0.08478896  1
  H+  H341  1  0.83483332  0.40723813  0.78950475  1
  H+  H342  1  0.82115808  0.90999116  0.77027364  1
  H+  H343  1  0.82144410  0.17461982  0.05682077  1
  H+  H344  1  0.35365494  0.89846883  0.01537618  1
  H+  H345  1  0.34133521  0.41351387  0.06461437  1
  H+  H346  1  0.02646006  0.38359509  0.81989507  1
  H+  H347  1  0.39389653  0.77155744  0.51195835  1
  H+  H348  1  0.09916102  0.64742705  0.16148769  1
  H+  H349  1  0.35901350  0.88844562  0.67737098  1
  H+  H350  1  0.77918063  0.12006076  0.80933375  1
  H+  H351  1  0.47372669  0.86073138  0.85213439  1
  H+  H352  1  0.33487183  0.17057332  0.77572992  1
  H+  H353  1  0.37484427  0.14889005  0.15485513  1
  H+  H354  1  0.83191066  0.67157043  0.73817719  1
  H+  H355  1  0.82914703  0.16568132  0.72358620  1
  H+  H356  1  0.78467340  0.02593505  0.40757166  1
  H+  H357  1  0.66690190  0.56113589  0.23972435  1
  H+  H358  1  0.91776458  0.83870055  0.89547327  1
  H+  H359  1  0.62421502  0.50985421  0.32802763  1
  H+  H360  1  0.55648268  0.14592967  0.76107509  1
  H+  H361  1  0.30881855  0.92587728  0.39802889  1
  H+  H362  1  0.10390709  0.43113261  0.44433262  1
  H+  H363  1  0.81063597  0.91965395  0.43468889  1
  H+  H364  1  0.58246222  0.65437493  0.42956518  1
  H+  H365  1  0.16784397  0.57505767  0.93696024  1
  H+  H366  1  0.42022383  0.81540246  0.20799183  1
  H+  H367  1  0.67504320  0.58199563  0.56141390  1
  H+  H368  1  0.33269736  0.41745109  0.77143685  1
  H+  H369  1  0.93105007  0.08643800  0.57058272  1
  H+  H370  1  0.67877162  0.34909622  0.54544971  1
  H+  H371  1  0.08507066  0.66957383  0.05880728  1
  H+  H372  1  0.52692957  0.14039333  0.16662767  1
  H+  H373  1  0.18114708  0.59106445  0.57614337  1
  H+  H374  1  0.34976966  0.18070828  0.09109127  1
  H+  H375  1  0.16502962  0.59581192  0.28611658  1
  H+  H376  1  0.63413206  0.61570292  0.85319762  1
  H+  H377  1  0.42725289  0.34009887  0.93560414  1
  H+  H378  1  0.14259656  0.01599412  0.99910718  1
  H+  H379  1  0.94463063  0.35707437  0.22585746  1
  H+  H380  1  0.13737569  0.24526055  0.50479830  1
  H+  H381  1  0.86605521  0.01572627  0.25223600  1
  H+  H382  1  0.57118702  0.88876912  0.78153026  1
  H+  H383  1  0.33230289  0.67533165  0.77459178  1
  O2-  O384  1  0.08469944  0.17637215  0.13366471  1
  O2-  O385  1  0.10380882  0.18618348  0.48729388  1
  O2-  O386  1  0.10448825  0.18787519  0.83843610  1
  O2-  O387  1  0.10728839  0.41969732  0.13384792  1
  O2-  O388  1  0.10836579  0.42722759  0.48914304  1
  O2-  O389  1  0.08602415  0.42148821  0.80494362  1
  O2-  O390  1  0.07458628  0.67702864  0.13866054  1
  O2-  O391  1  0.14484397  0.69673940  0.47016566  1
  O2-  O392  1  0.09110778  0.68861654  0.80515117  1
  O2-  O393  1  0.07048132  0.91270779  0.13686954  1
  O2-  O394  1  0.09777929  0.92823652  0.47103124  1
  O2-  O395  1  0.08794715  0.93156464  0.81266006  1
  O2-  O396  1  0.34748719  0.18141708  0.13860182  1
  O2-  O397  1  0.34963663  0.18265835  0.47295906  1
  O2-  O398  1  0.33149935  0.17059233  0.82077471  1
  O2-  O399  1  0.34181315  0.41158019  0.15062923  1
  O2-  O400  1  0.29080611  0.40238384  0.50008259  1
  O2-  O401  1  0.33907493  0.42156798  0.81603234  1
  O2-  O402  1  0.35461288  0.66801706  0.12816136  1
  O2-  O403  1  0.35181517  0.66718128  0.49171215  1
  O2-  O404  1  0.33519386  0.67052965  0.81953249  1
  O2-  O405  1  0.33197872  0.92495445  0.18596758  1
  O2-  O406  1  0.29085434  0.85728873  0.46873425  1
  O2-  O407  1  0.33310398  0.91691632  0.82053498  1
  O2-  O408  1  0.59014321  0.17284191  0.15375981  1
  O2-  O409  1  0.58349958  0.17585031  0.47355679  1
  O2-  O410  1  0.55288906  0.15209754  0.81735850  1
  O2-  O411  1  0.58336285  0.39935183  0.14334733  1
  O2-  O412  1  0.57084081  0.42030602  0.47668650  1
  O2-  O413  1  0.58613736  0.42654427  0.81681842  1
  O2-  O414  1  0.58303232  0.69238085  0.14152447  1
  O2-  O415  1  0.58735441  0.65750509  0.47457541  1
  O2-  O416  1  0.59097130  0.66607746  0.83020751  1
  O2-  O417  1  0.59434369  0.92130764  0.15113095  1
  O2-  O418  1  0.57638190  0.92548331  0.48983413  1
  O2-  O419  1  0.57620101  0.90098158  0.82559302  1
  O2-  O420  1  0.82746371  0.17757360  0.13793804  1
  O2-  O421  1  0.85233307  0.17605779  0.48551645  1
  O2-  O422  1  0.84160924  0.15845809  0.79265177  1
  O2-  O423  1  0.84183805  0.43076981  0.19196987  1
  O2-  O424  1  0.85074447  0.42623299  0.46430760  1
  O2-  O425  1  0.81032311  0.37283967  0.82686970  1
  O2-  O426  1  0.83897756  0.68695382  0.15798106  1
  O2-  O427  1  0.84582171  0.67731731  0.47607359  1
  O2-  O428  1  0.82621689  0.67378399  0.81456970  1
  O2-  O429  1  0.86739780  0.92132415  0.12758182  1
  O2-  O430  1  0.79911836  0.95213853  0.46679672  1
  O2-  O431  1  0.83730698  0.92691203  0.81335714  1
  O2-  O432  1  0.16558229  0.08846955  0.12252279  1
  O2-  O433  1  0.19274892  0.09334592  0.50478400  1
  O2-  O434  1  0.17227954  0.08954354  0.87031257  1
  O2-  O435  1  0.17505485  0.33108346  0.19248221  1
  O2-  O436  1  0.19879559  0.35319173  0.51969320  1
  O2-  O437  1  0.17619261  0.36417543  0.85864798  1
  O2-  O438  1  0.12380901  0.57213733  0.20685138  1
  O2-  O439  1  0.18704253  0.58512985  0.53130954  1
  O2-  O440  1  0.17198101  0.57749975  0.86840923  1
  O2-  O441  1  0.15139671  0.83861187  0.18033726  1
  O2-  O442  1  0.22565824  0.92698639  0.53981321  1
  O2-  O443  1  0.16818835  0.85170756  0.85071771  1
  O2-  O444  1  0.42859310  0.09974294  0.18708569  1
  O2-  O445  1  0.41962743  0.09425650  0.52075621  1
  O2-  O446  1  0.40485282  0.07331519  0.86578767  1
  O2-  O447  1  0.42150527  0.32831728  0.17661068  1
  O2-  O448  1  0.41143470  0.34141867  0.52700540  1
  O2-  O449  1  0.41974916  0.33757657  0.85641973  1
  O2-  O450  1  0.41699292  0.57891763  0.19108550  1
  O2-  O451  1  0.39797081  0.62478712  0.51921976  1
  O2-  O452  1  0.41563075  0.58309016  0.84994673  1
  O2-  O453  1  0.41600879  0.83813825  0.16771240  1
  O2-  O454  1  0.41360852  0.83339749  0.52293078  1
  O2-  O455  1  0.41264628  0.83156704  0.86652989  1
  O2-  O456  1  0.67291493  0.10063904  0.18797526  1
  O2-  O457  1  0.67472870  0.09547433  0.51367031  1
  O2-  O458  1  0.68659615  0.07794044  0.82572509  1
  O2-  O459  1  0.65975005  0.32068429  0.19147267  1
  O2-  O460  1  0.67421647  0.34796384  0.50088372  1
  O2-  O461  1  0.64175283  0.31885797  0.85139171  1
  O2-  O462  1  0.67025950  0.55793961  0.19328864  1
  O2-  O463  1  0.67346485  0.58015002  0.51592850  1
  O2-  O464  1  0.66518009  0.58336181  0.86706804  1
  O2-  O465  1  0.72129932  0.83685375  0.20678638  1
  O2-  O466  1  0.66368336  0.85740809  0.53242314  1
  O2-  O467  1  0.66797567  0.83303655  0.86879526  1
  O2-  O468  1  0.91081891  0.09371640  0.14299667  1
  O2-  O469  1  0.93920506  0.09580954  0.52598706  1
  O2-  O470  1  0.94938630  0.09218699  0.78264744  1
  O2-  O471  1  0.93614340  0.34833154  0.18097180  1
  O2-  O472  1  0.93239626  0.34693643  0.52086212  1
  O2-  O473  1  0.92064821  0.31088844  0.84493972  1
  O2-  O474  1  0.91795563  0.59976327  0.19268586  1
  O2-  O475  1  0.96461449  0.61422741  0.48753108  1
  O2-  O476  1  0.92321774  0.60713875  0.85518119  1
  O2-  O477  1  0.86004697  0.81922114  0.24386934  1
  O2-  O478  1  0.93935728  0.84473524  0.51485489  1
  O2-  O479  1  0.91736735  0.83990001  0.84979188  1
  O2-  O480  1  0.17628339  0.08913285  0.32348355  1
  O2-  O481  1  0.17583224  0.09342350  0.66184745  1
  O2-  O482  1  0.17463200  0.08067770  0.99861256  1
  O2-  O483  1  0.16601340  0.33622160  0.32156695  1
  O2-  O484  1  0.16137181  0.34008807  0.64720248  1
  O2-  O485  1  0.12415785  0.36645846  0.99165186  1
  O2-  O486  1  0.16621381  0.60131235  0.33078985  1
  O2-  O487  1  0.16875343  0.59631201  0.65245451  1
  O2-  O488  1  0.16646422  0.57723409  0.98413114  1
  O2-  O489  1  0.15007502  0.83742252  0.30124277  1
  O2-  O490  1  0.16738041  0.85398105  0.65604713  1
  O2-  O491  1  0.16798373  0.83855368  0.97269709  1
  O2-  O492  1  0.42556417  0.10790675  0.30964218  1
  O2-  O493  1  0.41515297  0.08521065  0.64928670  1
  O2-  O494  1  0.42458762  0.08469689  0.97726834  1
  O2-  O495  1  0.38847813  0.29585979  0.33835151  1
  O2-  O496  1  0.44028552  0.34475018  0.64622852  1
  O2-  O497  1  0.42972441  0.33914086  0.98099829  1
  O2-  O498  1  0.40871410  0.56193671  0.31852569  1
  O2-  O499  1  0.39884674  0.57692018  0.64849407  1
  O2-  O500  1  0.40887027  0.57075290  0.97194292  1
  O2-  O501  1  0.43050473  0.75942726  0.27012747  1
  O2-  O502  1  0.41096206  0.83437954  0.64902386  1
  O2-  O503  1  0.41437125  0.82448999  0.99171190  1
  O2-  O504  1  0.67738676  0.08545833  0.31443719  1
  O2-  O505  1  0.63992666  0.06691024  0.66298829  1
  O2-  O506  1  0.67647829  0.12126667  0.94048423  1
  O2-  O507  1  0.66931937  0.34064009  0.31052876  1
  O2-  O508  1  0.66154937  0.30569008  0.62814334  1
  O2-  O509  1  0.66796857  0.33819267  0.97276184  1
  O2-  O510  1  0.65962294  0.56900464  0.31079012  1
  O2-  O511  1  0.67946262  0.58665724  0.64031171  1
  O2-  O512  1  0.66911196  0.59086457  0.98987157  1
  O2-  O513  1  0.65066720  0.82677392  0.31976836  1
  O2-  O514  1  0.65443898  0.83182631  0.64207188  1
  O2-  O515  1  0.68141787  0.81895117  0.98317858  1
  O2-  O516  1  0.95485409  0.07195380  0.35877320  1
  O2-  O517  1  0.89490429  0.07092534  0.65044288  1
  O2-  O518  1  0.92040917  0.10475098  0.97298362  1
  O2-  O519  1  0.94642873  0.37695773  0.30294760  1
  O2-  O520  1  0.91586569  0.33864750  0.64621756  1
  O2-  O521  1  0.92428245  0.33238296  0.96323622  1
  O2-  O522  1  0.92699091  0.60087479  0.31264880  1
  O2-  O523  1  0.93446446  0.59585309  0.65974880  1
  O2-  O524  1  0.92154644  0.59662075  0.97506861  1
  O2-  O525  1  0.88994819  0.82117331  0.30751672  1
  O2-  O526  1  0.86330995  0.80934949  0.63498628  1
  O2-  O527  1  0.91555917  0.83865596  0.97156279  1
  O2-  O528  1  0.06968567  0.19975265  0.01493820  1
  O2-  O529  1  0.10579245  0.19317967  0.37521797  1
  O2-  O530  1  0.11249847  0.19154458  0.71103494  1
  O2-  O531  1  0.07025918  0.39723305  0.01940729  1
  O2-  O532  1  0.09731798  0.43192729  0.36280970  1
  O2-  O533  1  0.08675189  0.42568253  0.68611392  1
  O2-  O534  1  0.08589958  0.66701405  0.01368509  1
  O2-  O535  1  0.08270709  0.68972503  0.34411931  1
  O2-  O536  1  0.09877666  0.68955518  0.68688812  1
  O2-  O537  1  0.07943910  0.91046275  0.01368604  1
  O2-  O538  1  0.06765207  0.91452324  0.34075685  1
  O2-  O539  1  0.10108823  0.94169880  0.69468129  1
  O2-  O540  1  0.34629535  0.17941929  0.02335891  1
  O2-  O541  1  0.35648398  0.20526590  0.35490039  1
  O2-  O542  1  0.34378119  0.17591184  0.69319424  1
  O2-  O543  1  0.34206706  0.40907441  0.02007625  1
  O2-  O544  1  0.32027041  0.40033289  0.37098742  1
  O2-  O545  1  0.31480009  0.38598951  0.69031346  1
  O2-  O546  1  0.33573544  0.66013315  0.01286314  1
  O2-  O547  1  0.30826704  0.61033494  0.38342441  1
  O2-  O548  1  0.32795236  0.67440940  0.69491085  1
  O2-  O549  1  0.32175525  0.92917938  0.02034424  1
  O2-  O550  1  0.31176700  0.95489570  0.35898191  1
  O2-  O551  1  0.33123165  0.91997850  0.69460684  1
  O2-  O552  1  0.57940560  0.17467449  0.00840469  1
  O2-  O553  1  0.59362335  0.17509872  0.34909017  1
  O2-  O554  1  0.56645709  0.14691205  0.70797618  1
  O2-  O555  1  0.59136985  0.41829461  0.02526799  1
  O2-  O556  1  0.56493967  0.40352657  0.35393372  1
  O2-  O557  1  0.60149671  0.42338656  0.69065760  1
  O2-  O558  1  0.56777701  0.66596568  0.02220486  1
  O2-  O559  1  0.57896540  0.65387075  0.34843115  1
  O2-  O560  1  0.58032034  0.65221192  0.66569307  1
  O2-  O561  1  0.57958788  0.88883994  0.02709823  1
  O2-  O562  1  0.58712027  0.92189945  0.36529863  1
  O2-  O563  1  0.56764066  0.89361386  0.69815346  1
  O2-  O564  1  0.82350469  0.17136173  0.01178941  1
  O2-  O565  1  0.81109079  0.07802709  0.38197563  1
  O2-  O566  1  0.82293943  0.16677936  0.67694695  1
  O2-  O567  1  0.83970537  0.42526423  -0.05682601  1
  O2-  O568  1  0.84224642  0.43051320  0.34272574  1
  O2-  O569  1  0.85362236  0.42605419  0.70843326  1
  O2-  O570  1  0.83812916  0.67849461  0.02634040  1
  O2-  O571  1  0.82991795  0.66380623  0.35056337  1
  O2-  O572  1  0.83743473  0.67068513  0.69272236  1
  O2-  O573  1  0.84611903  0.93506905  0.00467527  1
  O2-  O574  1  0.80780636  0.88096908  0.36137261  1
  O2-  O575  1  0.80747026  0.90389189  0.69010313  1
