# generated using pymatgen
data_H2O
_symmetry_space_group_name_H-M   'P 1'
_cell_length_a   17.97518119
_cell_length_b   17.96869527
_cell_length_c   21.97704659
_cell_angle_alpha   90.03525423
_cell_angle_beta   89.98517511
_cell_angle_gamma   119.98027340
_symmetry_Int_Tables_number   1
_chemical_formula_structural   H2O
_chemical_formula_sum   'H384 O192'
_cell_volume   6148.59647556
_cell_formula_units_Z   192
loop_
 _symmetry_equiv_pos_site_id
 _symmetry_equiv_pos_as_xyz
  1  'x, y, z'
loop_
 _atom_type_symbol
 _atom_type_oxidation_number
  H+  1.0
  O2-  -2.0
loop_
 _atom_site_type_symbol
 _atom_site_label
 _atom_site_symmetry_multiplicity
 _atom_site_fract_x
 _atom_site_fract_y
 _atom_site_fract_z
 _atom_site_occupancy
  H+  H0  1  0.11247060  0.62815688  1.00421658  1
  H+  H1  1  0.26608141  0.39396298  0.82245443  1
  H+  H2  1  0.15140298  0.52595046  -0.00945285  1
  H+  H3  1  0.46481197  0.91880911  0.71583653  1
  H+  H4  1  0.03366488  0.39383279  0.48667398  1
  H+  H5  1  -0.04058613  0.94093818  0.36603950  1
  H+  H6  1  0.38968302  0.27408151  0.85469988  1
  H+  H7  1  0.01563371  0.13117652  0.67192006  1
  H+  H8  1  0.47928303  0.11098453  0.31359128  1
  H+  H9  1  0.38338169  0.37119422  0.16092428  1
  H+  H10  1  0.27719003  0.42898023  0.13301290  1
  H+  H11  1  0.38389202  0.13758111  0.33146400  1
  H+  H12  1  0.52641154  0.25350144  0.44546850  1
  H+  H13  1  0.89914929  0.87054444  0.17212573  1
  H+  H14  1  0.61746162  0.48188708  0.15195344  1
  H+  H15  1  0.38265301  0.76821142  0.31499331  1
  H+  H16  1  0.73817443  0.10910512  0.03014806  1
  H+  H17  1  0.13952948  0.78054547  0.16449671  1
  H+  H18  1  0.42443299  0.32741118  0.94069979  1
  H+  H19  1  0.52047048  0.88162921  -0.01348359  1
  H+  H20  1  0.90247581  0.27154103  0.49178953  1
  H+  H21  1  0.88439306  0.27487524  0.17390465  1
  H+  H22  1  0.89326867  0.76359938  0.51724139  1
  H+  H23  1  0.12505567  0.60003333  0.31839858  1
  H+  H24  1  0.11128196  0.13685668  0.48560118  1
  H+  H25  1  0.10153410  0.21028636  0.16034314  1
  H+  H26  1  0.36429925  0.97900574  0.15196650  1
  H+  H27  1  0.16316336  0.82205290  0.90538607  1
  H+  H28  1  0.63302855  0.22098284  0.66288722  1
  H+  H29  1  0.90037095  0.12300489  0.31690283  1
  H+  H30  1  0.14895972  0.52948161  0.65903299  1
  H+  H31  1  0.34858688  1.03099987  0.74239032  1
  H+  H32  1  0.34256799  0.13405765  0.84160802  1
  H+  H33  1  0.83322853  0.41221144  0.58363526  1
  H+  H34  1  0.13511524  0.27253635  0.50218952  1
  H+  H35  1  0.38119893  0.77378178  0.16182709  1
  H+  H36  1  0.88603018  0.61070967  0.65410338  1
  H+  H37  1  0.89178612  0.01097434  1.00109858  1
  H+  H38  1  0.32828927  0.92051657  0.65236044  1
  H+  H39  1  0.82128325  0.88399264  0.32593966  1
  H+  H40  1  0.84750544  -0.01729118  0.32454561  1
  H+  H41  1  0.12941400  0.12248964  0.65695980  1
  H+  H42  1  0.41204019  0.75028502  0.64544879  1
  H+  H43  1  0.11859398  0.11161003  0.85400550  1
  H+  H44  1  0.77401098  0.64050279  0.83995517  1
  H+  H45  1  0.60793053  0.87863042  0.49076935  1
  H+  H46  1  0.03273536  0.14070485  0.32638144  1
  H+  H47  1  0.34813891  0.91722696  0.05358277  1
  H+  H48  1  0.85419732  -0.01980077  0.82316661  1
  H+  H49  1  0.71866431  0.09671206  0.18449357  1
  H+  H50  1  0.60285160  0.13133251  0.32746317  1
  H+  H51  1  0.36758625  0.34392041  0.51074064  1
  H+  H52  1  0.97102822  0.84859408  0.87584547  1
  H+  H53  1  0.83394989  0.88202403  0.66969540  1
  H+  H54  1  0.21986154  0.33095147  0.18365771  1
  H+  H55  1  0.61150573  0.24344142  0.16135928  1
  H+  H56  1  0.11939708  0.76819284  0.69892124  1
  H+  H57  1  0.02613861  0.89229955  0.16838228  1
  H+  H58  1  0.72280738  0.10917253  0.82256756  1
  H+  H59  1  0.89538630  0.27394103  0.65296344  1
  H+  H60  1  0.85717904  0.38216649  0.14626205  1
  H+  H61  1  0.88039020  0.52687259  -0.00146615  1
  H+  H62  1  0.79074665  0.13876781  0.48104681  1
  H+  H63  1  0.63969625  0.76419924  0.84400732  1
  H+  H64  1  0.35927133  0.97154653  0.85004701  1
  H+  H65  1  0.85829924  0.62582842  0.34399026  1
  H+  H66  1  0.10415997  0.22245769  0.67381447  1
  H+  H67  1  0.35182970  0.87009608  0.48548762  1
  H+  H68  1  0.59590930  0.88264729  0.33647125  1
  H+  H69  1  0.85850566  0.62485506  0.50102057  1
  H+  H70  1  0.97740921  0.10848031  0.50367242  1
  H+  H71  1  0.61154189  0.01766738  0.32768655  1
  H+  H72  1  0.61488692  0.72213294  0.00450176  1
  H+  H73  1  0.11327728  0.72246518  0.83142050  1
  H+  H74  1  0.98071739  0.85302755  0.51229681  1
  H+  H75  1  0.59717283  0.63042653  0.49384026  1
  H+  H76  1  0.88567444  0.64584602  0.19642900  1
  H+  H77  1  0.62140732  0.77347512  0.32341245  1
  H+  H78  1  0.50440695  0.12140835  0.63954777  1
  H+  H79  1  0.85929531  0.13713849  0.82966012  1
  H+  H80  1  0.86470312  0.64193392  0.83860015  1
  H+  H81  1  0.89008884  0.11516956  0.65791907  1
  H+  H82  1  0.38706406  0.86594469  0.87859649  1
  H+  H83  1  0.50871542  0.63111721  0.49677440  1
  H+  H84  1  -0.01887654  0.36856774  0.82914092  1
  H+  H85  1  0.28848620  0.64892112  0.83174419  1
  H+  H86  1  0.23548103  0.85579351  0.99153098  1
  H+  H87  1  0.23007378  0.86559901  0.46163330  1
  H+  H88  1  0.15875222  0.05098963  0.65388093  1
  H+  H89  1  0.52067253  0.87574232  0.84201440  1
  H+  H90  1  0.64044639  0.60452145  0.84228166  1
  H+  H91  1  0.85984323  0.22650017  0.82479745  1
  H+  H92  1  0.46567378  0.11453740  0.83776172  1
  H+  H93  1  0.72599399  0.36295114  0.64711369  1
  H+  H94  1  0.14063353  0.61287807  0.16621717  1
  H+  H95  1  0.31787620  0.87470863  0.64863839  1
  H+  H96  1  0.09262590  0.97156312  0.85731991  1
  H+  H97  1  0.39019585  0.36139085  0.99553082  1
  H+  H98  1  0.12962111  0.36111499  0.83788133  1
  H+  H99  1  0.11401798  0.38298000  0.15445515  1
  H+  H100  1  0.35859382  0.25101151  0.51385440  1
  H+  H101  1  0.97857418  0.11116877  0.21313357  1
  H+  H102  1  0.87921395  0.22065206  0.33282392  1
  H+  H103  1  -0.06775769  0.83928458  0.67728491  1
  H+  H104  1  0.91285866  0.57687995  0.90179041  1
  H+  H105  1  0.72550459  0.36242359  0.16319085  1
  H+  H106  1  0.82782252  0.42106762  0.09136779  1
  H+  H107  1  0.46799825  0.11943654  0.48261173  1
  H+  H108  1  0.47243357  0.37111522  0.16356779  1
  H+  H109  1  0.39928424  0.62238819  0.83651317  1
  H+  H110  1  -0.02885059  0.36049816  0.33387013  1
  H+  H111  1  0.18436358  0.58837085  0.57337340  1
  H+  H112  1  0.47294791  0.60992419  0.32176336  1
  H+  H113  1  0.20597934  0.11156955  0.86548933  1
  H+  H114  1  0.84486771  0.70808710  0.66321814  1
  H+  H115  1  0.82202873  0.75340478  0.31187097  1
  H+  H116  1  0.27024519  0.38361243  0.49272073  1
  H+  H117  1  0.11151080  0.87187548  0.00860730  1
  H+  H118  1  0.36703686  0.48014407  -0.00767465  1
  H+  H119  1  0.16099473  1.03653603  0.32776937  1
  H+  H120  1  0.42254352  0.21723898  0.37525869  1
  H+  H121  1  0.40384308  0.57366974  0.58286577  1
  H+  H122  1  0.13542572  0.09948299  0.95541540  1
  H+  H123  1  0.23102213  0.11367080  0.17016703  1
  H+  H124  1  0.60027693  0.25349805  0.47945959  1
  H+  H125  1  -0.01643680  0.61216121  0.50253283  1
  H+  H126  1  0.63316631  0.35994423  -0.01244597  1
  H+  H127  1  0.38182027  0.27870602  0.67249414  1
  H+  H128  1  0.39467047  0.62377696  0.16548660  1
  H+  H129  1  0.36262467  0.38928334  0.33786882  1
  H+  H130  1  0.59198210  0.15961786  0.71966110  1
  H+  H131  1  0.12385748  0.14551810  0.33300870  1
  H+  H132  1  0.38469380  0.11981923  0.16754768  1
  H+  H133  1  0.12264547  0.88933951  0.16613725  1
  H+  H134  1  0.35539477  0.59285008  0.53113667  1
  H+  H135  1  0.47116735  0.85927255  0.31940258  1
  H+  H136  1  0.03141616  0.39282378  0.66614700  1
  H+  H137  1  0.14790653  0.61447372  0.84049740  1
  H+  H138  1  0.76929349  0.38445728  0.81947783  1
  H+  H139  1  0.51778910  0.38000439  0.67253301  1
  H+  H140  1  -0.01775644  0.09856731  -0.00308275  1
  H+  H141  1  0.89580171  0.36215694  0.63783206  1
  H+  H142  1  0.36216939  0.88851753  0.15377191  1
  H+  H143  1  0.35503700  0.22595330  0.00883421  1
  H+  H144  1  0.65609049  0.02587221  0.49637174  1
  H+  H145  1  0.06863956  0.86045323  0.71400518  1
  H+  H146  1  0.05402879  0.94020418  0.70554001  1
  H+  H147  1  0.11953898  0.48028369  0.82272577  1
  H+  H148  1  0.18753066  0.85814117  0.72791235  1
  H+  H149  1  0.76353906  0.61598063  0.66137465  1
  H+  H150  1  0.51999150  0.13618034  0.01210152  1
  H+  H151  1  0.23729184  0.61977792  0.98893672  1
  H+  H152  1  0.53197307  0.63745678  0.15911735  1
  H+  H153  1  0.61924213  0.47107497  0.82490167  1
  H+  H154  1  0.83446734  0.91596954  0.07524261  1
  H+  H155  1  0.27684166  0.63724142  0.14673768  1
  H+  H156  1  0.52748662  0.89443285  0.49774943  1
  H+  H157  1  0.65564320  0.32726016  0.59746145  1
  H+  H158  1  0.36153437  0.63690980  0.32802109  1
  H+  H159  1  0.38389685  0.52559948  0.83294933  1
  H+  H160  1  0.88593759  0.50517788  0.17216389  1
  H+  H161  1  0.11853992  0.39057490  0.66946980  1
  H+  H162  1  0.60787488  0.38046101  0.67190518  1
  H+  H163  1  0.61556543  0.47859031  0.48803284  1
  H+  H164  1  0.62114335  0.48443589  0.32929305  1
  H+  H165  1  0.21413463  0.10219159  0.50033202  1
  H+  H166  1  0.28181627  0.88273072  0.33054536  1
  H+  H167  1  0.76429758  0.37649303  0.34422409  1
  H+  H168  1  0.12698583  0.39216683  0.34117970  1
  H+  H169  1  0.37285480  0.06377952  0.67416720  1
  H+  H170  1  0.37097653  0.64652593  -0.00599192  1
  H+  H171  1  0.51798380  0.37519209  1.00808678  1
  H+  H172  1  0.89275491  0.72020652  0.36610151  1
  H+  H173  1  0.62285007  0.77090651  0.49995438  1
  H+  H174  1  0.63771045  0.36554307  0.31748992  1
  H+  H175  1  0.02344591  0.63178247  0.00726212  1
  H+  H176  1  0.86136031  0.13336555  0.20231402  1
  H+  H177  1  0.86269551  0.39887627  0.99337875  1
  H+  H178  1  0.10825134  0.12584534  0.16214045  1
  H+  H179  1  0.37768084  -0.10809931  0.99011925  1
  H+  H180  1  0.96470218  0.83479570  1.01816419  1
  H+  H181  1  0.10416152  0.22517107  0.82732119  1
  H+  H182  1  0.23216936  0.36213367  -0.01103576  1
  H+  H183  1  0.62852823  0.60851736  0.66043386  1
  H+  H184  1  0.58960558  0.88274832  0.73093665  1
  H+  H185  1  0.14041402  0.36432689  0.50325118  1
  H+  H186  1  0.87575229  0.47627213  0.49811038  1
  H+  H187  1  0.61102284  0.64236764  0.33874078  1
  H+  H188  1  1.03304100  0.39370641  0.99632828  1
  H+  H189  1  0.79893019  0.64677400  0.19238759  1
  H+  H190  1  0.37132294  0.49764228  0.15260185  1
  H+  H191  1  0.87458150  0.74612343  0.86217150  1
  H+  H192  1  0.88625133  0.52399076  0.83889023  1
  H+  H193  1  0.24495141  0.12979068  0.32550160  1
  H+  H194  1  0.60430751  -0.04109812  0.81928371  1
  H+  H195  1  0.27369405  0.63701100  0.32999871  1
  H+  H196  1  0.72692056  0.61266123  0.11956055  1
  H+  H197  1  0.35708687  0.38686099  0.66929494  1
  H+  H198  1  0.63460805  0.00725949  0.17179340  1
  H+  H199  1  -0.02917535  0.11594850  0.84310901  1
  H+  H200  1  0.11930116  0.63933176  0.67827116  1
  H+  H201  1  0.37412899  0.73700214  0.84437070  1
  H+  H202  1  0.53050234  0.39802354  0.32864798  1
  H+  H203  1  0.42039970  0.58569189  0.92500948  1
  H+  H204  1  0.77559143  0.88176193  1.01476085  1
  H+  H205  1  0.88551941  0.20393366  0.05132097  1
  H+  H206  1  0.41495219  0.57131037  0.72286173  1
  H+  H207  1  0.01271282  0.62383615  0.33570300  1
  H+  H208  1  0.64046687  0.85962567  0.99337547  1
  H+  H209  1  0.74922808  0.61902148  0.02410350  1
  H+  H210  1  0.10462839  0.71187991  0.33270557  1
  H+  H211  1  0.86473529  0.97394164  0.18303188  1
  H+  H212  1  0.35684126  0.47724037  0.67309493  1
  H+  H213  1  0.65821604  0.82688686  0.22797233  1
  H+  H214  1  0.22188834  0.36031963  0.65908796  1
  H+  H215  1  0.88761726  0.29484608  0.97685490  1
  H+  H216  1  0.72906855  0.36290800  0.50767195  1
  H+  H217  1  0.87836834  0.13801814  0.48674488  1
  H+  H218  1  0.90563541  0.80283307  0.93550341  1
  H+  H219  1  0.14673773  0.26977155  0.99135325  1
  H+  H220  1  0.51734342  0.63455027  0.68028953  1
  H+  H221  1  0.60997588  0.13576269  1.02084664  1
  H+  H222  1  0.14105744  0.77708590  0.46605403  1
  H+  H223  1  0.87941373  0.84382014  1.01761778  1
  H+  H224  1  0.63134360  0.84857444  0.84565589  1
  H+  H225  1  0.50113778  0.83734446  0.63605557  1
  H+  H226  1  0.66414525  0.32707930  0.88802744  1
  H+  H227  1  0.60822017  0.96964281  0.00371004  1
  H+  H228  1  0.32501202  0.13437967  0.71016189  1
  H+  H229  1  0.24046066  0.61831696  0.66206284  1
  H+  H230  1  0.87457360  0.11509646  1.02895225  1
  H+  H231  1  0.83774460  0.14135369  0.13451832  1
  H+  H232  1  0.40424552  0.32285689  0.60594317  1
  H+  H233  1  0.63722633  0.27397053  0.98944264  1
  H+  H234  1  0.62534300  0.59930136  0.99387153  1
  H+  H235  1  0.13970337  0.52251304  0.16379705  1
  H+  H236  1  0.26274497  0.16643617  0.68973438  1
  H+  H237  1  0.93970327  0.89736233  0.38081334  1
  H+  H238  1  0.87587586  0.38479969  0.49527953  1
  H+  H239  1  0.47901762  0.94430628  0.68678168  1
  H+  H240  1  0.63650882  0.35974842  0.82906639  1
  H+  H241  1  0.37047743  0.88272891  0.32304668  1
  H+  H242  1  0.44021829  0.09551380  0.58211895  1
  H+  H243  1  0.47604217  0.61361970  -0.01320267  1
  H+  H244  1  0.65295813  0.09948870  0.65484743  1
  H+  H245  1  0.13968322  0.27994826  0.32850978  1
  H+  H246  1  0.97873311  0.61343712  0.66250930  1
  H+  H247  1  0.12518921  0.48439436  0.49271534  1
  H+  H248  1  0.39257292  0.28419384  0.31396258  1
  H+  H249  1  0.78440097  0.13445837  0.66940532  1
  H+  H250  1  0.97137035  0.36205577  0.15814253  1
  H+  H251  1  0.12387732  0.48767197  0.33366546  1
  H+  H252  1  0.11630253  0.38210455  -0.00058027  1
  H+  H253  1  0.51784924  0.87202012  0.14980215  1
  H+  H254  1  0.12647074  -0.01136195  0.16910617  1
  H+  H255  1  0.59223687  0.66236525  0.76866926  1
  H+  H256  1  0.87041430  0.50820371  0.33423900  1
  H+  H257  1  0.76943137  0.88887883  0.82385804  1
  H+  H258  1  0.76880739  0.39032763  -0.00443041  1
  H+  H259  1  0.70432787  0.86823159  0.31891731  1
  H+  H260  1  0.61039339  0.39009428  0.16010891  1
  H+  H261  1  0.39486907  1.01816597  0.48957622  1
  H+  H262  1  0.05240049  0.91028928  0.33019011  1
  H+  H263  1  0.14525758  0.76540425  0.99611125  1
  H+  H264  1  0.26003881  0.14405752  0.01309880  1
  H+  H265  1  0.63640770  0.85314176  0.16376271  1
  H+  H266  1  0.09316205  0.15079603  0.06213343  1
  H+  H267  1  0.12403131  0.63766108  0.48847994  1
  H+  H268  1  1.02966593  0.64102215  0.15597414  1
  H+  H269  1  0.23078877  0.36938018  0.33008607  1
  H+  H270  1  0.87962450  0.35181490  0.33637315  1
  H+  H271  1  0.38369656  0.52118205  0.32173078  1
  H+  H272  1  0.59938838  0.13124234  0.81305416  1
  H+  H273  1  0.35914856  0.46998787  0.49893779  1
  H+  H274  1  0.71637456  0.61273073  0.51043499  1
  H+  H275  1  0.08212500  0.17003081  0.42771842  1
  H+  H276  1  0.14536160  0.85646766  0.32527219  1
  H+  H277  1  0.77735838  0.88672083  0.16980981  1
  H+  H278  1  0.38268678  0.11373396  0.99736226  1
  H+  H279  1  0.53081199  0.62981282  0.82662311  1
  H+  H280  1  0.37055331  0.62965243  0.68233595  1
  H+  H281  1  0.38927433  1.01853588  0.31515871  1
  H+  H282  1  0.60397019  0.72708729  0.67862620  1
  H+  H283  1  0.29675601  0.68728913  0.51682189  1
  H+  H284  1  0.84652620  0.97167184  0.48659658  1
  H+  H285  1  0.73248390  0.62136640  0.32428167  1
  H+  H286  1  0.62276496  0.51590592  0.65934574  1
  H+  H287  1  0.34812796  0.11484949  0.48957336  1
  H+  H288  1  0.64052873  0.06967629  0.26499485  1
  H+  H289  1  0.16049477  0.32827172  0.60091647  1
  H+  H290  1  0.56752327  0.90963086  0.39839988  1
  H+  H291  1  0.82268029  0.40497544  0.40556827  1
  H+  H292  1  0.58245307  0.41228851  0.76442550  1
  H+  H293  1  0.09941027  0.43078437  0.40450197  1
  H+  H294  1  0.62598039  0.50933101  -0.00494397  1
  H+  H295  1  0.15934577  0.57135813  0.25893367  1
  H+  H296  1  0.09721900  0.92813170  0.39459637  1
  H+  H297  1  0.23016843  0.87022397  0.16543654  1
  H+  H298  1  0.33396145  0.41706988  0.39995781  1
  H+  H299  1  0.02612948  0.63207484  0.83354372  1
  H+  H300  1  0.10695614  -0.02766009  0.48654650  1
  H+  H301  1  0.27232069  0.88123285  0.84748798  1
  H+  H302  1  0.57719418  0.17496992  0.10017807  1
  H+  H303  1  0.34196402  0.42799744  0.05427615  1
  H+  H304  1  0.08891927  0.42265724  0.76174108  1
  H+  H305  1  0.51152679  0.14692988  0.16192710  1
  H+  H306  1  0.93167363  0.32637448  0.55419281  1
  H+  H307  1  0.70767594  0.88193086  0.67598242  1
  H+  H308  1  0.65375498  0.62079056  0.15492539  1
  H+  H309  1  0.08726097  0.66767955  0.09594055  1
  H+  H310  1  0.34411664  0.68125016  0.73121038  1
  H+  H311  1  0.88043193  0.02171423  0.65762274  1
  H+  H312  1  0.29412056  0.79102546  0.56655993  1
  H+  H313  1  0.16112243  0.33063832  0.89676973  1
  H+  H314  1  0.80720381  0.92284192  0.42465405  1
  H+  H315  1  0.32679500  0.16793255  0.09838781  1
  H+  H316  1  0.60408066  0.22202391  0.81465106  1
  H+  H317  1  0.17937657  0.82538833  0.57445884  1
  H+  H318  1  0.90200794  0.82553506  0.60783910  1
  H+  H319  1  0.63142021  0.27257396  0.31328204  1
  H+  H320  1  0.37216744  0.73719008  -0.01198178  1
  H+  H321  1  0.41311772  0.83168329  0.22227200  1
  H+  H322  1  0.05133405  0.90584146  0.80106674  1
  H+  H323  1  0.89075519  0.36794934  0.82861994  1
  H+  H324  1  0.38700525  0.80089001  0.56993106  1
  H+  H325  1  0.69448158  0.08102630  0.55535134  1
  H+  H326  1  0.91224266  0.08298449  0.90299130  1
  H+  H327  1  0.92487591  0.35099142  0.91799553  1
  H+  H328  1  0.18450608  0.86955218  0.57283437  1
  H+  H329  1  0.65253269  0.07197237  0.87441248  1
  H+  H330  1  0.92935479  0.58743028  0.56496507  1
  H+  H331  1  0.83022683  0.41853349  0.76141989  1
  H+  H332  1  0.41633551  0.08717406  0.22566606  1
  H+  H333  1  0.09130027  0.91544488  0.06365314  1
  H+  H334  1  0.11576761  0.88772518  0.47031476  1
  H+  H335  1  0.33865543  0.67324881  0.08776798  1
  H+  H336  1  0.57234486  0.66279049  0.39812863  1
  H+  H337  1  0.65035820  0.57780290  0.56532978  1
  H+  H338  1  0.83428607  0.70474018  0.04155616  1
  H+  H339  1  0.41799182  0.58811550  0.22647540  1
  H+  H340  1  0.08260433  0.65422134  0.74116680  1
  H+  H341  1  0.32098430  0.15126395  0.43304840  1
  H+  H342  1  0.83956196  0.17082722  0.73040098  1
  H+  H343  1  0.59742821  0.42502818  0.42640815  1
  H+  H344  1  0.12935230  0.85731907  0.85250333  1
  H+  H345  1  0.65583343  0.01144501  0.65767160  1
  H+  H346  1  0.67029490  0.33769155  0.22619514  1
  H+  H347  1  0.91723309  0.07985769  0.56316088  1
  H+  H348  1  0.32154856  0.42145439  0.76163288  1
  H+  H349  1  0.87284453  0.82126297  0.26132217  1
  H+  H350  1  0.58227091  0.40786267  0.06490511  1
  H+  H351  1  0.68368638  0.59940676  0.26142070  1
  H+  H352  1  0.09001985  0.41455925  0.09301543  1
  H+  H353  1  0.57487057  0.89720915  0.08970195  1
  H+  H354  1  0.08415264  0.65012361  0.42657755  1
  H+  H355  1  0.16205305  0.32893961  0.23742744  1
  H+  H356  1  0.62159316  0.72601859  0.15831433  1
  H+  H357  1  0.38981862  0.02786839  0.99233117  1
  H+  H358  1  0.07419684  0.16142408  0.76985708  1
  H+  H359  1  0.57252392  0.17859668  0.37980002  1
  H+  H360  1  0.88125144  0.61464198  1.00418370  1
  H+  H361  1  0.48481858  0.35623136  0.84847196  1
  H+  H362  1  0.15553588  0.08565755  0.55848593  1
  H+  H363  1  0.41707139  0.34567207  0.25657687  1
  H+  H364  1  0.35176829  0.91176254  0.41903009  1
  H+  H365  1  0.17817535  0.58299983  0.89800604  1
  H+  H366  1  0.70437030  0.10915673  0.96596637  1
  H+  H367  1  0.67475067  0.82938150  0.93749896  1
  H+  H368  1  0.16819209  0.82526348  0.26416960  1
  H+  H369  1  0.96534411  0.53741077  0.21569863  1
  H+  H370  1  0.87238321  0.48077601  0.63641533  1
  H+  H371  1  0.82071510  0.92321634  0.73078681  1
  H+  H372  1  0.71145884  0.86060016  0.49825676  1
  H+  H373  1  0.41811454  0.09328911  0.90256149  1
  H+  H374  1  0.58159281  0.66211515  0.06304360  1
  H+  H375  1  0.90736777  0.78407318  0.18596919  1
  H+  H376  1  0.64678599  0.37669353  0.50229976  1
  H+  H377  1  0.89718567  0.56503815  0.27332373  1
  H+  H378  1  0.66484258  0.57132176  0.90283929  1
  H+  H379  1  0.30647786  0.17321269  0.79214125  1
  H+  H380  1  0.85904989  0.15817643  0.39037494  1
  H+  H381  1  0.17724265  0.08564457  0.23320416  1
  H+  H382  1  0.82400644  0.65313192  0.44452254  1
  H+  H383  1  0.35866656  0.23102732  0.15648222  1
  O2-  O384  1  0.07269582  0.14981743  0.14642072  1
  O2-  O385  1  0.08275590  0.17031369  0.47291082  1
  O2-  O386  1  0.07236492  0.16277015  0.81519300  1
  O2-  O387  1  0.08919772  0.41727565  0.13858969  1
  O2-  O388  1  0.09520870  0.42726653  0.47156340  1
  O2-  O389  1  0.08450418  0.41983070  0.80735021  1
  O2-  O390  1  0.08978496  0.67357676  0.14188089  1
  O2-  O391  1  0.08740020  0.65921634  0.47144297  1
  O2-  O392  1  0.08622841  0.66088858  0.81798371  1
  O2-  O393  1  0.09195123  0.92381518  0.15446896  1
  O2-  O394  1  0.07923579  0.91566866  0.46537887  1
  O2-  O395  1  0.06470122  0.90953368  0.84550228  1
  O2-  O396  1  0.32935997  0.16908127  0.14456810  1
  O2-  O397  1  0.31498877  0.14437606  0.47750107  1
  O2-  O398  1  0.30964132  0.16481248  0.83691842  1
  O2-  O399  1  0.33495600  0.43690822  0.13492220  1
  O2-  O400  1  0.33093336  0.41381198  0.47739572  1
  O2-  O401  1  0.32453163  0.43161031  0.80627665  1
  O2-  O402  1  0.33777112  0.66943402  0.13336961  1
  O2-  O403  1  0.27259985  0.62445143  0.50708983  1
  O2-  O404  1  0.34995089  0.68403591  0.81937903  1
  O2-  O405  1  0.33145115  0.91861226  0.13765799  1
  O2-  O406  1  0.34476936  0.91479681  0.46398637  1
  O2-  O407  1  0.33571273  0.90915828  0.84332847  1
  O2-  O408  1  0.57500295  0.17982269  0.14666971  1
  O2-  O409  1  0.55060984  0.21601341  0.45152437  1
  O2-  O410  1  0.56884521  0.16156354  0.79977967  1
  O2-  O411  1  0.57945834  0.41906987  0.14408462  1
  O2-  O412  1  0.59849133  0.42064349  0.47115063  1
  O2-  O413  1  0.58757420  0.41047291  0.80997601  1
  O2-  O414  1  0.59163030  0.66492880  0.14282528  1
  O2-  O415  1  0.56517245  0.65789119  0.47633023  1
  O2-  O416  1  0.59274416  0.65940798  0.81430195  1
  O2-  O417  1  0.57804746  0.89610795  0.13489500  1
  O2-  O418  1  0.58064496  0.91488622  0.47509199  1
  O2-  O419  1  0.57272776  0.89542595  0.81637271  1
  O2-  O420  1  0.83415485  0.15844155  0.17668634  1
  O2-  O421  1  0.85268156  0.17030842  0.46646808  1
  O2-  O422  1  0.82854318  0.16557986  0.81092569  1
  O2-  O423  1  0.82685105  0.41616393  0.13674341  1
  O2-  O424  1  0.83978431  0.41269534  0.48993077  1
  O2-  O425  1  0.83160494  0.41741464  0.80580491  1
  O2-  O426  1  0.85849513  0.67922348  0.20801603  1
  O2-  O427  1  0.82547151  0.65379117  0.48935067  1
  O2-  O428  1  0.83749159  0.67763186  0.83073603  1
  O2-  O429  1  0.84017099  0.92030025  0.15883782  1
  O2-  O430  1  0.80875218  0.91420694  0.46892212  1
  O2-  O431  1  0.82608890  0.92296060  0.80367411  1
  O2-  O432  1  0.17082711  0.07878955  0.18777558  1
  O2-  O433  1  0.15274005  0.07747874  0.51354505  1
  O2-  O434  1  0.14416930  0.08295076  0.87856770  1
  O2-  O435  1  0.16228579  0.32113498  0.19208459  1
  O2-  O436  1  0.16717750  0.33198915  0.51985369  1
  O2-  O437  1  0.15744774  0.32786095  0.85157326  1
  O2-  O438  1  0.16973116  0.58181078  0.18169696  1
  O2-  O439  1  0.18200308  0.58626660  0.52603093  1
  O2-  O440  1  0.17925862  0.58393413  0.85236897  1
  O2-  O441  1  0.16892828  0.84065623  0.18114886  1
  O2-  O442  1  0.16741433  0.83804600  0.45414518  1
  O2-  O443  1  0.15975697  0.82468338  0.85971184  1
  O2-  O444  1  0.41901615  0.09204940  0.17975678  1
  O2-  O445  1  0.41443756  0.07801317  0.50406408  1
  O2-  O446  1  0.40820623  0.08668946  0.85771749  1
  O2-  O447  1  0.41119923  0.34016264  0.17787803  1
  O2-  O448  1  0.38831591  0.30904509  0.53177857  1
  O2-  O449  1  0.43030665  0.33148986  0.87160752  1
  O2-  O450  1  0.42272715  0.59116887  0.18076658  1
  O2-  O451  1  0.39741616  0.57351648  0.53847196  1
  O2-  O452  1  0.42419979  0.58605198  0.84914325  1
  O2-  O453  1  0.41160853  0.83449946  0.17656604  1
  O2-  O454  1  0.33819556  0.79118163  0.54044839  1
  O2-  O455  1  0.42241925  0.83823853  0.89035984  1
  O2-  O456  1  0.65546965  0.06502108  0.18918638  1
  O2-  O457  1  0.69393391  0.08565882  0.51066278  1
  O2-  O458  1  0.65863235  0.07544081  0.83039761  1
  O2-  O459  1  0.66533126  0.33499322  0.18031534  1
  O2-  O460  1  0.66813472  0.33816299  0.51998133  1
  O2-  O461  1  0.66741402  0.32803162  0.84280424  1
  O2-  O462  1  0.69164659  0.59424397  0.15780927  1
  O2-  O463  1  0.65375140  0.58208527  0.51964604  1
  O2-  O464  1  0.67169744  0.57487998  0.85741513  1
  O2-  O465  1  0.66944911  0.82768366  0.18298410  1
  O2-  O466  1  0.65056107  0.83123689  0.51383438  1
  O2-  O467  1  0.66702268  0.82412382  0.86046804  1
  O2-  O468  1  0.91924905  0.08040491  0.22985232  1
  O2-  O469  1  0.91671503  0.07949857  0.51768966  1
  O2-  O470  1  0.90991811  0.08792152  0.85825674  1
  O2-  O471  1  0.90906861  0.33674990  0.16463787  1
  O2-  O472  1  0.93239879  0.33234727  0.50877711  1
  O2-  O473  1  0.92045984  0.33824141  0.84560171  1
  O2-  O474  1  0.92859198  0.55708693  0.19743444  1
  O2-  O475  1  0.92397599  0.58057301  0.51929679  1
  O2-  O476  1  0.91673599  0.58271028  0.85677008  1
  O2-  O477  1  0.93763836  0.84864923  0.18714632  1
  O2-  O478  1  0.92806820  0.82028046  0.53672118  1
  O2-  O479  1  0.90926981  0.80951274  0.88926635  1
  O2-  O480  1  0.18576822  0.09644289  0.31050008  1
  O2-  O481  1  0.17059740  0.10594445  0.63720217  1
  O2-  O482  1  0.14204640  0.10721703  1.00124218  1
  O2-  O483  1  0.16899364  0.34202041  0.31519970  1
  O2-  O484  1  0.15924747  0.32813731  0.64622788  1
  O2-  O485  1  0.16976835  0.32952481  0.97710584  1
  O2-  O486  1  0.15591194  0.56895678  0.30477223  1
  O2-  O487  1  0.18019628  0.59052770  0.64434450  1
  O2-  O488  1  0.17523945  0.58607911  0.97590719  1
  O2-  O489  1  0.16716480  0.81933872  0.30908084  1
  O2-  O490  1  0.13537500  0.82984600  0.70343550  1
  O2-  O491  1  0.17313766  0.82558582  0.98061208  1
  O2-  O492  1  0.41618523  0.07978267  0.30028772  1
  O2-  O493  1  0.44768008  0.11130854  0.62576425  1
  O2-  O494  1  0.41997520  0.09110738  0.98275119  1
  O2-  O495  1  0.41980933  0.34524511  0.30212051  1
  O2-  O496  1  0.41377858  0.33492687  0.65101854  1
  O2-  O497  1  0.41745483  0.32574531  0.98744108  1
  O2-  O498  1  0.41408422  0.57970676  0.30332371  1
  O2-  O499  1  0.41557276  0.58138378  0.67905771  1
  O2-  O500  1  0.41591767  0.58447155  0.97089019  1
  O2-  O501  1  0.41300632  0.82936259  0.29893336  1
  O2-  O502  1  0.44921165  0.79450094  0.61456331  1
  O2-  O503  1  0.42187698  0.83741374  0.95862691  1
  O2-  O504  1  0.63720506  0.07642178  0.31006627  1
  O2-  O505  1  0.68601567  0.07086116  0.64201819  1
  O2-  O506  1  0.68380104  0.09236452  1.00742708  1
  O2-  O507  1  0.66814795  0.33533272  0.30219513  1
  O2-  O508  1  0.66266584  0.32738301  0.64273138  1
  O2-  O509  1  0.66544573  0.33187319  0.97080130  1
  O2-  O510  1  0.67478469  0.59341043  0.30556300  1
  O2-  O511  1  0.65351403  0.57509255  0.64190295  1
  O2-  O512  1  0.65798780  0.57042699  0.98060423  1
  O2-  O513  1  0.64395803  0.83062333  0.30362966  1
  O2-  O514  1  0.64322960  0.84472974  0.66910139  1
  O2-  O515  1  0.67444994  0.83105071  0.98328331  1
  O2-  O516  1  0.93046555  0.08424592  0.29704950  1
  O2-  O517  1  0.91764077  0.08223759  0.64239719  1
  O2-  O518  1  0.92010574  0.07285788  0.98779579  1
  O2-  O519  1  0.91192854  0.32473674  0.32010987  1
  O2-  O520  1  0.92915685  0.33170501  0.63314414  1
  O2-  O521  1  0.92410120  0.35440500  0.96440579  1
  O2-  O522  1  0.89922734  0.56923860  0.31842552  1
  O2-  O523  1  0.92280048  0.58462944  0.64050957  1
  O2-  O524  1  0.91369851  0.58909070  0.98615301  1
  O2-  O525  1  0.82423699  0.80146755  0.28961606  1
  O2-  O526  1  0.88106633  0.81957688  0.65114242  1
  O2-  O527  1  0.90162756  0.80400126  1.00787978  1
  O2-  O528  1  0.09675228  0.15474667  0.01652033  1
  O2-  O529  1  0.09123328  0.17439963  0.34530511  1
  O2-  O530  1  0.07624386  0.16157416  0.68858122  1
  O2-  O531  1  0.09092357  0.41724378  0.01462984  1
  O2-  O532  1  0.09846446  0.42677717  0.35641954  1
  O2-  O533  1  0.09082771  0.42449395  0.68330240  1
  O2-  O534  1  0.08428478  0.65955033  0.02149562  1
  O2-  O535  1  0.07476979  0.65027806  0.34605751  1
  O2-  O536  1  0.08235133  0.66060513  0.69577962  1
  O2-  O537  1  0.07249902  0.89271045  0.02267532  1
  O2-  O538  1  0.10914717  0.93309341  0.34841016  1
  O2-  O539  1  0.02883678  0.88400572  0.72468425  1
  O2-  O540  1  0.32064851  0.16445753  0.02398656  1
  O2-  O541  1  0.36990757  0.18036044  0.35254908  1
  O2-  O542  1  0.31535379  0.18510076  0.71412016  1
  O2-  O543  1  0.33773607  0.42000028  0.00952472  1
  O2-  O544  1  0.33028755  0.41677613  0.35411858  1
  O2-  O545  1  0.32142904  0.41294641  0.68146075  1
  O2-  O546  1  0.34227383  0.67869032  0.00870396  1
  O2-  O547  1  0.33449934  0.67066747  0.34156442  1
  O2-  O548  1  0.34015382  0.66767808  0.68731869  1
  O2-  O549  1  0.34661827  0.92090535  0.00860736  1
  O2-  O550  1  0.34386853  0.91673715  0.34069583  1
  O2-  O551  1  0.32557579  1.04349609  0.70610102  1
  O2-  O552  1  0.57993815  0.16814040  0.02984777  1
  O2-  O553  1  0.57514414  0.17054398  0.33548469  1
  O2-  O554  1  0.60709247  0.15978771  0.67610333  1
  O2-  O555  1  0.58106860  0.40578267  0.01954802  1
  O2-  O556  1  0.59082482  0.42350596  0.34298405  1
  O2-  O557  1  0.57873534  0.41121933  0.68788028  1
  O2-  O558  1  0.58019177  0.66066581  0.01760259  1
  O2-  O559  1  0.57533066  0.66670701  0.35247032  1
  O2-  O560  1  0.58208660  0.66648027  0.69011932  1
  O2-  O561  1  0.57780945  0.90687289  0.00905285  1
  O2-  O562  1  0.56471169  0.91137050  0.35288261  1
  O2-  O563  1  0.60388614  0.89603579  0.68698480  1
  O2-  O564  1  0.84517916  0.14241349  0.05217099  1
  O2-  O565  1  0.86416314  0.16065158  0.34464976  1
  O2-  O566  1  0.84442738  0.17263768  0.68519370  1
  O2-  O567  1  0.82875042  0.42260518  0.01257432  1
  O2-  O568  1  0.82441190  0.40755567  0.36042707  1
  O2-  O569  1  0.83922614  0.41642922  0.62818592  1
  O2-  O570  1  0.79761806  0.64353574  0.05415432  1
  O2-  O571  1  0.83891058  0.66624463  0.36068697  1
  O2-  O572  1  0.82548639  0.64680793  0.67216866  1
  O2-  O573  1  0.83634789  0.91047025  0.03038117  1
  O2-  O574  1  0.80523679  0.92602795  0.34189405  1
  O2-  O575  1  0.81341231  0.92139493  0.68468271  1
