# generated using pymatgen
data_H2O
_symmetry_space_group_name_H-M   'P 1'
_cell_length_a   18.00124705
_cell_length_b   17.99562911
_cell_length_c   22.01341231
_cell_angle_alpha   89.99436445
_cell_angle_beta   89.99132167
_cell_angle_gamma   119.98113534
_symmetry_Int_Tables_number   1
_chemical_formula_structural   H2O
_chemical_formula_sum   'H384 O192'
_cell_volume   6176.89383282
_cell_formula_units_Z   192
loop_
 _symmetry_equiv_pos_site_id
 _symmetry_equiv_pos_as_xyz
  1  'x, y, z'
loop_
 _atom_type_symbol
 _atom_type_oxidation_number
  H+  1.0
  O2-  -2.0
loop_
 _atom_site_type_symbol
 _atom_site_label
 _atom_site_symmetry_multiplicity
 _atom_site_fract_x
 _atom_site_fract_y
 _atom_site_fract_z
 _atom_site_occupancy
  H+  H0  1  0.22996262  0.11528479  0.32726292  1
  H+  H1  1  0.39748961  0.62307642  0.34196629  1
  H+  H2  1  0.11582523  0.23652575  0.83261458  1
  H+  H3  1  0.51440575  0.13691888  1.01024434  1
  H+  H4  1  0.88847213  0.11252849  0.17043624  1
  H+  H5  1  0.52487470  0.86701437  0.66996538  1
  H+  H6  1  0.35877230  0.24552616  0.15635293  1
  H+  H7  1  0.81277546  0.65487621  0.11515381  1
  H+  H8  1  0.17749711  0.83482146  0.23714113  1
  H+  H9  1  0.46506346  0.85033165  -0.01465701  1
  H+  H10  1  0.22543740  0.59596803  0.15662181  1
  H+  H11  1  0.39064442  0.60461202  0.99394838  1
  H+  H12  1  0.22538046  0.86078546  0.17188202  1
  H+  H13  1  0.59101102  0.96409762  -0.00654687  1
  H+  H14  1  0.85384276  0.46954868  0.66735378  1
  H+  H15  1  0.92441548  0.17044813  1.02179542  1
  H+  H16  1  0.16657016  0.58124926  0.92733477  1
  H+  H17  1  0.85206481  0.88041828  0.34448266  1
  H+  H18  1  0.72322673  0.36607361  0.66132106  1
  H+  H19  1  0.64717197  0.19099728  0.82668674  1
  H+  H20  1  0.36084230  0.37774530  0.14542333  1
  H+  H21  1  0.94365637  0.31457730  0.35604920  1
  H+  H22  1  0.14593030  0.38074777  0.32262660  1
  H+  H23  1  0.11873093  0.47335465  0.66435154  1
  H+  H24  1  0.76872774  0.12539619  0.81751525  1
  H+  H25  1  0.02774079  0.14544679  0.83010866  1
  H+  H26  1  0.35959123  0.22907165  0.33008983  1
  H+  H27  1  0.12652137  0.25665080  0.18618603  1
  H+  H28  1  0.39065997  0.28099228  0.50478732  1
  H+  H29  1  0.28689184  0.93267964  0.64337415  1
  H+  H30  1  0.87853262  0.10351022  0.33645610  1
  H+  H31  1  0.99259747  0.36791768  0.82172457  1
  H+  H32  1  0.27228602  0.88961576  -0.00280687  1
  H+  H33  1  0.40653274  0.15653244  0.65859521  1
  H+  H34  1  0.77740934  0.39362353  0.82905360  1
  H+  H35  1  0.12309960  0.64847082  0.49896327  1
  H+  H36  1  0.65318449  0.02979321  0.16996662  1
  H+  H37  1  0.11535538  0.87118059  0.83716375  1
  H+  H38  1  0.66767627  0.34618649  0.89807345  1
  H+  H39  1  0.40021546  0.77254744  0.67059263  1
  H+  H40  1  0.23071787  0.37336105  0.32788270  1
  H+  H41  1  0.53320925  0.96324893  0.14234537  1
  H+  H42  1  0.48206184  0.60933554  0.00335014  1
  H+  H43  1  0.11046370  0.13724489  0.33915785  1
  H+  H44  1  0.79209562  0.13484210  -0.01678730  1
  H+  H45  1  0.27155376  0.62513005  -0.01029823  1
  H+  H46  1  0.86062163  0.15084177  0.49049269  1
  H+  H47  1  0.60360723  0.10095381  0.97988188  1
  H+  H48  1  0.82678483  -0.00972063  0.58666055  1
  H+  H49  1  0.63933221  0.53011550  0.84954386  1
  H+  H50  1  0.13943945  0.02649503  0.32798460  1
  H+  H51  1  0.85619905  0.21580585  0.81275605  1
  H+  H52  1  0.95647954  0.59405524  0.66371349  1
  H+  H53  1  0.12752475  0.39329598  0.82422184  1
  H+  H54  1  0.53729255  0.15088854  0.67694236  1
  H+  H55  1  0.11774411  0.47747607  0.00687035  1
  H+  H56  1  0.29504495  0.41297187  0.68289711  1
  H+  H57  1  0.83760647  0.62465880  0.32720058  1
  H+  H58  1  0.36790833  0.73084909  0.50700764  1
  H+  H59  1  0.60805038  0.40526271  0.82475533  1
  H+  H60  1  0.14670856  0.12187840  0.00848960  1
  H+  H61  1  0.52123608  0.38338015  0.00758246  1
  H+  H62  1  0.61517709  0.89352580  0.52479316  1
  H+  H63  1  0.63159621  0.35967345  0.99302684  1
  H+  H64  1  0.14565986  1.03360973  0.00179832  1
  H+  H65  1  0.64506693  0.76757921  0.84395058  1
  H+  H66  1  0.97241368  0.35445297  0.66272808  1
  H+  H67  1  0.48322218  0.87071677  0.51493264  1
  H+  H68  1  0.12925960  0.42773565  0.42521694  1
  H+  H69  1  0.42329850  0.62912734  0.67062310  1
  H+  H70  1  0.87416975  0.96488462  0.66935832  1
  H+  H71  1  0.88127975  1.01246288  0.16650984  1
  H+  H72  1  0.49504763  1.08526016  0.17690767  1
  H+  H73  1  0.14667842  0.87793576  0.33106784  1
  H+  H74  1  0.11639471  0.46017452  0.15817074  1
  H+  H75  1  0.60062515  0.11499015  0.34507360  1
  H+  H76  1  0.84812797  0.45925849  0.33673263  1
  H+  H77  1  0.28339944  0.90005638  0.35039975  1
  H+  H78  1  0.47616778  0.11483414  0.32882748  1
  H+  H79  1  0.89065512  1.02425096  0.84295354  1
  H+  H80  1  0.38575087  0.26962560  0.00413260  1
  H+  H81  1  0.20575850  0.94344947  0.65118003  1
  H+  H82  1  0.59597378  0.94459743  0.81836899  1
  H+  H83  1  0.08206912  0.92497030  0.39989752  1
  H+  H84  1  0.11012866  0.38058181  0.65915415  1
  H+  H85  1  0.34273667  0.92121480  0.73347126  1
  H+  H86  1  0.58553423  0.16256104  0.06308865  1
  H+  H87  1  0.62358839  0.14001699  0.67562054  1
  H+  H88  1  0.36228873  0.13686362  0.83026124  1
  H+  H89  1  0.14683685  0.13981722  0.51632821  1
  H+  H90  1  0.19769065  0.34162352  0.61018505  1
  H+  H91  1  0.36886091  0.14436074  0.33370470  1
  H+  H92  1  0.87719580  0.61124483  0.85053974  1
  H+  H93  1  0.57862715  0.45638807  0.77568536  1
  H+  H94  1  0.60345202  0.62867753  0.34077000  1
  H+  H95  1  0.10848171  0.43052673  0.49292745  1
  H+  H96  1  0.38349837  0.74096798  0.36366012  1
  H+  H97  1  0.12599064  0.15383320  0.67698511  1
  H+  H98  1  0.77482430  0.63616687  0.83327517  1
  H+  H99  1  0.61606891  0.37363927  0.16140054  1
  H+  H100  1  0.00271064  0.63614097  0.84643309  1
  H+  H101  1  0.86998182  0.59901253  0.65878662  1
  H+  H102  1  0.61896262  0.50478529  0.17635758  1
  H+  H103  1  0.63169214  0.27049480  0.99100825  1
  H+  H104  1  0.73976412  0.62458754  0.50639508  1
  H+  H105  1  0.37152794  0.48223533  0.02335264  1
  H+  H106  1  0.88139197  0.52343542  0.85012582  1
  H+  H107  1  0.52684821  0.36032521  0.36498001  1
  H+  H108  1  0.61754258  0.63816594  1.00931803  1
  H+  H109  1  0.43438000  0.85069385  0.30416276  1
  H+  H110  1  0.11810054  0.75251926  0.64633349  1
  H+  H111  1  0.15482215  0.04484931  0.66077433  1
  H+  H112  1  0.34200649  0.97905916  0.81811549  1
  H+  H113  1  0.84869167  0.63467555  0.17461909  1
  H+  H114  1  0.36437643  0.14388095  0.48876847  1
  H+  H115  1  0.96065344  0.87401672  0.50307081  1
  H+  H116  1  0.00263399  0.52576662  0.73172023  1
  H+  H117  1  0.45517809  0.37554139  0.29728376  1
  H+  H118  1  0.36077368  -0.02136135  1.00139645  1
  H+  H119  1  0.35310354  0.39425519  0.33833523  1
  H+  H120  1  0.50903434  0.85205590  0.81922715  1
  H+  H121  1  0.10936373  0.99143798  0.49358501  1
  H+  H122  1  0.41491623  0.98702884  0.68905490  1
  H+  H123  1  0.91726676  0.83866467  0.90292823  1
  H+  H124  1  0.91702835  0.25573688  1.02570975  1
  H+  H125  1  0.14397766  0.50993507  0.33333286  1
  H+  H126  1  0.66028563  0.06339188  0.27146638  1
  H+  H127  1  0.85721143  0.47986166  0.49467339  1
  H+  H128  1  0.47388367  0.36516020  0.84766357  1
  H+  H129  1  0.12447253  0.26364659  0.65136627  1
  H+  H130  1  0.98310957  0.85444768  1.00224914  1
  H+  H131  1  0.61930657  0.51265794  0.33586562  1
  H+  H132  1  0.38952083  0.52891256  0.33734395  1
  H+  H133  1  0.82332953  0.64850490  0.73254456  1
  H+  H134  1  0.05711942  0.66362797  0.35732690  1
  H+  H135  1  0.11226448  0.78096171  0.83778461  1
  H+  H136  1  1.02720846  0.39307236  1.01109606  1
  H+  H137  1  0.05128302  0.42550496  0.33762018  1
  H+  H138  1  0.49348017  0.11625424  0.84310152  1
  H+  H139  1  0.84944732  0.88286847  0.16125003  1
  H+  H140  1  0.72711826  0.11685622  0.66018173  1
  H+  H141  1  0.54661236  0.63846130  0.67561685  1
  H+  H142  1  0.22685972  0.11870576  0.83542405  1
  H+  H143  1  0.47754215  0.38098059  0.65634483  1
  H+  H144  1  0.86312873  0.21242065  0.66508801  1
  H+  H145  1  0.93811826  0.77123985  0.96317190  1
  H+  H146  1  0.53570036  0.88713986  0.36938952  1
  H+  H147  1  0.77472334  0.10930495  1.01240944  1
  H+  H148  1  0.84270551  0.06700445  0.63450453  1
  H+  H149  1  0.39585008  0.87845087  0.35787882  1
  H+  H150  1  0.77299607  0.88885111  0.83020568  1
  H+  H151  1  0.11231936  0.59315702  0.66886441  1
  H+  H152  1  0.16717769  0.65084966  0.33845689  1
  H+  H153  1  0.93959526  0.59336728  0.30262578  1
  H+  H154  1  0.40654614  0.51875652  0.84626609  1
  H+  H155  1  0.63435536  0.77317476  -0.00349953  1
  H+  H156  1  0.72920277  0.12686412  0.50418419  1
  H+  H157  1  0.63397667  0.84928238  0.84062664  1
  H+  H158  1  0.59906737  0.62621842  0.16520629  1
  H+  H159  1  0.62278715  0.85556797  0.17825124  1
  H+  H160  1  0.36192280  0.84197099  0.12856537  1
  H+  H161  1  0.25217364  0.89286684  0.81642763  1
  H+  H162  1  0.86497426  0.38952944  0.82655886  1
  H+  H163  1  0.16209859  0.52769700  0.83113568  1
  H+  H164  1  0.36254299  0.37896971  0.83526357  1
  H+  H165  1  0.64889071  0.54158196  0.51337305  1
  H+  H166  1  0.12071861  0.63106370  0.16197936  1
  H+  H167  1  0.14402398  0.76270239  0.67500616  1
  H+  H168  1  0.62084571  0.13368392  0.50453746  1
  H+  H169  1  0.96621377  0.10274430  0.33607235  1
  H+  H170  1  0.23335110  0.36748529  0.84506249  1
  H+  H171  1  0.63586367  0.29628885  0.83556017  1
  H+  H172  1  0.86414496  0.72418772  0.82889927  1
  H+  H173  1  0.62002062  0.61877724  0.68986380  1
  H+  H174  1  0.11300860  0.01161163  0.82438529  1
  H+  H175  1  0.89759992  0.62375877  0.50090799  1
  H+  H176  1  0.60265540  0.91849861  0.45645713  1
  H+  H177  1  0.74448572  0.11439187  0.17598702  1
  H+  H178  1  0.28237117  0.89950889  0.49977354  1
  H+  H179  1  0.12266678  0.72234536  0.16634863  1
  H+  H180  1  0.86852540  0.84262077  0.65761615  1
  H+  H181  1  0.88869150  0.11117271  0.84100174  1
  H+  H182  1  0.09722774  0.65498318  0.85903911  1
  H+  H183  1  0.50360259  0.62762172  0.34045121  1
  H+  H184  1  0.64994941  0.62294170  0.84684736  1
  H+  H185  1  0.14240485  1.03018924  0.17911802  1
  H+  H186  1  0.49041563  0.21233216  0.62196086  1
  H+  H187  1  0.54937346  0.65820482  0.50512490  1
  H+  H188  1  0.63431350  1.00566279  0.33396119  1
  H+  H189  1  0.89072099  0.82577957  0.55519196  1
  H+  H190  1  0.87873490  0.37098769  1.01371817  1
  H+  H191  1  0.29549126  0.65474368  0.35385519  1
  H+  H192  1  0.61211848  0.07066736  0.81355684  1
  H+  H193  1  0.28199520  0.15221657  0.67416552  1
  H+  H194  1  0.41408274  0.53699630  0.66696124  1
  H+  H195  1  0.11314499  0.90512102  0.49427290  1
  H+  H196  1  0.82975391  0.89589456  0.51264238  1
  H+  H197  1  0.61870298  0.42484159  0.67233570  1
  H+  H198  1  0.72496601  0.85542781  0.33441376  1
  H+  H199  1  0.82282216  0.68854103  0.66841042  1
  H+  H200  1  -0.01306415  0.14928857  0.49988028  1
  H+  H201  1  0.52898159  0.39414993  0.50200332  1
  H+  H202  1  0.61951714  0.87853818  0.35762494  1
  H+  H203  1  0.38170101  0.11936342  0.00414710  1
  H+  H204  1  0.63198365  0.14112046  0.15784455  1
  H+  H205  1  0.88230798  0.35028207  0.66228936  1
  H+  H206  1  0.72290887  0.35873501  0.51131836  1
  H+  H207  1  0.36679541  0.96023407  0.15779638  1
  H+  H208  1  0.34133876  0.70810645  0.12930983  1
  H+  H209  1  0.82196157  0.41606330  0.43815922  1
  H+  H210  1  0.07261750  0.91356346  0.23188221  1
  H+  H211  1  0.98061141  0.10530666  0.16983549  1
  H+  H212  1  0.13759744  0.61265067  -0.01285988  1
  H+  H213  1  0.31195512  0.63444348  0.70958407  1
  H+  H214  1  0.39411351  0.02971439  0.51115208  1
  H+  H215  1  0.37494661  0.39774022  0.67650041  1
  H+  H216  1  0.35465847  0.48293997  0.11983277  1
  H+  H217  1  0.90492039  0.57329876  0.12343520  1
  H+  H218  1  0.60983472  0.72459858  0.34121356  1
  H+  H219  1  0.75309889  0.12026448  0.34047834  1
  H+  H220  1  0.86938366  0.45594464  0.16913626  1
  H+  H221  1  0.03225024  0.14048586  0.01400939  1
  H+  H222  1  0.84939103  0.71443081  0.02677091  1
  H+  H223  1  0.13509357  0.77498270  0.98987494  1
  H+  H224  1  0.14167097  0.36525624  -0.00074353  1
  H+  H225  1  0.86077527  0.88829792  0.83220470  1
  H+  H226  1  0.35921414  0.71468278  0.99386060  1
  H+  H227  1  0.52158087  0.35626065  0.15233730  1
  H+  H228  1  0.10659910  0.22228883  0.34515871  1
  H+  H229  1  0.37363710  0.59895295  0.14862139  1
  H+  H230  1  0.86753433  0.73588529  0.48350042  1
  H+  H231  1  0.37834579  0.85281516  0.98220309  1
  H+  H232  1  1.02190066  0.88734896  0.34131576  1
  H+  H233  1  0.40396029  0.86422322  0.66872850  1
  H+  H234  1  0.15594138  0.79484660  0.33752976  1
  H+  H235  1  0.92763503  0.80386371  0.64150970  1
  H+  H236  1  0.75469901  0.63174456  0.33726137  1
  H+  H237  1  0.96073542  0.85471380  0.17879988  1
  H+  H238  1  0.64297237  0.76375338  0.64742558  1
  H+  H239  1  0.90563453  0.57766186  -0.05087818  1
  H+  H240  1  0.53887269  0.63405344  0.83153987  1
  H+  H241  1  0.83185048  0.21306274  0.33209669  1
  H+  H242  1  -0.09213806  0.29533729  0.47648085  1
  H+  H243  1  0.09483825  0.18563036  0.73468196  1
  H+  H244  1  0.61723263  0.22133042  0.15991677  1
  H+  H245  1  0.88154974  0.76992004  0.32714198  1
  H+  H246  1  0.03372511  0.65013201  0.49738067  1
  H+  H247  1  0.39079388  0.28783608  0.66431670  1
  H+  H248  1  0.37898364  0.40346764  0.48838059  1
  H+  H249  1  0.87785126  0.60713874  1.00948468  1
  H+  H250  1  0.11142664  0.13306449  0.16751626  1
  H+  H251  1  0.72361524  0.35554947  0.32587666  1
  H+  H252  1  0.76077161  0.62568774  0.01865145  1
  H+  H253  1  0.11690631  0.88761827  0.00886571  1
  H+  H254  1  0.23020202  0.36576278  1.00344932  1
  H+  H255  1  0.37057270  0.89514191  0.50340791  1
  H+  H256  1  0.18445150  0.62286060  0.81850702  1
  H+  H257  1  0.64376282  0.36993298  0.32925511  1
  H+  H258  1  0.46388239  0.60057378  0.15171391  1
  H+  H259  1  0.97573313  0.87349131  0.84376933  1
  H+  H260  1  0.70404700  0.59600785  0.18231455  1
  H+  H261  1  0.89198703  0.02849658  0.99640420  1
  H+  H262  1  0.64050155  0.66434769  0.51438534  1
  H+  H263  1  0.89547055  0.34785116  0.18677544  1
  H+  H264  1  0.36789850  0.22811523  0.83372477  1
  H+  H265  1  0.38603370  0.49548706  0.48921255  1
  H+  H266  1  0.14209101  0.12853859  0.83772357  1
  H+  H267  1  0.09380755  0.66955405  0.06512129  1
  H+  H268  1  0.85037513  0.88172510  1.00767760  1
  H+  H269  1  0.61887611  0.76121550  0.54746198  1
  H+  H270  1  0.06926157  0.89776680  0.67386091  1
  H+  H271  1  0.64053747  0.03299187  0.51169396  1
  H+  H272  1  0.05033393  0.61943463  0.75855691  1
  H+  H273  1  0.75996216  0.38040899  0.01639536  1
  H+  H274  1  0.63765630  0.27784271  0.66635272  1
  H+  H275  1  0.40316116  0.62519345  0.51362561  1
  H+  H276  1  0.22652018  0.61609010  0.50750174  1
  H+  H277  1  0.41578847  0.33921496  0.56508736  1
  H+  H278  1  0.20794522  0.63552605  0.64530738  1
  H+  H279  1  0.44790112  0.83645835  0.12863965  1
  H+  H280  1  -0.01399595  0.35155386  0.18202272  1
  H+  H281  1  0.38638973  1.03142449  0.33125335  1
  H+  H282  1  0.43932057  0.59456193  0.56783279  1
  H+  H283  1  0.76333983  0.88435638  0.00549858  1
  H+  H284  1  0.72466805  0.35300196  0.17855799  1
  H+  H285  1  0.27570502  0.14031935  1.01569011  1
  H+  H286  1  0.02493642  0.63667886  0.01194840  1
  H+  H287  1  0.60061252  0.66935454  0.77174584  1
  H+  H288  1  0.83338663  0.14656775  0.72005064  1
  H+  H289  1  0.17779700  0.56049660  0.22088021  1
  H+  H290  1  0.82043909  0.91269874  0.10112296  1
  H+  H291  1  0.57826402  0.15279141  0.40292394  1
  H+  H292  1  0.58188889  0.88395210  0.73333490  1
  H+  H293  1  0.40515968  0.80008349  0.89082688  1
  H+  H294  1  0.57033306  0.92854987  0.09061241  1
  H+  H295  1  0.86865608  0.76824303  0.17760586  1
  H+  H296  1  0.83693873  0.67002574  0.42764883  1
  H+  H297  1  0.43440246  0.05604793  0.23506393  1
  H+  H298  1  0.71298340  0.86010644  0.17486383  1
  H+  H299  1  0.08425978  0.16852656  0.10842321  1
  H+  H300  1  0.08543181  0.39880883  0.10109217  1
  H+  H301  1  0.14684820  0.79597137  0.51561519  1
  H+  H302  1  0.33649383  0.17541832  0.42986740  1
  H+  H303  1  0.63558806  0.52067509  -0.00385871  1
  H+  H304  1  0.66181564  0.32988206  0.23538493  1
  H+  H305  1  0.88016225  0.22090992  0.17571045  1
  H+  H306  1  0.82911835  0.41660662  0.72989568  1
  H+  H307  1  0.60289507  0.71780400  0.16531563  1
  H+  H308  1  0.16294844  0.32931836  0.25065156  1
  H+  H309  1  0.61751968  0.23186289  0.50603732  1
  H+  H310  1  0.14644882  0.32635161  0.47477106  1
  H+  H311  1  0.63559299  0.05952742  0.88145462  1
  H+  H312  1  0.17140986  0.09084032  0.23674916  1
  H+  H313  1  0.64115549  0.56375780  0.27214301  1
  H+  H314  1  0.91751203  0.09319764  0.54946969  1
  H+  H315  1  0.10933662  0.87646687  0.18442863  1
  H+  H316  1  0.32254506  0.67028270  0.84727148  1
  H+  H317  1  0.94055753  0.31083988  0.87600910  1
  H+  H318  1  0.58711691  0.66747252  0.06889573  1
  H+  H319  1  0.10963400  0.69181164  0.41911670  1
  H+  H320  1  0.98820236  0.61212923  0.16326857  1
  H+  H321  1  0.58904720  0.41861041  0.41639316  1
  H+  H322  1  0.44388631  0.83907085  0.22840665  1
  H+  H323  1  0.10271479  0.42092847  0.76017008  1
  H+  H324  1  0.42256706  0.83627742  0.57232499  1
  H+  H325  1  0.15315243  0.57590620  0.55698979  1
  H+  H326  1  0.15610435  0.83657419  0.93115066  1
  H+  H327  1  0.88171295  0.55674725  0.24666169  1
  H+  H328  1  0.45326347  0.41318448  0.17061552  1
  H+  H329  1  0.19413915  0.87961271  0.56140305  1
  H+  H330  1  0.61568861  0.38996084  0.50389545  1
  H+  H331  1  0.39590029  0.80844331  0.23134371  1
  H+  H332  1  0.32289499  0.91792353  0.09236879  1
  H+  H333  1  0.65890230  0.82646137  0.27672589  1
  H+  H334  1  0.81908529  0.16921891  0.43273968  1
  H+  H335  1  0.42485682  0.10199904  0.56502809  1
  H+  H336  1  0.13139416  0.35082631  0.17852000  1
  H+  H337  1  0.83834101  0.98187686  0.49210206  1
  H+  H338  1  0.43892595  0.57570660  0.90549649  1
  H+  H339  1  0.86643563  0.38317398  0.34821739  1
  H+  H340  1  0.17975668  0.10375869  0.60124740  1
  H+  H341  1  0.66641270  0.09594955  0.60303429  1
  H+  H342  1  0.34303081  0.67048487  0.44929071  1
  H+  H343  1  0.38780707  0.35970435  1.00708066  1
  H+  H344  1  0.92612196  0.08718753  0.93683381  1
  H+  H345  1  0.33887879  0.17296815  0.07470171  1
  H+  H346  1  0.10839368  0.24796551  0.55502926  1
  H+  H347  1  0.68568048  0.09232962  0.97042152  1
  H+  H348  1  0.84953004  0.96763021  0.34470261  1
  H+  H349  1  0.90881059  0.83238824  0.27049077  1
  H+  H350  1  0.38138492  0.69100555  0.75792967  1
  H+  H351  1  0.10694464  0.94195514  0.73709847  1
  H+  H352  1  0.09109907  0.91852586  0.06925744  1
  H+  H353  1  0.84801981  0.47112544  0.02130743  1
  H+  H354  1  0.82908282  0.39578299  0.11281479  1
  H+  H355  1  0.34042832  0.93153009  0.41210516  1
  H+  H356  1  0.44328862  0.02846045  0.87709895  1
  H+  H357  1  0.22040212  0.66194377  0.27896541  1
  H+  H358  1  0.87457331  0.18219799  0.10949641  1
  H+  H359  1  0.85340108  0.91907707  0.73485295  1
  H+  H360  1  0.38128116  0.33948367  0.25066543  1
  H+  H361  1  0.17335853  0.34109434  0.90428451  1
  H+  H362  1  0.41563706  0.09609784  0.94296049  1
  H+  H363  1  0.02595160  0.96238348  0.78277419  1
  H+  H364  1  0.67272829  0.58621184  0.93930641  1
  H+  H365  1  0.41434720  0.32864733  0.90759375  1
  H+  H366  1  0.59489883  0.17824145  0.76349455  1
  H+  H367  1  0.91148871  0.38238156  0.47775987  1
  H+  H368  1  0.90445691  0.34996817  0.95114627  1
  H+  H369  1  0.33571882  0.42796977  0.40259020  1
  H+  H370  1  0.91905923  0.58815036  0.56126646  1
  H+  H371  1  0.66353017  0.83028867  0.93557633  1
  H+  H372  1  0.28057254  0.15182158  0.16401378  1
  H+  H373  1  0.52132874  0.13599885  0.50397535  1
  H+  H374  1  0.34325258  0.41852148  0.77594676  1
  H+  H375  1  0.60433682  0.88238962  0.00288286  1
  H+  H376  1  0.93772449  0.33115665  0.28272205  1
  H+  H377  1  0.11900542  0.23145359  0.01661882  1
  H+  H378  1  0.61712058  0.85868261  0.66560706  1
  H+  H379  1  0.66383828  0.32853617  0.57240805  1
  H+  H380  1  0.33964085  0.17703322  0.73553278  1
  H+  H381  1  0.58507042  0.41116022  0.06431595  1
  H+  H382  1  0.22924094  0.13032964  0.50504706  1
  H+  H383  1  0.31296583  0.63738416  0.08062961  1
  O2-  O384  1  0.07842535  0.16241538  0.15442873  1
  O2-  O385  1  0.10164764  0.21414091  0.51713314  1
  O2-  O386  1  0.08803440  0.17747517  0.81488821  1
  O2-  O387  1  0.08598445  0.39782726  0.14670655  1
  O2-  O388  1  0.14347612  0.41703921  0.46634298  1
  O2-  O389  1  0.10054188  0.42549441  0.80558678  1
  O2-  O390  1  0.09181828  0.66321644  0.14826201  1
  O2-  O391  1  0.09634678  0.68457922  0.48650752  1
  O2-  O392  1  0.06453188  0.66856080  0.83015183  1
  O2-  O393  1  0.07569068  0.90766018  0.18788445  1
  O2-  O394  1  0.07970510  0.93143634  0.47826457  1
  O2-  O395  1  0.06613987  0.94922593  0.80363717  1
  O2-  O396  1  0.33989616  0.18499685  0.14804998  1
  O2-  O397  1  0.33520724  0.17531529  0.47532154  1
  O2-  O398  1  0.33643683  0.16927047  0.81416712  1
  O2-  O399  1  0.31850330  0.41921402  0.10310344  1
  O2-  O400  1  0.35436588  0.43710818  0.47090848  1
  O2-  O401  1  0.33554333  0.41280940  0.82077895  1
  O2-  O402  1  0.31215534  0.64281549  0.12616012  1
  O2-  O403  1  0.33835031  0.66927919  0.49453148  1
  O2-  O404  1  0.38309042  0.70535731  0.83398378  1
  O2-  O405  1  0.31976799  0.90744520  0.13709194  1
  O2-  O406  1  0.34466043  0.92955108  0.48787161  1
  O2-  O407  1  0.31188815  0.92087397  0.80119240  1
  O2-  O408  1  0.59537322  0.16341185  0.14129376  1
  O2-  O409  1  0.58581396  0.16761342  0.49141518  1
  O2-  O410  1  0.59284907  0.18240044  0.81072953  1
  O2-  O411  1  0.58120358  0.40016987  0.14491829  1
  O2-  O412  1  0.59016906  0.42365332  0.48754649  1
  O2-  O413  1  0.57255551  0.43260948  0.82038685  1
  O2-  O414  1  0.57489177  0.65986571  0.14635725  1
  O2-  O415  1  0.61211215  0.69937015  0.50536195  1
  O2-  O416  1  0.60054515  0.67041395  0.81709439  1
  O2-  O417  1  0.56594111  0.93379036  0.13599038  1
  O2-  O418  1  0.59485351  0.92652176  0.50054567  1
  O2-  O419  1  0.57007785  0.88404067  0.80444211  1
  O2-  O420  1  0.85217183  0.16470444  0.15319698  1
  O2-  O421  1  0.82220043  0.17411586  0.47785892  1
  O2-  O422  1  0.82943547  0.15365786  0.80469056  1
  O2-  O423  1  0.83641353  0.39479875  0.15786948  1
  O2-  O424  1  0.82265419  0.41808621  0.48335623  1
  O2-  O425  1  0.83840748  0.42380901  0.81441300  1
  O2-  O426  1  0.81274968  0.65835785  0.16097375  1
  O2-  O427  1  0.84554345  0.67432668  0.47224262  1
  O2-  O428  1  0.83549606  0.66281914  0.81728797  1
  O2-  O429  1  0.82098101  0.91543523  0.14667433  1
  O2-  O430  1  0.80250527  0.93141664  0.51723794  1
  O2-  O431  1  0.83428570  0.92148435  0.81651694  1
  O2-  O432  1  0.16978191  0.09126328  0.19061335  1
  O2-  O433  1  0.17122173  0.10204187  0.52418456  1
  O2-  O434  1  0.16587548  0.09019792  0.84838089  1
  O2-  O435  1  0.15728919  0.31892166  0.20037530  1
  O2-  O436  1  0.16084619  0.27862988  0.47404586  1
  O2-  O437  1  0.17194386  0.34127357  0.85891894  1
  O2-  O438  1  0.16600732  0.56530735  0.17824789  1
  O2-  O439  1  0.16311300  0.58813351  0.51329773  1
  O2-  O440  1  0.19353476  0.58798219  0.84814729  1
  O2-  O441  1  0.16737882  0.82749459  0.19229271  1
  O2-  O442  1  0.17759582  0.85948056  0.51820393  1
  O2-  O443  1  0.14600209  0.84207754  0.85109675  1
  O2-  O444  1  0.44786590  0.03460991  0.19738902  1
  O2-  O445  1  0.42667587  0.09340433  0.52040682  1
  O2-  O446  1  0.43674033  0.07593713  0.86198243  1
  O2-  O447  1  0.39649817  0.36216966  0.17328852  1
  O2-  O448  1  0.42338508  0.34110674  0.52015728  1
  O2-  O449  1  0.41332741  0.32636035  0.86226151  1
  O2-  O450  1  0.40060321  0.56295504  0.15598625  1
  O2-  O451  1  0.43745078  0.59687683  0.52282413  1
  O2-  O452  1  0.44439647  0.57828004  0.86079767  1
  O2-  O453  1  0.38768732  0.80627268  0.11595903  1
  O2-  O454  1  0.42142230  0.84019836  0.52722907  1
  O2-  O455  1  0.40445055  0.79497431  0.84496865  1
  O2-  O456  1  0.68378379  0.08652624  0.19011205  1
  O2-  O457  1  0.66688089  0.09635501  0.52045670  1
  O2-  O458  1  0.64756194  0.05432182  0.83743545  1
  O2-  O459  1  0.66290655  0.32627833  0.18889836  1
  O2-  O460  1  0.66174908  0.32372615  0.52645616  1
  O2-  O461  1  0.67203624  0.35415157  0.85290892  1
  O2-  O462  1  0.64225984  0.56331542  0.19394372  1
  O2-  O463  1  0.68278776  0.60206078  0.52589157  1
  O2-  O464  1  0.67755150  0.59060905  0.86445146  1
  O2-  O465  1  0.65364247  0.82650858  0.19164812  1
  O2-  O466  1  0.60845376  0.80555904  0.57501628  1
  O2-  O467  1  0.67066156  0.82866823  0.85937229  1
  O2-  O468  1  0.91671262  0.07460359  0.18132321  1
  O2-  O469  1  0.92461006  0.11203781  0.50628654  1
  O2-  O470  1  0.92161590  0.08515675  0.85808894  1
  O2-  O471  1  0.92907136  0.32181819  0.20317482  1
  O2-  O472  1  0.94442562  0.35545582  0.46368226  1
  O2-  O473  1  0.93210901  0.33306986  0.83779978  1
  O2-  O474  1  0.92286012  0.57939693  0.16595277  1
  O2-  O475  1  0.92612412  0.59162641  0.51617472  1
  O2-  O476  1  0.90732579  0.58163949  0.86929275  1
  O2-  O477  1  0.89901994  0.83034077  0.18872325  1
  O2-  O478  1  0.89839759  0.83732638  0.51066020  1
  O2-  O479  1  0.91570653  0.83562537  0.85811416  1
  O2-  O480  1  0.17003907  0.08588327  0.31092705  1
  O2-  O481  1  0.18282134  0.10532282  0.64691022  1
  O2-  O482  1  0.18006194  0.09530010  0.99335461  1
  O2-  O483  1  0.17021846  0.34333997  0.31039478  1
  O2-  O484  1  0.13699528  0.31253074  0.62037300  1
  O2-  O485  1  0.17200708  0.33473583  0.98512884  1
  O2-  O486  1  0.19854922  0.62625415  0.31526999  1
  O2-  O487  1  0.15206622  0.58359834  0.64255656  1
  O2-  O488  1  0.16395067  0.57873872  0.97237941  1
  O2-  O489  1  0.18145844  0.85163118  0.31692801  1
  O2-  O490  1  0.24524846  0.94248651  0.62058405  1
  O2-  O491  1  0.16179030  0.83592493  0.97618989  1
  O2-  O492  1  0.41647476  0.08851827  0.31105316  1
  O2-  O493  1  0.45380747  0.15310505  0.63542634  1
  O2-  O494  1  0.41267872  0.08883067  0.98740357  1
  O2-  O495  1  0.39327825  0.33752089  0.29481531  1
  O2-  O496  1  0.41482638  0.34560356  0.64513146  1
  O2-  O497  1  0.41681135  0.33087484  0.98840901  1
  O2-  O498  1  0.42539090  0.59127867  0.32489614  1
  O2-  O499  1  0.44651810  0.59631669  0.65003325  1
  O2-  O500  1  0.42168924  0.57181241  0.98895698  1
  O2-  O501  1  0.42899113  0.84753315  0.34857237  1
  O2-  O502  1  0.42990285  0.83053362  0.65146788  1
  O2-  O503  1  0.40642411  0.82066040  0.96711819  1
  O2-  O504  1  0.65680103  0.06455178  0.31641957  1
  O2-  O505  1  0.66569190  0.09485942  0.64791898  1
  O2-  O506  1  0.62523946  0.06542786  0.95787093  1
  O2-  O507  1  0.66862621  0.34096593  0.30590064  1
  O2-  O508  1  0.66176293  0.33566016  0.64761551  1
  O2-  O509  1  0.66458561  0.33181043  0.97780763  1
  O2-  O510  1  0.64588240  0.57095868  0.31735552  1
  O2-  O511  1  0.59530451  0.50510226  0.71737038  1
  O2-  O512  1  0.66920943  0.58298693  0.98529424  1
  O2-  O513  1  0.66023008  0.82226608  0.32149013  1
  O2-  O514  1  0.65869882  0.82215434  0.63109847  1
  O2-  O515  1  0.66261845  0.83389458  0.98131417  1
  O2-  O516  1  0.90486331  0.06976251  0.32325389  1
  O2-  O517  1  0.86701195  0.03320975  0.61672184  1
  O2-  O518  1  0.92987512  0.08798524  0.98227363  1
  O2-  O519  1  0.94077703  0.35230561  0.32523963  1
  O2-  O520  1  0.91181208  0.31844943  0.65093662  1
  O2-  O521  1  0.91542921  0.34950284  0.99439468  1
  O2-  O522  1  0.87941977  0.55903255  0.29134149  1
  O2-  O523  1  0.90288972  0.57150602  0.64047236  1
  O2-  O524  1  0.90918036  0.57793204  0.99457033  1
  O2-  O525  1  0.91683272  0.83132721  0.31502553  1
  O2-  O526  1  0.87133097  0.79609573  0.63234981  1
  O2-  O527  1  0.92593875  0.81240247  0.98334432  1
  O2-  O528  1  0.08953362  0.17220947  0.03416493  1
  O2-  O529  1  0.07438198  0.16066761  0.35375791  1
  O2-  O530  1  0.09644708  0.18547406  0.68956203  1
  O2-  O531  1  0.08793108  0.41799259  0.02377511  1
  O2-  O532  1  0.11353771  0.44902464  0.34507239  1
  O2-  O533  1  0.09110013  0.41556651  0.68283629  1
  O2-  O534  1  0.08772149  0.66888651  0.02010588  1
  O2-  O535  1  0.11613402  0.69468449  0.37162254  1
  O2-  O536  1  0.03665648  0.58593863  0.71993886  1
  O2-  O537  1  0.08387466  0.91517433  0.02524716  1
  O2-  O538  1  0.08343362  0.92045590  0.35437827  1
  O2-  O539  1  0.12143703  0.94222984  0.69286652  1
  O2-  O540  1  0.33873550  0.17053626  0.02868146  1
  O2-  O541  1  0.33640772  0.17261075  0.35000439  1
  O2-  O542  1  0.34260370  0.18267380  0.69035390  1
  O2-  O543  1  0.33740607  0.41902994  0.03769907  1
  O2-  O544  1  0.32734887  0.42691145  0.35585517  1
  O2-  O545  1  0.35344213  0.43444226  0.69696060  1
  O2-  O546  1  0.33123781  0.65294203  0.00580752  1
  O2-  O547  1  0.35330128  0.67774636  0.37201686  1
  O2-  O548  1  0.37160789  0.67979402  0.71278744  1
  O2-  O549  1  0.33219778  0.91646325  0.01241269  1
  O2-  O550  1  0.34322489  0.92905129  0.36654796  1
  O2-  O551  1  0.36686064  0.92846165  0.69058538  1
  O2-  O552  1  0.57786007  0.16273534  0.01785423  1
  O2-  O553  1  0.57028913  0.14514923  0.35895479  1
  O2-  O554  1  0.59439970  0.17167061  0.69586955  1
  O2-  O555  1  0.58386513  0.41396362  0.01921398  1
  O2-  O556  1  0.58248525  0.41186994  0.36994813  1
  O2-  O557  1  0.58013507  0.44809152  0.66560501  1
  O2-  O558  1  0.58797187  0.66961640  0.02343277  1
  O2-  O559  1  0.57495862  0.66175303  0.35478224  1
  O2-  O560  1  0.60741966  0.66670244  0.69077814  1
  O2-  O561  1  0.56891177  0.90874764  0.01549463  1
  O2-  O562  1  0.59849979  0.91515274  0.37718697  1
  O2-  O563  1  0.58578918  0.88915108  0.68698350  1
  O2-  O564  1  0.92764313  0.21559028  0.04958940  1
  O2-  O565  1  0.81460929  0.15976181  0.35386074  1
  O2-  O566  1  0.82919123  0.14945642  0.67549910  1
  O2-  O567  1  0.81812890  0.41069358  0.03648036  1
  O2-  O568  1  0.82663783  0.40457808  0.35864928  1
  O2-  O569  1  0.82643324  0.41010147  0.68514534  1
  O2-  O570  1  0.81917073  0.65373678  0.03990119  1
  O2-  O571  1  0.81743494  0.66098623  0.34623230  1
  O2-  O572  1  0.81541556  0.63618471  0.68855890  1
  O2-  O573  1  0.82385140  0.91410373  0.02270544  1
  O2-  O574  1  0.81607646  0.90505019  0.35639069  1
  O2-  O575  1  0.87979878  0.92207655  0.69488821  1
