# generated using pymatgen
data_H2O
_symmetry_space_group_name_H-M   'P 1'
_cell_length_a   17.97975519
_cell_length_b   17.98539769
_cell_length_c   22.00396548
_cell_angle_alpha   90.01612838
_cell_angle_beta   89.97571968
_cell_angle_gamma   120.00184431
_symmetry_Int_Tables_number   1
_chemical_formula_structural   H2O
_chemical_formula_sum   'H384 O192'
_cell_volume   6162.07946023
_cell_formula_units_Z   192
loop_
 _symmetry_equiv_pos_site_id
 _symmetry_equiv_pos_as_xyz
  1  'x, y, z'
loop_
 _atom_type_symbol
 _atom_type_oxidation_number
  H+  1.0
  O2-  -2.0
loop_
 _atom_site_type_symbol
 _atom_site_label
 _atom_site_symmetry_multiplicity
 _atom_site_fract_x
 _atom_site_fract_y
 _atom_site_fract_z
 _atom_site_occupancy
  H+  H0  1  -0.00237441  0.89282488  0.17069847  1
  H+  H1  1  0.11232454  0.13478039  0.49271600  1
  H+  H2  1  -0.00323077  0.37335258  0.32670641  1
  H+  H3  1  0.89833939  0.37178638  0.83700725  1
  H+  H4  1  0.11912580  0.39464432  0.66430857  1
  H+  H5  1  0.72788016  0.37254276  0.16415361  1
  H+  H6  1  0.03933935  0.80651781  0.04926533  1
  H+  H7  1  1.00080344  0.11894874  1.00350114  1
  H+  H8  1  0.83055521  0.16425180  0.10792639  1
  H+  H9  1  0.33358254  0.41273314  0.43128722  1
  H+  H10  1  0.84589400  0.42376846  0.76359932  1
  H+  H11  1  0.65828745  0.83846795  0.56196142  1
  H+  H12  1  0.28528335  0.63838890  0.33734239  1
  H+  H13  1  0.52489400  0.39139161  0.00929040  1
  H+  H14  1  0.64434910  0.36392363  1.02562341  1
  H+  H15  1  0.36296591  0.63427446  0.49228700  1
  H+  H16  1  0.86998806  0.87132765  0.84730173  1
  H+  H17  1  0.51571126  0.37731744  0.15763540  1
  H+  H18  1  0.40677804  0.57207431  0.56483310  1
  H+  H19  1  0.87542912  0.23073351  0.00503978  1
  H+  H20  1  0.35732245  0.95710338  0.83817050  1
  H+  H21  1  0.72440484  0.86198871  1.00091621  1
  H+  H22  1  0.48922713  0.12834488  -0.00003052  1
  H+  H23  1  0.39726835  0.86002927  0.33025975  1
  H+  H24  1  0.59546826  0.11283999  0.15588815  1
  H+  H25  1  0.77323967  0.89511018  0.15952092  1
  H+  H26  1  -0.02295931  0.86169207  0.49274878  1
  H+  H27  1  0.73470993  0.36669509  1.02460577  1
  H+  H28  1  0.87566118  0.52013958  0.65874950  1
  H+  H29  1  0.11300897  0.97225282  0.48805019  1
  H+  H30  1  0.61502469  0.48022699  0.00881363  1
  H+  H31  1  0.13975046  0.27738795  0.65665261  1
  H+  H32  1  0.62904305  0.88191065  0.49385268  1
  H+  H33  1  0.72543510  0.60692140  0.50102492  1
  H+  H34  1  0.40621665  0.77498137  0.98872429  1
  H+  H35  1  0.72247076  0.10470516  0.51867523  1
  H+  H36  1  0.37893156  0.25946854  0.32255995  1
  H+  H37  1  0.63640243  0.51633507  0.50250748  1
  H+  H38  1  0.87853549  0.76080023  0.64960959  1
  H+  H39  1  0.63951019  0.87289864  0.16287922  1
  H+  H40  1  0.36171833  0.97981641  0.68179528  1
  H+  H41  1  0.86108644  0.88591803  0.49110055  1
  H+  H42  1  0.61883615  0.13687571  0.85158711  1
  H+  H43  1  0.36462351  0.47575107  0.33752928  1
  H+  H44  1  0.14395680  0.77111818  0.17352458  1
  H+  H45  1  0.38901430  0.36395174  0.50251243  1
  H+  H46  1  0.14148976  0.52946077  0.83972761  1
  H+  H47  1  0.13264838  0.46098081  0.13906819  1
  H+  H48  1  0.77389240  0.15185728  0.67434488  1
  H+  H49  1  0.47422195  0.60373871  0.65997446  1
  H+  H50  1  0.06507162  0.63579021  0.67601153  1
  H+  H51  1  0.27033981  0.14648977  -0.00729646  1
  H+  H52  1  0.38714560  0.52451729  0.82745872  1
  H+  H53  1  0.37881961  0.26531867  0.16344145  1
  H+  H54  1  -0.02481437  0.60947994  0.50353322  1
  H+  H55  1  0.10854249  0.32242481  0.86642409  1
  H+  H56  1  0.77989783  0.39763921  0.66722058  1
  H+  H57  1  0.13635147  0.40824259  0.80690094  1
  H+  H58  1  0.72882770  0.86970739  0.50485037  1
  H+  H59  1  0.12266085  0.39588774  0.34104613  1
  H+  H60  1  0.35875300  0.38594376  1.01814877  1
  H+  H61  1  0.35920775  0.97127942  0.16910927  1
  H+  H62  1  0.86491912  0.47212432  0.49447835  1
  H+  H63  1  0.89412267  0.52771028  0.99182754  1
  H+  H64  1  0.12127065  0.60576085  0.17876930  1
  H+  H65  1  0.47551146  0.61422884  0.82597915  1
  H+  H66  1  0.85863749  0.48404470  0.16367716  1
  H+  H67  1  0.84659856  0.67374392  0.06084132  1
  H+  H68  1  0.82987608  0.18535777  0.73461940  1
  H+  H69  1  0.26351598  0.37081640  0.16834971  1
  H+  H70  1  0.60780918  0.62792575  0.50005843  1
  H+  H71  1  0.84566905  0.41303472  0.40658577  1
  H+  H72  1  0.47043575  0.60532491  0.50835144  1
  H+  H73  1  0.11610555  0.38699209  0.49405402  1
  H+  H74  1  0.36383746  0.15002621  -0.00036638  1
  H+  H75  1  0.87004868  -0.02184070  0.33427341  1
  H+  H76  1  0.32331246  0.40562928  0.10934097  1
  H+  H77  1  0.83267567  0.91408731  0.06909235  1
  H+  H78  1  0.61659697  0.64674377  0.82132290  1
  H+  H79  1  0.86865314  0.38387267  0.49681824  1
  H+  H80  1  0.14170275  0.60536263  0.99389640  1
  H+  H81  1  0.12477386  0.48683360  0.34388756  1
  H+  H82  1  0.36281288  0.46911053  0.67065384  1
  H+  H83  1  0.42255332  0.83093271  0.23129215  1
  H+  H84  1  0.58121497  0.92572704  0.09100289  1
  H+  H85  1  0.86943443  0.23617349  0.83022519  1
  H+  H86  1  0.12683348  0.48755727  0.66265664  1
  H+  H87  1  0.61668241  0.98303933  0.34576488  1
  H+  H88  1  0.98158766  0.36095205  0.50514476  1
  H+  H89  1  0.35172857  0.13180707  0.14322188  1
  H+  H90  1  0.51865303  0.88380601  0.14926034  1
  H+  H91  1  0.88767035  0.11289640  0.52160296  1
  H+  H92  1  0.35392254  0.38143981  0.33523342  1
  H+  H93  1  0.35214689  0.10943711  0.65897176  1
  H+  H94  1  0.37053884  0.72554847  0.67765269  1
  H+  H95  1  0.99042981  0.36309279  0.99555625  1
  H+  H96  1  0.88106282  0.78844599  0.83918725  1
  H+  H97  1  0.87147618  0.64324225  0.33224830  1
  H+  H98  1  0.72618866  0.36805470  0.80816846  1
  H+  H99  1  0.63736086  0.28130664  0.81271197  1
  H+  H100  1  0.63156075  0.09897876  0.50864470  1
  H+  H101  1  0.62717643  0.01613604  0.17398267  1
  H+  H102  1  0.57665603  0.42491440  0.72497519  1
  H+  H103  1  0.63003545  0.36959985  0.15938173  1
  H+  H104  1  0.94552935  0.74532038  0.78229527  1
  H+  H105  1  0.24485166  0.85381989  0.84500346  1
  H+  H106  1  -0.01610406  0.37709246  0.65731246  1
  H+  H107  1  0.72632851  0.61384110  -0.00511495  1
  H+  H108  1  0.88940714  0.86334153  0.32329870  1
  H+  H109  1  0.86471804  0.63598434  0.00076793  1
  H+  H110  1  0.40677307  0.85616338  0.83651932  1
  H+  H111  1  0.83874347  0.62890444  0.66459465  1
  H+  H112  1  0.10981363  0.23663126  0.34191772  1
  H+  H113  1  0.23963996  0.87536872  -0.00120957  1
  H+  H114  1  0.63155286  0.50544480  0.18144301  1
  H+  H115  1  0.02235616  0.63430061  0.16009830  1
  H+  H116  1  0.38259010  0.52201990  1.01048952  1
  H+  H117  1  0.87125261  0.48100497  0.82351162  1
  H+  H118  1  0.89814347  0.85712999  0.63893695  1
  H+  H119  1  0.22445706  0.10976299  0.50184571  1
  H+  H120  1  0.90384349  0.12169604  1.02323057  1
  H+  H121  1  1.00671633  0.85978374  1.01354685  1
  H+  H122  1  0.91187286  0.08211754  0.71131720  1
  H+  H123  1  0.35271908  0.71840450  0.16507964  1
  H+  H124  1  -0.01305603  0.37140569  0.83505780  1
  H+  H125  1  0.05612691  0.14207793  0.89507135  1
  H+  H126  1  0.37308733  0.63461607  0.33795949  1
  H+  H127  1  0.36479268  0.19017191  0.80452577  1
  H+  H128  1  0.36364572  0.12285650  0.33905905  1
  H+  H129  1  0.86457630  0.22963131  0.50779873  1
  H+  H130  1  0.63993162  0.12680140  0.33295822  1
  H+  H131  1  0.73104229  0.86675935  0.31920063  1
  H+  H132  1  0.38533525  0.85900126  0.17520295  1
  H+  H133  1  0.26530826  0.37763339  0.01889608  1
  H+  H134  1  0.78951024  0.36503052  0.34970653  1
  H+  H135  1  0.89821388  0.11229113  0.30058695  1
  H+  H136  1  0.37086553  0.96882037  0.34160360  1
  H+  H137  1  0.14149199  0.52531098  0.50477950  1
  H+  H138  1  0.72076330  0.44988940  0.60826622  1
  H+  H139  1  0.95742753  0.72799411  0.12824898  1
  H+  H140  1  0.13456243  0.10436517  0.65466624  1
  H+  H141  1  0.11111863  0.25251068  0.18159333  1
  H+  H142  1  0.60897854  0.73110791  0.82790105  1
  H+  H143  1  0.36290899  0.97082250  0.49347919  1
  H+  H144  1  0.53289385  0.89648008  -0.00613210  1
  H+  H145  1  0.52963188  0.88968119  0.34399324  1
  H+  H146  1  0.67387351  0.35514647  0.58736580  1
  H+  H147  1  0.22884919  0.36097357  0.50331919  1
  H+  H148  1  1.00757160  0.89278713  0.82400037  1
  H+  H149  1  0.96581888  0.08147318  0.22812848  1
  H+  H150  1  0.72679080  0.35270052  0.49901614  1
  H+  H151  1  0.62690737  0.23082229  0.01919977  1
  H+  H152  1  0.60899849  0.37705692  0.48996820  1
  H+  H153  1  0.12575303  0.34529310  0.16489651  1
  H+  H154  1  0.90451717  0.62315002  0.83139322  1
  H+  H155  1  0.38006246  0.35438715  0.17211507  1
  H+  H156  1  0.50027399  0.37315420  0.34206926  1
  H+  H157  1  0.57743188  0.41641658  0.09772178  1
  H+  H158  1  0.14685723  0.61843879  0.33310811  1
  H+  H159  1  0.15659684  0.65050718  0.67229013  1
  H+  H160  1  0.10717209  0.21733875  -0.01753490  1
  H+  H161  1  0.61008475  0.62728866  0.29823208  1
  H+  H162  1  0.36053053  0.99286194  0.01761476  1
  H+  H163  1  0.84592898  0.97840550  0.81849546  1
  H+  H164  1  0.58302943  0.36590286  0.33292621  1
  H+  H165  1  0.61056657  0.64645386  0.66603511  1
  H+  H166  1  0.11031417  0.72291171  0.49689714  1
  H+  H167  1  0.35197235  0.07813958  0.84505127  1
  H+  H168  1  0.51352877  0.89844989  0.69112207  1
  H+  H169  1  0.40484073  0.30690435  0.85428864  1
  H+  H170  1  0.89920488  1.02670160  0.02367298  1
  H+  H171  1  0.12983108  0.35659802  -0.00222984  1
  H+  H172  1  0.14246584  0.85843293  0.99084431  1
  H+  H173  1  0.22547278  0.85818432  0.50663411  1
  H+  H174  1  0.79060823  0.13996449  -0.00476403  1
  H+  H175  1  0.02743211  0.63662031  0.00319680  1
  H+  H176  1  0.64325504  0.02562269  0.96803006  1
  H+  H177  1  0.72721490  0.12451771  0.32552200  1
  H+  H178  1  0.27213534  0.38008470  0.66635889  1
  H+  H179  1  0.11911283  0.72711536  0.34133132  1
  H+  H180  1  0.38700405  0.28273337  -0.00778002  1
  H+  H181  1  0.88254146  0.23873482  0.31640549  1
  H+  H182  1  0.83679257  0.66987978  0.38916646  1
  H+  H183  1  0.76885257  0.13239719  0.16315639  1
  H+  H184  1  0.14903813  0.78015016  0.66259256  1
  H+  H185  1  0.61842162  0.14134526  0.68506393  1
  H+  H186  1  0.63633746  0.02797816  0.67171009  1
  H+  H187  1  0.12632804  0.24932299  0.84790261  1
  H+  H188  1  0.12020075  0.72205780  0.00576412  1
  H+  H189  1  0.38149908  0.36641173  0.65304617  1
  H+  H190  1  0.47559399  0.85813023  0.51043441  1
  H+  H191  1  0.61159965  0.64000736  0.01215333  1
  H+  H192  1  0.36407473  0.63025018  0.82169977  1
  H+  H193  1  0.89210342  0.28881830  0.66146738  1
  H+  H194  1  0.52398129  0.12564710  0.48775320  1
  H+  H195  1  0.24552812  0.21538274  0.28528697  1
  H+  H196  1  0.87126572  0.40486469  0.16438190  1
  H+  H197  1  0.96378447  0.10291114  0.81225864  1
  H+  H198  1  0.36298636  0.63178129  0.00934836  1
  H+  H199  1  0.88173008  0.11543093  0.80331440  1
  H+  H200  1  0.83931007  0.92711215  0.68538498  1
  H+  H201  1  0.10391467  0.98979201  0.16305920  1
  H+  H202  1  0.26555331  0.89639882  0.67992298  1
  H+  H203  1  0.37216303  0.86392099  0.67328181  1
  H+  H204  1  0.08765017  0.41909835  0.43514671  1
  H+  H205  1  0.11275090  0.88300834  0.49087718  1
  H+  H206  1  0.47871844  0.37204589  0.65330202  1
  H+  H207  1  0.98926311  0.61728607  0.83643413  1
  H+  H208  1  0.26325823  0.63037886  0.16455659  1
  H+  H209  1  0.00507229  0.39599504  0.16542707  1
  H+  H210  1  0.53594108  0.40812955  0.82110144  1
  H+  H211  1  0.12498107  0.63755029  0.83312095  1
  H+  H212  1  0.46363990  0.02306643  0.62358245  1
  H+  H213  1  0.88119522  0.86963126  0.17448987  1
  H+  H214  1  0.22588031  0.36783841  0.32395166  1
  H+  H215  1  0.94831660  0.62001177  0.65817479  1
  H+  H216  1  0.86477216  0.88962888  0.00829902  1
  H+  H217  1  0.47166834  0.61063267  0.00594156  1
  H+  H218  1  0.87978930  0.39668814  0.01047875  1
  H+  H219  1  0.49652773  0.10568024  0.66437637  1
  H+  H220  1  0.36305514  0.88182654  0.49689942  1
  H+  H221  1  0.79225894  0.82636759  0.69765521  1
  H+  H222  1  0.08330381  0.17180074  0.39919751  1
  H+  H223  1  0.98508189  0.11616099  0.32265228  1
  H+  H224  1  0.89737695  0.52332646  0.32842794  1
  H+  H225  1  0.38944730  0.11231955  0.50320283  1
  H+  H226  1  0.60942897  0.40122581  0.66284202  1
  H+  H227  1  0.89186875  0.13665686  0.66817305  1
  H+  H228  1  0.11673431  0.12744928  -0.02526541  1
  H+  H229  1  0.62862597  0.90377909  0.84396235  1
  H+  H230  1  0.63829652  0.26232629  0.50226240  1
  H+  H231  1  0.60990891  0.77116754  0.65059964  1
  H+  H232  1  0.62312272  0.90177743  0.00225808  1
  H+  H233  1  0.89201728  0.74986428  0.15661516  1
  H+  H234  1  0.02677721  0.14541159  0.67355339  1
  H+  H235  1  0.73077190  0.62275526  0.84100245  1
  H+  H236  1  0.53115551  0.13648855  0.84661239  1
  H+  H237  1  0.39510945  0.38692554  0.84065387  1
  H+  H238  1  0.18262399  0.82845934  0.91200460  1
  H+  H239  1  0.64494076  0.53337851  0.83247482  1
  H+  H240  1  0.86110089  0.63353122  0.48624698  1
  H+  H241  1  0.17253682  0.82795171  0.23365624  1
  H+  H242  1  0.71065384  0.85895958  0.85648159  1
  H+  H243  1  0.36249813  0.47184782  0.49131749  1
  H+  H244  1  0.26761979  0.37892478  0.82304622  1
  H+  H245  1  0.88980595  0.77322230  0.32011389  1
  H+  H246  1  0.59550958  0.89061920  0.68091100  1
  H+  H247  1  0.62517601  0.14509557  -0.00731887  1
  H+  H248  1  0.22127422  0.11402043  0.15701873  1
  H+  H249  1  0.27177601  0.88087249  0.16669531  1
  H+  H250  1  0.23037191  0.85794174  0.32821671  1
  H+  H251  1  0.60756219  0.71604336  0.49568849  1
  H+  H252  1  0.61902025  0.39789130  0.80487225  1
  H+  H253  1  0.47693303  0.11203909  0.16347556  1
  H+  H254  1  0.90676177  0.36998181  0.32631142  1
  H+  H255  1  0.14740227  0.04092046  0.98831563  1
  H+  H256  1  0.42602721  0.08355562  0.56007642  1
  H+  H257  1  0.86938952  0.39581449  0.66654818  1
  H+  H258  1  0.25010524  0.61691354  0.65524811  1
  H+  H259  1  0.40138814  0.76693229  0.83330932  1
  H+  H260  1  0.69444683  0.85894221  0.65615958  1
  H+  H261  1  0.02217133  0.87607625  0.67003147  1
  H+  H262  1  0.86289860  -0.02445203  0.49804376  1
  H+  H263  1  0.23381258  0.61165958  0.99250605  1
  H+  H264  1  0.38630958  0.60322572  0.66247053  1
  H+  H265  1  0.65582103  0.03110783  0.86735267  1
  H+  H266  1  0.15657517  0.15517886  0.31631282  1
  H+  H267  1  0.14731291  0.76266716  0.84738040  1
  H+  H268  1  0.48377787  0.11383088  0.32504228  1
  H+  H269  1  0.06837722  0.91311616  0.10860514  1
  H+  H270  1  0.09216917  0.12128670  0.15937996  1
  H+  H271  1  0.12716010  1.01157112  0.65644243  1
  H+  H272  1  0.60742444  0.72753278  0.15968673  1
  H+  H273  1  0.37824075  0.51406089  0.17598176  1
  H+  H274  1  0.03236741  0.88545654  0.33132732  1
  H+  H275  1  0.62369901  0.52880597  0.65505623  1
  H+  H276  1  0.98623060  0.61275333  0.32787104  1
  H+  H277  1  0.89544473  0.61997087  0.17765662  1
  H+  H278  1  0.14140171  0.86013529  0.32633979  1
  H+  H279  1  0.62041361  -0.02364766  0.49511584  1
  H+  H280  1  0.88035616  0.76990764  0.99123365  1
  H+  H281  1  0.36332193  0.22330300  0.49265101  1
  H+  H282  1  0.87286251  0.97638980  0.15745509  1
  H+  H283  1  0.69304034  0.36673228  0.30571105  1
  H+  H284  1  0.26295585  0.10835934  0.66350677  1
  H+  H285  1  0.86070132  0.72245409  0.48443291  1
  H+  H286  1  0.37557438  0.60190465  0.17436747  1
  H+  H287  1  0.11245735  0.63479533  0.49555575  1
  H+  H288  1  0.17478569  0.10413363  0.22099580  1
  H+  H289  1  0.91371672  0.83749425  0.93584327  1
  H+  H290  1  0.92475597  0.33847336  0.56657033  1
  H+  H291  1  0.82142993  0.16159693  0.45484691  1
  H+  H292  1  0.85454291  0.68739504  0.75336974  1
  H+  H293  1  0.16890005  0.07898545  0.90130986  1
  H+  H294  1  0.87031466  0.11682603  0.91157530  1
  H+  H295  1  0.16455389  0.58178616  0.27231250  1
  H+  H296  1  0.57223990  0.40286371  0.43246779  1
  H+  H297  1  0.41305607  0.57557333  0.26723234  1
  H+  H298  1  0.79407251  0.89417290  0.78174850  1
  H+  H299  1  0.09409826  0.16997155  0.72656791  1
  H+  H300  1  0.40150224  0.31645464  0.26050640  1
  H+  H301  1  0.66596822  0.58625050  0.93652044  1
  H+  H302  1  0.18117721  0.33391331  0.94373007  1
  H+  H303  1  0.16721182  0.83374549  0.56627632  1
  H+  H304  1  0.08272878  0.66192666  0.10013743  1
  H+  H305  1  0.28099800  0.13602350  0.33584778  1
  H+  H306  1  0.55791211  0.21198900  0.37934943  1
  H+  H307  1  0.66984871  0.84552906  0.22379872  1
  H+  H308  1  0.09065365  0.40080609  0.07758989  1
  H+  H309  1  0.13835456  0.27262177  0.50490086  1
  H+  H310  1  0.32430806  0.16782170  0.08489178  1
  H+  H311  1  0.61704618  0.25813755  0.31506336  1
  H+  H312  1  0.09871201  0.11395918  0.84490290  1
  H+  H313  1  0.41843053  0.33999329  0.58706254  1
  H+  H314  1  0.65207372  0.07471923  0.23444981  1
  H+  H315  1  0.47925753  0.36245996  0.50445250  1
  H+  H316  1  0.17172304  0.58390503  0.90304706  1
  H+  H317  1  0.38732455  0.77038835  0.50882501  1
  H+  H318  1  0.91567380  0.84062239  0.23712953  1
  H+  H319  1  0.23062657  0.61509692  0.50003017  1
  H+  H320  1  0.44217531  0.15863795  0.20715103  1
  H+  H321  1  0.90892782  0.57984944  0.55955214  1
  H+  H322  1  0.11847561  0.45802784  0.00020667  1
  H+  H323  1  0.42439070  0.35840547  0.94185805  1
  H+  H324  1  0.33702986  0.66095003  0.73447681  1
  H+  H325  1  0.32476191  0.40488076  0.76209977  1
  H+  H326  1  0.78099615  0.14894876  0.84079642  1
  H+  H327  1  0.40909803  0.84136494  0.61379004  1
  H+  H328  1  0.15983959  0.33304258  0.26650612  1
  H+  H329  1  0.21733893  0.09813458  0.83459373  1
  H+  H330  1  0.59196940  0.91946431  0.42892571  1
  H+  H331  1  0.92172516  0.58607140  0.93102395  1
  H+  H332  1  0.88053890  0.08176372  0.91721822  1
  H+  H333  1  0.32888080  0.91001407  0.77340681  1
  H+  H334  1  0.68650388  0.35621788  0.91664924  1
  H+  H335  1  0.57831573  0.15786536  0.74403336  1
  H+  H336  1  0.70433133  0.32634769  0.91741240  1
  H+  H337  1  0.33528516  0.16229576  0.43389462  1
  H+  H338  1  0.31258374  0.01505333  0.90019195  1
  H+  H339  1  0.61698854  0.71680379  0.31400991  1
  H+  H340  1  0.43875007  0.82654983  0.92609427  1
  H+  H341  1  0.52014177  0.63754217  0.16244435  1
  H+  H342  1  0.96071530  0.38436435  0.23123405  1
  H+  H343  1  0.18762341  0.59286562  0.59487126  1
  H+  H344  1  0.07344196  0.91176356  0.73374016  1
  H+  H345  1  0.85159034  0.43084012  0.06884486  1
  H+  H346  1  0.10862799  0.67591690  0.77181396  1
  H+  H347  1  0.65424103  0.32957627  0.22197509  1
  H+  H348  1  0.32986260  0.66579616  0.06420737  1
  H+  H349  1  0.08633789  0.66702788  0.40108851  1
  H+  H350  1  0.64241813  0.86572329  0.32247664  1
  H+  H351  1  0.66199728  0.07934934  0.60883912  1
  H+  H352  1  0.42238616  0.09126880  0.94515620  1
  H+  H353  1  0.33718985  0.90869912  0.40050740  1
  H+  H354  1  0.07338780  0.51023300  0.20025103  1
  H+  H355  1  0.58943245  0.15456608  0.43129260  1
  H+  H356  1  0.09328133  0.43165062  0.75414241  1
  H+  H357  1  0.66036336  0.58465875  0.59396092  1
  H+  H358  1  0.56981256  0.13851598  0.09174018  1
  H+  H359  1  0.34029920  0.66807024  0.43155907  1
  H+  H360  1  0.40125716  0.77295735  0.32887876  1
  H+  H361  1  0.91925290  0.82511580  0.55166927  1
  H+  H362  1  0.92072244  0.58335203  0.23662746  1
  H+  H363  1  0.48284825  0.60726979  0.31970285  1
  H+  H364  1  0.91908722  0.08025355  0.57729414  1
  H+  H365  1  0.58089423  0.66733980  0.07307175  1
  H+  H366  1  1.02466643  0.13667178  0.49803093  1
  H+  H367  1  0.32764962  0.92598138  0.07340650  1
  H+  H368  1  0.13374883  0.86188781  0.66357931  1
  H+  H369  1  0.08754578  0.91217895  0.39132416  1
  H+  H370  1  0.58416943  0.67724913  0.72725661  1
  H+  H371  1  0.10299924  0.96909841  0.82420205  1
  H+  H372  1  0.27639255  0.63567211  0.82580167  1
  H+  H373  1  0.75423275  0.63747044  0.66806973  1
  H+  H374  1  0.64918481  0.82227406  0.91358342  1
  H+  H375  1  0.60407715  0.94534024  0.78874196  1
  H+  H376  1  0.92667452  0.34034131  0.93847908  1
  H+  H377  1  0.16249261  0.07552709  0.55971876  1
  H+  H378  1  0.87352757  0.17502384  0.36770160  1
  H+  H379  1  0.83582929  0.92102789  0.39478879  1
  H+  H380  1  0.41900276  0.07043739  0.26897939  1
  H+  H381  1  0.32062982  0.12386033  0.75180867  1
  H+  H382  1  0.16960015  0.33507104  0.59624507  1
  H+  H383  1  0.63340613  0.77279578  1.00592027  1
  O2-  O384  1  0.04639017  0.13756597  0.15834043  1
  O2-  O385  1  0.08297122  0.16726920  0.47978070  1
  O2-  O386  1  0.06296453  0.14287177  0.84957976  1
  O2-  O387  1  0.09279488  0.40151046  0.12752132  1
  O2-  O388  1  0.08438862  0.41674589  0.48087068  1
  O2-  O389  1  0.09677682  0.42982695  0.79993850  1
  O2-  O390  1  0.08315805  0.66521519  0.14549904  1
  O2-  O391  1  0.07910479  0.66242648  0.48143278  1
  O2-  O392  1  0.09805196  0.67208188  0.81639154  1
  O2-  O393  1  0.06543542  0.92583333  0.15259519  1
  O2-  O394  1  0.08158087  0.91131844  0.47400463  1
  O2-  O395  1  0.06462744  0.91144295  0.80568848  1
  O2-  O396  1  0.32117337  0.16259537  0.13088760  1
  O2-  O397  1  0.33391175  0.16225659  0.47942502  1
  O2-  O398  1  0.32341506  0.12979513  0.79846827  1
  O2-  O399  1  0.32461544  0.40350517  0.15541121  1
  O2-  O400  1  0.33445485  0.41056400  0.47690603  1
  O2-  O401  1  0.32698749  0.40978575  0.80739103  1
  O2-  O402  1  0.32252310  0.65776830  0.14983108  1
  O2-  O403  1  0.33650223  0.66845544  0.47715519  1
  O2-  O404  1  0.33385359  0.66214621  0.80627871  1
  O2-  O405  1  0.33424304  0.91377703  0.15150361  1
  O2-  O406  1  0.33123902  0.90968980  0.48023437  1
  O2-  O407  1  0.33132453  0.89969913  0.81819335  1
  O2-  O408  1  0.55733660  0.13136093  0.13598569  1
  O2-  O409  1  0.58645873  0.15211238  0.47644135  1
  O2-  O410  1  0.58762744  0.16033075  0.82799223  1
  O2-  O411  1  0.57721245  0.40994974  0.14379154  1
  O2-  O412  1  0.57843478  0.40820412  0.47845530  1
  O2-  O413  1  0.59183136  0.43552915  0.79931778  1
  O2-  O414  1  0.57887778  0.66758288  0.14516055  1
  O2-  O415  1  0.57141467  0.65380433  0.49150869  1
  O2-  O416  1  0.58744587  0.67637888  0.80404096  1
  O2-  O417  1  0.57971488  0.91854719  0.13610425  1
  O2-  O418  1  0.59306490  0.91577848  0.47673825  1
  O2-  O419  1  0.63585486  0.95869436  0.82735441  1
  O2-  O420  1  0.83011915  0.15935409  0.15233395  1
  O2-  O421  1  0.82964871  0.16522776  0.49877457  1
  O2-  O422  1  0.83262539  0.17618279  0.81438475  1
  O2-  O423  1  0.83081582  0.42300872  0.14862486  1
  O2-  O424  1  0.83568430  0.41078757  0.48019197  1
  O2-  O425  1  0.84331227  0.42056380  0.80871865  1
  O2-  O426  1  0.89573027  0.70338801  0.13383687  1
  O2-  O427  1  0.82773628  0.66081328  0.47221927  1
  O2-  O428  1  0.88597470  0.70445674  0.79323151  1
  O2-  O429  1  0.83434559  0.91618265  0.14475996  1
  O2-  O430  1  0.82927744  0.91685122  0.48038883  1
  O2-  O431  1  0.81212586  0.91428641  0.82374558  1
  O2-  O432  1  0.16307048  0.08671097  0.17733932  1
  O2-  O433  1  0.16279134  0.07902034  0.51437959  1
  O2-  O434  1  0.16028078  0.06992262  0.85402994  1
  O2-  O435  1  0.14943026  0.31431656  0.18997786  1
  O2-  O436  1  0.16887474  0.33337811  0.51993228  1
  O2-  O437  1  0.15559939  0.31388148  0.85318383  1
  O2-  O438  1  0.13249446  0.56208274  0.19853955  1
  O2-  O439  1  0.17168329  0.58645714  0.51866617  1
  O2-  O440  1  0.17076186  0.58854232  0.85671184  1
  O2-  O441  1  0.17619808  0.83115915  0.18840431  1
  O2-  O442  1  0.16453980  0.82925989  0.52108591  1
  O2-  O443  1  0.18284186  0.82411221  0.86396666  1
  O2-  O444  1  0.42137047  0.10340274  0.18700209  1
  O2-  O445  1  0.42140273  0.08190991  0.51509019  1
  O2-  O446  1  0.36496404  0.04452977  0.87588573  1
  O2-  O447  1  0.41169298  0.32294204  0.18314418  1
  O2-  O448  1  0.41830680  0.33365474  0.52090609  1
  O2-  O449  1  0.43482558  0.36880129  0.85982071  1
  O2-  O450  1  0.40870877  0.57503757  0.18971820  1
  O2-  O451  1  0.40724750  0.57411886  0.51966557  1
  O2-  O452  1  0.41515006  0.58502621  0.84015435  1
  O2-  O453  1  0.41513815  0.82641340  0.18639266  1
  O2-  O454  1  0.41632797  0.83040003  0.52586926  1
  O2-  O455  1  0.43833064  0.82682512  0.84789623  1
  O2-  O456  1  0.65376438  0.07622468  0.18965808  1
  O2-  O457  1  0.65963902  0.06768437  0.52683208  1
  O2-  O458  1  0.67806804  0.09329705  0.88664117  1
  O2-  O459  1  0.66416252  0.34037716  0.17517675  1
  O2-  O460  1  0.66622651  0.32386602  0.51421196  1
  O2-  O461  1  0.66431782  0.34096415  0.79810183  1
  O2-  O462  1  0.66998441  0.55872731  0.20613469  1
  O2-  O463  1  0.66640620  0.57587053  0.51939943  1
  O2-  O464  1  0.67025715  0.59162905  0.85227063  1
  O2-  O465  1  0.67272311  0.84589390  0.17841509  1
  O2-  O466  1  0.66555351  0.84223010  0.51602083  1
  O2-  O467  1  0.64898757  0.82425347  0.86773961  1
  O2-  O468  1  0.97594662  0.06150741  0.18786686  1
  O2-  O469  1  0.91773764  0.08094857  0.53257432  1
  O2-  O470  1  0.90724823  0.07914462  0.79103070  1
  O2-  O471  1  0.97318646  0.41604380  0.19205519  1
  O2-  O472  1  0.92072070  0.33099159  0.52118875  1
  O2-  O473  1  0.92824731  0.34099086  0.85218089  1
  O2-  O474  1  0.91888928  0.58302265  0.19074729  1
  O2-  O475  1  0.91233668  0.57726715  0.51476212  1
  O2-  O476  1  0.92763140  0.58835634  0.84921683  1
  O2-  O477  1  0.91831008  0.84522156  0.18948233  1
  O2-  O478  1  0.91540196  0.83126093  0.50723901  1
  O2-  O479  1  0.90516125  0.84449625  0.85985568  1
  O2-  O480  1  0.20368656  0.15466930  0.29201407  1
  O2-  O481  1  0.16038548  0.07080038  0.63868837  1
  O2-  O482  1  0.17349262  0.09669752  0.96820378  1
  O2-  O483  1  0.16356208  0.33758732  0.31208732  1
  O2-  O484  1  0.17055424  0.33797726  0.64208779  1
  O2-  O485  1  0.16539230  0.32247660  0.98674368  1
  O2-  O486  1  0.17633108  0.58752963  0.31720198  1
  O2-  O487  1  0.18859253  0.59151336  0.64062165  1
  O2-  O488  1  0.17323208  0.57900319  0.97545444  1
  O2-  O489  1  0.17017700  0.82642273  0.31315817  1
  O2-  O490  1  0.17066994  0.83920181  0.64674060  1
  O2-  O491  1  0.17972303  0.83564451  0.97759011  1
  O2-  O492  1  0.42116312  0.07349283  0.31392240  1
  O2-  O493  1  0.44478168  0.06253169  0.63761822  1
  O2-  O494  1  0.42632787  0.10163023  0.98935676  1
  O2-  O495  1  0.39103973  0.31571739  0.30536520  1
  O2-  O496  1  0.41764647  0.34101672  0.63528633  1
  O2-  O497  1  0.42084375  0.34692382  0.98605338  1
  O2-  O498  1  0.41819112  0.57732043  0.31266890  1
  O2-  O499  1  0.41273393  0.56930550  0.64696047  1
  O2-  O500  1  0.41032287  0.58082747  0.99367060  1
  O2-  O501  1  0.43232246  0.83453901  0.31510037  1
  O2-  O502  1  0.40811344  0.83934770  0.65872798  1
  O2-  O503  1  0.44030061  0.83327596  0.97127888  1
  O2-  O504  1  0.66404038  0.09033072  0.32055946  1
  O2-  O505  1  0.66867444  0.08710514  0.65350412  1
  O2-  O506  1  0.68005366  0.08905118  0.95407319  1
  O2-  O507  1  0.64023150  0.32081201  0.28840493  1
  O2-  O508  1  0.68988939  0.39187987  0.62507135  1
  O2-  O509  1  0.67322914  0.33085880  1.03517947  1
  O2-  O510  1  0.63215647  0.54574695  0.26042031  1
  O2-  O511  1  0.65797257  0.58908335  0.63976182  1
  O2-  O512  1  0.66514826  0.58375570  0.98149452  1
  O2-  O513  1  0.67177493  0.83862197  0.30206360  1
  O2-  O514  1  0.63814920  0.83248906  0.63552255  1
  O2-  O515  1  0.66320145  0.83292033  0.98841110  1
  O2-  O516  1  0.92995479  0.08044741  0.29969126  1
  O2-  O517  1  0.91884368  0.09944966  0.66746049  1
  O2-  O518  1  0.93781162  0.09089342  1.02971050  1
  O2-  O519  1  0.93834619  0.34414627  0.30664649  1
  O2-  O520  1  0.92277029  0.34783550  0.64296133  1
  O2-  O521  1  0.92664484  0.33811853  0.98334625  1
  O2-  O522  1  0.92593176  0.58196089  0.31148878  1
  O2-  O523  1  0.89293693  0.57938198  0.64059395  1
  O2-  O524  1  0.92207531  0.58878980  0.97620622  1
  O2-  O525  1  0.91934556  0.83517855  0.30430976  1
  O2-  O526  1  0.92145978  0.81923412  0.63253257  1
  O2-  O527  1  0.91484466  0.83279295  0.98127079  1
  O2-  O528  1  0.07245314  0.15347948  -0.02712692  1
  O2-  O529  1  0.08319023  0.17449717  0.35384545  1
  O2-  O530  1  0.08988708  0.17012544  0.68234924  1
  O2-  O531  1  0.08627089  0.39815073  0.01449916  1
  O2-  O532  1  0.09263745  0.42545008  0.35863863  1
  O2-  O533  1  0.09075501  0.42733318  0.67846025  1
  O2-  O534  1  0.08629569  0.66261121  0.02137647  1
  O2-  O535  1  0.08857308  0.66550654  0.35585397  1
  O2-  O536  1  0.12239374  0.67673938  0.69048316  1
  O2-  O537  1  0.05741817  0.86575478  0.03826465  1
  O2-  O538  1  0.09210147  0.91198166  0.34646139  1
  O2-  O539  1  0.08042818  0.91072308  0.68759259  1
  O2-  O540  1  0.33108015  0.17936111  0.01090813  1
  O2-  O541  1  0.33770673  0.15679254  0.35541402  1
  O2-  O542  1  0.32147560  0.13209367  0.68190031  1
  O2-  O543  1  0.32511686  0.41102023  0.03591815  1
  O2-  O544  1  0.32838587  0.41470977  0.35268981  1
  O2-  O545  1  0.33258376  0.40621099  0.68273275  1
  O2-  O546  1  0.33228357  0.66538943  0.01938361  1
  O2-  O547  1  0.34548426  0.66815185  0.35312941  1
  O2-  O548  1  0.34304595  0.66371562  0.68812822  1
  O2-  O549  1  0.32163498  0.93202319  0.02886027  1
  O2-  O550  1  0.33987397  0.90767154  0.35523453  1
  O2-  O551  1  0.32378503  0.92219521  0.69983460  1
  O2-  O552  1  0.59162808  0.16580954  0.01529853  1
  O2-  O553  1  0.58127082  0.18845404  0.34979820  1
  O2-  O554  1  0.57924326  0.16194018  0.69919406  1
  O2-  O555  1  0.58486752  0.42050705  0.02564385  1
  O2-  O556  1  0.55601769  0.38855396  0.36067605  1
  O2-  O557  1  0.57142999  0.42251228  0.67901340  1
  O2-  O558  1  0.58237645  0.67093931  0.02676080  1
  O2-  O559  1  0.58655011  0.65527188  0.32430794  1
  O2-  O560  1  0.57883474  0.67493245  0.68163159  1
  O2-  O561  1  0.59484080  0.93687261  0.00859403  1
  O2-  O562  1  0.59024565  0.92272263  0.36124436  1
  O2-  O563  1  0.57572196  0.92660228  0.70157257  1
  O2-  O564  1  0.84582758  0.16862796  0.01723996  1
  O2-  O565  1  0.84918706  0.17579518  0.32840464  1
  O2-  O566  1  0.83442839  0.18730170  0.68931277  1
  O2-  O567  1  0.85196340  0.43056778  0.02352650  1
  O2-  O568  1  0.84671121  0.41099182  0.36050680  1
  O2-  O569  1  0.83948824  0.42631140  0.68340328  1
  O2-  O570  1  0.83476144  0.66669652  0.01641905  1
  O2-  O571  1  0.84496642  0.67750662  0.34465488  1
  O2-  O572  1  0.81703445  0.66657375  0.68075475  1
  O2-  O573  1  0.83655854  0.92161678  0.02367421  1
  O2-  O574  1  0.83650144  0.91806978  0.34984847  1
  O2-  O575  1  0.78663178  0.87748491  0.70044563  1
