# generated using pymatgen
data_H2O
_symmetry_space_group_name_H-M   'P 1'
_cell_length_a   17.99463125
_cell_length_b   17.99531361
_cell_length_c   22.01060814
_cell_angle_alpha   90.00497743
_cell_angle_beta   89.99139385
_cell_angle_gamma   120.01310860
_symmetry_Int_Tables_number   1
_chemical_formula_structural   H2O
_chemical_formula_sum   'H384 O192'
_cell_volume   6171.74051736
_cell_formula_units_Z   192
loop_
 _symmetry_equiv_pos_site_id
 _symmetry_equiv_pos_as_xyz
  1  'x, y, z'
loop_
 _atom_type_symbol
 _atom_type_oxidation_number
  H+  1.0
  O2-  -2.0
loop_
 _atom_site_type_symbol
 _atom_site_label
 _atom_site_symmetry_multiplicity
 _atom_site_fract_x
 _atom_site_fract_y
 _atom_site_fract_z
 _atom_site_occupancy
  H+  H0  1  0.36581978  0.71255992  0.66811620  1
  H+  H1  1  0.48016412  0.12766556  0.31934464  1
  H+  H2  1  0.97456294  0.85882934  0.98951438  1
  H+  H3  1  0.14046071  0.38785375  0.81066875  1
  H+  H4  1  0.04092151  0.14514490  0.67738740  1
  H+  H5  1  0.37551337  0.99458876  0.31743455  1
  H+  H6  1  0.37579682  0.86171957  0.16425423  1
  H+  H7  1  0.52032917  0.38173715  0.99365165  1
  H+  H8  1  0.77592048  0.88839604  0.99898810  1
  H+  H9  1  0.88319022  0.63823679  0.66069159  1
  H+  H10  1  0.33361940  0.78243351  0.93688162  1
  H+  H11  1  0.71698694  0.11388070  0.14987254  1
  H+  H12  1  0.45509807  0.34082900  0.83335238  1
  H+  H13  1  0.65570921  0.53366095  0.83669306  1
  H+  H14  1  0.63681393  0.32808862  0.50283704  1
  H+  H15  1  0.62504979  0.42550047  0.52776038  1
  H+  H16  1  0.02845953  0.88012363  0.34937537  1
  H+  H17  1  0.23961516  0.85457186  0.51421137  1
  H+  H18  1  0.22072992  0.37379171  0.50873817  1
  H+  H19  1  0.13371983  0.51208639  0.50626544  1
  H+  H20  1  0.61164425  0.12926098  0.82469835  1
  H+  H21  1  0.38167138  0.50398463  0.16794216  1
  H+  H22  1  0.11632377  0.88769068  0.67054682  1
  H+  H23  1  0.08900406  0.14270019  0.14285450  1
  H+  H24  1  0.28286028  0.63380618  0.01645348  1
  H+  H25  1  0.11912780  0.36557244  0.33742565  1
  H+  H26  1  0.62114002  0.75781273  0.51160651  1
  H+  H27  1  0.21746519  0.36870094  0.33911606  1
  H+  H28  1  0.13698414  1.00923357  -0.01747661  1
  H+  H29  1  0.26765189  0.14360144  0.67798831  1
  H+  H30  1  0.63469623  0.61007969  0.33516538  1
  H+  H31  1  0.42818660  0.34059638  0.44142660  1
  H+  H32  1  0.60748659  0.67002156  0.72240176  1
  H+  H33  1  0.56340885  0.86979329  0.83516712  1
  H+  H34  1  0.10987533  0.48422081  0.66681197  1
  H+  H35  1  0.84643566  0.88098414  0.50739533  1
  H+  H36  1  0.61882216  0.97282992  0.47539699  1
  H+  H37  1  0.55076456  0.66022057  0.39409568  1
  H+  H38  1  0.74103174  0.62422827  0.83646295  1
  H+  H39  1  0.13607029  0.85267472  0.17303027  1
  H+  H40  1  0.61135451  0.14122766  0.33366471  1
  H+  H41  1  0.62881741  -0.02273876  0.16521125  1
  H+  H42  1  0.78233034  0.56707736  0.46067331  1
  H+  H43  1  0.01988706  0.87410857  0.15646504  1
  H+  H44  1  0.64387295  0.36800454  0.34338241  1
  H+  H45  1  0.87681113  0.33501231  0.66765295  1
  H+  H46  1  0.36279398  0.13984393  0.34063156  1
  H+  H47  1  0.85502378  0.86038249  0.15183005  1
  H+  H48  1  0.86137004  0.47272442  0.33848100  1
  H+  H49  1  0.34787629  0.86700550  1.01097185  1
  H+  H50  1  0.12538130  0.13015082  -0.01512707  1
  H+  H51  1  0.20883207  0.32821738  0.83560020  1
  H+  H52  1  0.71577430  0.11750650  0.31770539  1
  H+  H53  1  0.99505955  0.61527096  0.97906707  1
  H+  H54  1  0.90729791  0.32401724  0.56686641  1
  H+  H55  1  0.14382123  0.77214173  0.65658029  1
  H+  H56  1  0.42099779  0.10077324  0.25846055  1
  H+  H57  1  0.42750334  0.83166313  0.91562110  1
  H+  H58  1  0.11607735  0.38785044  0.15051894  1
  H+  H59  1  0.84913361  0.13447964  0.33854355  1
  H+  H60  1  0.62145510  0.21701323  0.49263982  1
  H+  H61  1  0.36910436  0.63354983  0.48876427  1
  H+  H62  1  0.63720845  0.26843572  0.33876931  1
  H+  H63  1  0.36001146  0.05768941  0.65051262  1
  H+  H64  1  0.86545306  0.39749935  0.15470885  1
  H+  H65  1  0.14585566  0.11570286  0.82882314  1
  H+  H66  1  0.59397779  0.87764515  0.31695830  1
  H+  H67  1  0.62061427  0.02805365  0.83917671  1
  H+  H68  1  0.11986322  0.88411746  0.99236208  1
  H+  H69  1  0.64822251  0.87459702  0.99344397  1
  H+  H70  1  0.12322818  0.63864825  1.00188248  1
  H+  H71  1  0.88854165  0.23640426  1.01182860  1
  H+  H72  1  0.88718307  0.86323141  -0.01057973  1
  H+  H73  1  0.36538967  0.60280801  0.31905430  1
  H+  H74  1  0.48759027  0.61673028  0.50207045  1
  H+  H75  1  0.76336166  0.62922510  0.49930892  1
  H+  H76  1  0.28466261  0.88100519  0.82435619  1
  H+  H77  1  0.58493439  0.65843683  0.06393440  1
  H+  H78  1  0.11403173  0.96769437  0.35966972  1
  H+  H79  1  0.10970871  0.95689232  0.17022581  1
  H+  H80  1  -0.09755558  0.33133540  -0.05227327  1
  H+  H81  1  0.70886159  0.10535572  0.66143307  1
  H+  H82  1  0.13291466  0.22268255  -0.00152907  1
  H+  H83  1  0.63988238  0.78065616  0.99217177  1
  H+  H84  1  0.60204698  0.97053553  0.67754437  1
  H+  H85  1  0.60492912  0.21937405  0.82266412  1
  H+  H86  1  0.75586986  0.34598723  0.66746339  1
  H+  H87  1  0.12029696  0.63563708  0.15586857  1
  H+  H88  1  0.83730306  0.13203499  0.83431787  1
  H+  H89  1  0.14487866  0.11266586  0.51294056  1
  H+  H90  1  0.64798126  0.32001185  0.17805352  1
  H+  H91  1  0.63865204  0.36707513  0.98759293  1
  H+  H92  1  0.37903727  0.85221563  0.30461285  1
  H+  H93  1  0.89203532  0.60373346  0.32597604  1
  H+  H94  1  0.37864257  0.27519723  0.17482296  1
  H+  H95  1  0.12350839  0.27091007  0.33630948  1
  H+  H96  1  1.01008353  0.37973492  0.49730828  1
  H+  H97  1  0.85324206  0.73266015  0.67407625  1
  H+  H98  1  0.32968220  0.66256164  0.39484878  1
  H+  H99  1  0.87888963  0.77360740  0.51142185  1
  H+  H100  1  0.15390055  0.27444898  0.66507252  1
  H+  H101  1  0.89479538  0.61351645  0.50753923  1
  H+  H102  1  0.28632163  0.14175678  0.19825386  1
  H+  H103  1  0.85555538  0.93035113  0.76760699  1
  H+  H104  1  0.51839189  0.39246151  0.14832617  1
  H+  H105  1  0.86618603  -0.02384702  1.00362270  1
  H+  H106  1  0.39226917  0.11099520  -0.01800061  1
  H+  H107  1  0.25307237  0.14503749  0.13420811  1
  H+  H108  1  0.60906217  0.70444824  0.15627680  1
  H+  H109  1  0.36581590  0.87027842  0.50725422  1
  H+  H110  1  0.10617608  0.65137256  0.79793070  1
  H+  H111  1  0.90033104  0.61792286  0.17280410  1
  H+  H112  1  0.36541685  0.48453806  0.49353543  1
  H+  H113  1  0.85715543  0.83055800  0.30308649  1
  H+  H114  1  0.57291583  0.92133263  0.04732756  1
  H+  H115  1  0.38846620  0.65755924  0.82379411  1
  H+  H116  1  0.64210051  0.60371030  0.17879929  1
  H+  H117  1  0.27567949  0.89820499  0.16318980  1
  H+  H118  1  0.37189356  0.47221659  0.66994784  1
  H+  H119  1  0.37138945  0.27249833  0.32770276  1
  H+  H120  1  0.12247702  0.72450939  0.16292323  1
  H+  H121  1  0.86992560  1.02289400  0.51106404  1
  H+  H122  1  0.38705880  0.03149763  0.16732252  1
  H+  H123  1  0.57558358  0.39446654  0.74683649  1
  H+  H124  1  0.39574361  1.02255913  0.51112341  1
  H+  H125  1  0.62918097  0.47970938  0.34994277  1
  H+  H126  1  0.15122129  0.86681410  0.83312168  1
  H+  H127  1  0.16293807  0.48847377  0.80365825  1
  H+  H128  1  0.61501611  0.23150664  1.00698359  1
  H+  H129  1  0.22742237  0.60508433  0.66008405  1
  H+  H130  1  0.73704473  0.12219366  0.83021055  1
  H+  H131  1  0.53612105  0.17332713  0.16782990  1
  H+  H132  1  0.82872470  0.24345392  0.85767865  1
  H+  H133  1  0.63544076  0.65397132  0.81730972  1
  H+  H134  1  0.46672348  0.85335600  0.31441616  1
  H+  H135  1  0.16885013  0.32361099  0.93181026  1
  H+  H136  1  0.10725452  0.63751161  0.40232945  1
  H+  H137  1  0.38407358  0.26732082  0.48978056  1
  H+  H138  1  0.86993924  0.73240319  0.82610919  1
  H+  H139  1  0.71638973  1.10340425  0.50430669  1
  H+  H140  1  -0.02561450  0.61729073  0.83876712  1
  H+  H141  1  0.96748495  0.86350642  0.51266196  1
  H+  H142  1  0.75922577  0.88381800  0.50123912  1
  H+  H143  1  0.81777479  0.16439118  0.39652051  1
  H+  H144  1  0.90621170  0.03631043  0.66061352  1
  H+  H145  1  0.12590354  0.36113759  0.50927340  1
  H+  H146  1  0.13804411  0.02408130  0.66468653  1
  H+  H147  1  0.53272892  0.40091667  0.50411792  1
  H+  H148  1  0.11737205  0.64153240  0.66288486  1
  H+  H149  1  0.85468911  0.46659065  0.49836347  1
  H+  H150  1  0.85662991  0.22892378  0.15562432  1
  H+  H151  1  0.96791660  0.13291879  0.84277821  1
  H+  H152  1  0.65335694  0.08676744  0.92598533  1
  H+  H153  1  0.77918800  0.63886509  0.34210035  1
  H+  H154  1  0.00656685  0.39977870  0.83838800  1
  H+  H155  1  0.22569623  0.11103065  0.34935102  1
  H+  H156  1  0.37549502  0.35606680  0.83683426  1
  H+  H157  1  0.13951054  0.11549783  0.66646159  1
  H+  H158  1  0.63201790  0.52155561  0.98622526  1
  H+  H159  1  0.14368255  0.76244688  0.51188663  1
  H+  H160  1  0.34099039  0.47275943  0.33799656  1
  H+  H161  1  0.25164280  0.63263809  0.81709660  1
  H+  H162  1  0.34739574  0.65633524  0.09469157  1
  H+  H163  1  0.35159047  0.71912740  0.33320268  1
  H+  H164  1  0.10725499  0.14254977  0.34342410  1
  H+  H165  1  0.48167299  0.11155193  0.82751584  1
  H+  H166  1  0.48853388  0.61753018  -0.00808076  1
  H+  H167  1  0.03000160  0.88652787  0.82506453  1
  H+  H168  1  0.23445904  0.86270020  0.65667843  1
  H+  H169  1  0.35438585  0.39047654  0.48817065  1
  H+  H170  1  0.14276340  0.85428102  0.33154977  1
  H+  H171  1  0.92008230  0.92218912  0.36775804  1
  H+  H172  1  0.87934849  0.49253365  0.15770780  1
  H+  H173  1  0.62525776  0.88852242  0.46919370  1
  H+  H174  1  0.68320360  0.83258216  0.31091430  1
  H+  H175  1  0.78064154  0.63322711  0.16505107  1
  H+  H176  1  0.76734516  0.63884275  0.01164888  1
  H+  H177  1  0.83170685  0.66425169  0.10066742  1
  H+  H178  1  0.14126095  0.60412099  0.50681621  1
  H+  H179  1  0.47867686  0.85012485  0.66113730  1
  H+  H180  1  0.21401385  0.61740319  0.34320077  1
  H+  H181  1  0.52711289  0.14289961  1.00844688  1
  H+  H182  1  0.58088510  0.70871191  0.32984918  1
  H+  H183  1  0.84825552  0.13051677  0.49247970  1
  H+  H184  1  0.26972720  0.12088079  0.82278392  1
  H+  H185  1  0.38624954  0.11931755  0.16611695  1
  H+  H186  1  0.69267591  0.62479565  0.67100956  1
  H+  H187  1  0.63416356  0.25124502  0.65188551  1
  H+  H188  1  0.23424644  0.86487224  0.32171050  1
  H+  H189  1  0.28481697  0.39085879  -0.00019927  1
  H+  H190  1  0.89222302  0.75904866  0.16892608  1
  H+  H191  1  0.38689336  0.35756025  0.99096955  1
  H+  H192  1  0.48738023  0.60738916  0.65585779  1
  H+  H193  1  0.96733253  0.12670531  0.32369762  1
  H+  H194  1  0.64601763  0.55630579  0.53225491  1
  H+  H195  1  0.79238394  0.90644224  0.67656215  1
  H+  H196  1  0.03553404  0.09355971  0.81328422  1
  H+  H197  1  0.38128106  0.95736401  0.67500628  1
  H+  H198  1  0.84717007  0.43045383  0.67127624  1
  H+  H199  1  0.89690233  0.56004267  0.67133725  1
  H+  H200  1  0.39846719  0.61610026  0.99070617  1
  H+  H201  1  0.86968227  0.40081387  1.00930430  1
  H+  H202  1  0.63941514  0.84775235  0.16863187  1
  H+  H203  1  0.87886621  0.90163530  0.67352723  1
  H+  H204  1  0.09940290  0.47419462  0.34681054  1
  H+  H205  1  0.55185398  0.44826234  0.79050916  1
  H+  H206  1  0.73470703  0.40602323  0.16793730  1
  H+  H207  1  0.11926005  0.24391150  0.84017125  1
  H+  H208  1  0.75581585  0.87551578  0.37027615  1
  H+  H209  1  0.61323454  0.40452547  0.14839736  1
  H+  H210  1  0.84842831  0.38079989  0.83781739  1
  H+  H211  1  0.22524535  0.36710905  0.16496769  1
  H+  H212  1  0.94949286  0.10941654  0.17879304  1
  H+  H213  1  0.63470790  0.79499918  0.83350508  1
  H+  H214  1  0.89426993  0.25708707  0.66396212  1
  H+  H215  1  0.36374230  0.35670156  0.32577164  1
  H+  H216  1  0.65201407  0.87249950  0.67152503  1
  H+  H217  1  1.03432017  0.65332478  0.66647578  1
  H+  H218  1  0.28240205  0.38152857  0.66646676  1
  H+  H219  1  0.73682942  0.36396313  0.33884425  1
  H+  H220  1  0.42832814  0.55112323  0.83907171  1
  H+  H221  1  0.36775633  0.17603105  0.67076894  1
  H+  H222  1  1.02764844  0.63422996  0.49861730  1
  H+  H223  1  0.77510528  0.26599297  0.90222404  1
  H+  H224  1  0.59701122  0.82493595  0.54761576  1
  H+  H225  1  0.08320765  0.17647828  0.40050730  1
  H+  H226  1  0.51537614  0.13507733  0.67635329  1
  H+  H227  1  -0.02366052  0.36578992  0.16701771  1
  H+  H228  1  0.14994069  0.36013005  0.99305539  1
  H+  H229  1  0.62042584  0.35111166  0.83503212  1
  H+  H230  1  0.36159852  0.22356755  -0.00116537  1
  H+  H231  1  0.52278252  0.61368186  0.15804435  1
  H+  H232  1  0.38654390  0.84304309  0.66216407  1
  H+  H233  1  0.27659131  0.62608588  0.49019393  1
  H+  H234  1  0.37178150  0.72303026  0.00699107  1
  H+  H235  1  0.90776834  0.12522073  0.66490490  1
  H+  H236  1  0.45174464  0.59784032  0.32238543  1
  H+  H237  1  0.42797718  0.08400562  0.92636031  1
  H+  H238  1  0.13299972  0.28412670  0.17393490  1
  H+  H239  1  0.09373015  0.41895361  -0.03994707  1
  H+  H240  1  0.30961063  0.44738278  0.80929576  1
  H+  H241  1  0.25402487  0.85583091  1.00973434  1
  H+  H242  1  0.40709304  0.37446987  0.64801225  1
  H+  H243  1  0.36052837  0.38059306  0.15617856  1
  H+  H244  1  0.87881014  0.94807047  0.42116505  1
  H+  H245  1  0.36485854  0.13194761  0.49785173  1
  H+  H246  1  0.72146781  0.83316217  0.16372356  1
  H+  H247  1  0.85621459  0.72678498  0.01098591  1
  H+  H248  1  0.14235111  0.50655240  0.00602678  1
  H+  H249  1  0.54306189  0.38464555  0.65498445  1
  H+  H250  1  0.38066750  0.76365307  0.50591443  1
  H+  H251  1  0.76253208  0.83807174  0.36293322  1
  H+  H252  1  0.12179005  0.72597232  -0.01159357  1
  H+  H253  1  0.87228383  -0.01931072  0.82978767  1
  H+  H254  1  0.88911191  0.52396706  0.83575836  1
  H+  H255  1  0.88390292  0.76557376  0.32887026  1
  H+  H256  1  0.36662248  0.11863549  0.81855340  1
  H+  H257  1  0.15791515  0.07179186  0.29648542  1
  H+  H258  1  0.88070868  0.27043910  0.32508764  1
  H+  H259  1  0.22842148  0.09840337  0.98370536  1
  H+  H260  1  0.37461201  0.48040676  0.99995270  1
  H+  H261  1  0.89871201  0.86789024  0.83689800  1
  H+  H262  1  0.89830635  0.03493755  0.33951114  1
  H+  H263  1  0.12234537  0.04250925  0.09826602  1
  H+  H264  1  0.36961309  0.60721184  0.15684523  1
  H+  H265  1  -0.01365724  0.10932102  -0.01136740  1
  H+  H266  1  -0.02191688  0.86181655  0.66213837  1
  H+  H267  1  0.61924825  0.10261721  0.66039362  1
  H+  H268  1  0.82428750  0.89367410  0.09490219  1
  H+  H269  1  0.11596312  0.73456505  0.83157646  1
  H+  H270  1  1.01727167  0.38109079  0.86532099  1
  H+  H271  1  0.61587684  0.63737497  0.00180891  1
  H+  H272  1  0.13474729  0.24251600  0.49317140  1
  H+  H273  1  0.27658734  0.61520170  0.15358430  1
  H+  H274  1  0.14138487  0.51357281  0.15779335  1
  H+  H275  1  0.62738666  0.03015567  0.31135758  1
  H+  H276  1  0.17601800  0.08025471  0.88824393  1
  H+  H277  1  0.48464394  0.11282497  0.50281732  1
  H+  H278  1  0.76402314  0.37137129  0.49626078  1
  H+  H279  1  0.39322046  0.74926065  0.81612992  1
  H+  H280  1  0.39257743  1.01946475  0.82869867  1
  H+  H281  1  0.84891594  0.13592717  0.16148755  1
  H+  H282  1  0.55106062  0.65999018  0.81685255  1
  H+  H283  1  -0.00871468  0.61896337  0.17405065  1
  H+  H284  1  0.41222209  0.81827619  0.56835122  1
  H+  H285  1  0.65284948  0.64510073  0.52080297  1
  H+  H286  1  1.01102253  0.38218112  0.33874911  1
  H+  H287  1  0.63402012  0.99545584  0.00060851  1
  H+  H288  1  0.14031156  0.12984198  0.06801258  1
  H+  H289  1  0.81197739  0.14925179  0.74761066  1
  H+  H290  1  0.33157009  0.16094199  0.75821695  1
  H+  H291  1  0.64558677  0.09648501  0.19743990  1
  H+  H292  1  0.08354234  0.41369835  0.08994568  1
  H+  H293  1  0.38755044  0.94215378  0.36852762  1
  H+  H294  1  0.67030730  0.58824525  0.93082932  1
  H+  H295  1  0.84047735  0.43743329  0.06469060  1
  H+  H296  1  0.33754523  0.41450919  0.09418680  1
  H+  H297  1  0.44225197  0.60375892  0.89952458  1
  H+  H298  1  0.14796233  0.10379981  0.22098018  1
  H+  H299  1  0.43233635  0.36026715  0.58288735  1
  H+  H300  1  0.06791217  0.40782132  0.43695251  1
  H+  H301  1  0.58313110  0.91781858  0.37827914  1
  H+  H302  1  0.17256154  0.33158807  0.60546076  1
  H+  H303  1  0.40599762  0.56503610  0.22842869  1
  H+  H304  1  0.34125261  0.66084547  0.72939903  1
  H+  H305  1  0.39835501  0.60915282  0.65895421  1
  H+  H306  1  0.90371640  0.12088493  0.99623805  1
  H+  H307  1  0.40899708  0.33585071  0.23312482  1
  H+  H308  1  0.16853159  0.82952731  0.23486715  1
  H+  H309  1  0.65292399  0.06725341  0.56187496  1
  H+  H310  1  0.88863894  0.07743480  0.23554485  1
  H+  H311  1  0.84716940  0.21891483  0.49212401  1
  H+  H312  1  0.11910637  0.97669212  0.82069827  1
  H+  H313  1  0.40030137  0.81432691  0.21223736  1
  H+  H314  1  0.67209699  0.30809304  0.58785880  1
  H+  H315  1  0.17901846  0.84411788  0.89714917  1
  H+  H316  1  0.91396901  0.83318068  0.60478665  1
  H+  H317  1  0.64547025  0.51960580  0.18223033  1
  H+  H318  1  0.17110960  0.57714063  0.59863926  1
  H+  H319  1  0.59734403  0.20287638  0.11194849  1
  H+  H320  1  0.88288366  0.36028953  0.32602273  1
  H+  H321  1  0.32578442  0.91509693  0.10122748  1
  H+  H322  1  0.31738347  0.42078292  0.40213132  1
  H+  H323  1  0.79181549  0.07455798  0.70101431  1
  H+  H324  1  0.60729201  0.42815862  0.41204236  1
  H+  H325  1  0.92542461  0.59528236  0.57005910  1
  H+  H326  1  0.86552536  0.64035283  0.82504325  1
  H+  H327  1  0.91940248  0.57306024  0.26692014  1
  H+  H328  1  0.83311761  0.41503439  0.40127177  1
  H+  H329  1  0.59273708  0.91505740  0.22032255  1
  H+  H330  1  0.34127694  0.16073436  0.05539752  1
  H+  H331  1  0.07226518  0.90543080  0.45075360  1
  H+  H332  1  0.13274138  0.61094589  0.30853122  1
  H+  H333  1  0.08515014  0.90561443  0.05549623  1
  H+  H334  1  0.84005789  0.66577464  0.39932051  1
  H+  H335  1  0.92023147  0.57934651  0.92078551  1
  H+  H336  1  0.33515201  0.16197328  0.40529355  1
  H+  H337  1  0.33653038  0.90298787  0.73441180  1
  H+  H338  1  0.27290992  0.12816759  0.50203571  1
  H+  H339  1  0.01738281  0.38423888  0.67584025  1
  H+  H340  1  0.17419656  0.82672039  0.57760488  1
  H+  H341  1  0.04437645  0.18350373  0.10722256  1
  H+  H342  1  0.63990817  0.80073782  0.24602279  1
  H+  H343  1  0.63140538  0.69198716  0.44960554  1
  H+  H344  1  0.17679966  0.56912592  0.21837546  1
  H+  H345  1  0.66990913  0.58341082  0.27718153  1
  H+  H346  1  0.57725994  0.41839471  0.05367651  1
  H+  H347  1  0.72956822  0.37194417  0.98932474  1
  H+  H348  1  0.22918111  0.92397411  0.96064220  1
  H+  H349  1  0.09609987  0.16362727  0.74043212  1
  H+  H350  1  0.91222783  0.09126897  0.56380723  1
  H+  H351  1  0.65669628  0.32799123  0.89324310  1
  H+  H352  1  0.62127533  0.36596684  0.66188035  1
  H+  H353  1  0.56358108  0.90911560  0.73626047  1
  H+  H354  1  0.91567388  0.09075373  0.90320849  1
  H+  H355  1  0.38054057  0.88861590  0.81945409  1
  H+  H356  1  0.16906524  0.60276927  0.85815523  1
  H+  H357  1  0.91859858  0.33756887  0.22720847  1
  H+  H358  1  0.87684528  0.35777200  0.50897133  1
  H+  H359  1  0.85093803  0.17021112  0.06641322  1
  H+  H360  1  0.63105770  0.11499118  -0.00985632  1
  H+  H361  1  0.82538166  0.67012379  0.73127326  1
  H+  H362  1  0.16867235  0.08157074  0.57451067  1
  H+  H363  1  0.92132177  0.83217103  0.89692943  1
  H+  H364  1  0.08559707  0.91347624  0.73141985  1
  H+  H365  1  0.57743579  0.15907240  0.73581179  1
  H+  H366  1  0.60648904  0.12087910  0.48843798  1
  H+  H367  1  -0.01734916  0.37797483  -0.00416450  1
  H+  H368  1  0.64671113  0.83904296  0.89822978  1
  H+  H369  1  0.32875628  0.90213255  0.45085502  1
  H+  H370  1  0.40825149  0.32463548  0.92915856  1
  H+  H371  1  0.14748161  0.06138175  0.21875208  1
  H+  H372  1  0.19055696  0.21706937  0.45388524  1
  H+  H373  1  0.32489184  0.40059546  0.75370388  1
  H+  H374  1  0.42047708  0.10025012  0.59366220  1
  H+  H375  1  0.42801819  0.58553515  0.56142356  1
  H+  H376  1  0.83536320  0.40560069  0.77128228  1
  H+  H377  1  0.19013223  0.58946521  0.95661489  1
  H+  H378  1  0.92483309  0.82245923  0.22701567  1
  H+  H379  1  0.58207715  0.16457168  0.39770080  1
  H+  H380  1  0.89461617  0.52256568  0.98916093  1
  H+  H381  1  0.68155879  0.83897328  0.61513488  1
  H+  H382  1  0.10612132  0.42211642  0.72887525  1
  H+  H383  1  0.09965346  0.96909317  0.50701982  1
  O2-  O384  1  0.05844798  0.17527138  0.14862696  1
  O2-  O385  1  0.13246693  0.19243239  0.47004897  1
  O2-  O386  1  0.08835117  0.14856850  0.80903442  1
  O2-  O387  1  0.08411413  0.41763071  0.13456356  1
  O2-  O388  1  0.07114743  0.40939354  0.48213828  1
  O2-  O389  1  0.15333791  0.43563007  0.78210059  1
  O2-  O390  1  0.08710069  0.66440046  0.14818458  1
  O2-  O391  1  0.09079243  0.66375670  0.48604247  1
  O2-  O392  1  0.07501947  0.67266629  0.82165059  1
  O2-  O393  1  0.08196655  0.90960251  0.14147248  1
  O2-  O394  1  0.06308470  0.90812562  0.49485970  1
  O2-  O395  1  0.08918173  0.91543254  0.80691523  1
  O2-  O396  1  0.30745519  0.16330891  0.15749353  1
  O2-  O397  1  0.33227161  0.16040129  0.48377642  1
  O2-  O398  1  0.33180162  0.14805348  0.80528785  1
  O2-  O399  1  0.33117679  0.41166536  0.13953247  1
  O2-  O400  1  0.32603063  0.42397928  0.47830189  1
  O2-  O401  1  0.31358256  0.39669679  0.79979351  1
  O2-  O402  1  0.33870749  0.63947661  0.14009131  1
  O2-  O403  1  0.33558812  0.66028567  0.47311294  1
  O2-  O404  1  0.35789997  0.68526751  0.80561734  1
  O2-  O405  1  0.33354972  0.93486521  0.14483771  1
  O2-  O406  1  0.33442309  0.90613730  0.49493383  1
  O2-  O407  1  0.34290529  0.91244679  0.80460260  1
  O2-  O408  1  0.59503253  0.21523633  0.15555640  1
  O2-  O409  1  0.58132351  0.15675211  0.47422316  1
  O2-  O410  1  0.57691016  0.15916080  0.80619658  1
  O2-  O411  1  0.57596671  0.42694730  0.13008238  1
  O2-  O412  1  0.59490694  0.43963461  0.49706470  1
  O2-  O413  1  0.56324325  0.40079428  0.79205152  1
  O2-  O414  1  0.58279447  0.64272801  0.14294199  1
  O2-  O415  1  0.59447376  0.67905586  0.48500137  1
  O2-  O416  1  0.60876276  0.68512684  0.79816996  1
  O2-  O417  1  0.60593320  0.91514006  0.17753345  1
  O2-  O418  1  0.60116080  0.92110357  0.44976391  1
  O2-  O419  1  0.53200110  0.89811866  0.81600735  1
  O2-  O420  1  0.82560579  0.16946806  0.13956029  1
  O2-  O421  1  0.81628026  0.15954000  0.47567305  1
  O2-  O422  1  0.80595801  0.15858020  0.81566149  1
  O2-  O423  1  0.84261816  0.43391498  0.13891100  1
  O2-  O424  1  0.82745866  0.40909482  0.47971657  1
  O2-  O425  1  0.86382348  0.43000042  0.81028387  1
  O2-  O426  1  0.83916018  0.66363020  0.14697717  1
  O2-  O427  1  0.81187451  0.62666336  0.47440458  1
  O2-  O428  1  0.83617802  0.67160369  0.81008465  1
  O2-  O429  1  0.81507965  0.87983899  0.13902172  1
  O2-  O430  1  0.82054271  0.91412442  0.49012669  1
  O2-  O431  1  0.85630744  0.92410212  0.81244457  1
  O2-  O432  1  0.15192567  0.10452481  0.10537777  1
  O2-  O433  1  0.17034477  0.07875963  0.52859456  1
  O2-  O434  1  0.17878063  0.08343893  0.84296954  1
  O2-  O435  1  0.16665565  0.34661175  0.18138003  1
  O2-  O436  1  0.16098066  0.33520335  0.52314269  1
  O2-  O437  1  0.15115996  0.30621829  0.85396023  1
  O2-  O438  1  0.17957490  0.57446587  0.17432071  1
  O2-  O439  1  0.17041750  0.57277996  0.52092427  1
  O2-  O440  1  0.18747138  0.59367945  0.81866049  1
  O2-  O441  1  0.17175555  0.82971603  0.18908684  1
  O2-  O442  1  0.17652521  0.82324377  0.52840349  1
  O2-  O443  1  0.18088332  0.83721728  0.84989760  1
  O2-  O444  1  0.41724679  0.09274986  0.18388691  1
  O2-  O445  1  0.42401075  0.08481200  0.52020664  1
  O2-  O446  1  0.41843803  0.08067564  0.84140138  1
  O2-  O447  1  0.41156847  0.33604056  0.18737627  1
  O2-  O448  1  0.41577785  0.33203337  0.48491604  1
  O2-  O449  1  0.40332343  0.32729812  0.85695464  1
  O2-  O450  1  0.41332015  0.56592690  0.18327258  1
  O2-  O451  1  0.42604034  0.58534866  0.51591479  1
  O2-  O452  1  0.44678244  0.60895392  0.85348221  1
  O2-  O453  1  0.38487392  0.81248655  0.16937702  1
  O2-  O454  1  0.40566034  0.82238608  0.52351849  1
  O2-  O455  1  0.44201533  0.84794258  0.83894212  1
  O2-  O456  1  0.65445502  0.07646438  0.15836338  1
  O2-  O457  1  0.65439695  0.06806892  0.51673331  1
  O2-  O458  1  0.65505915  0.08913293  0.84871249  1
  O2-  O459  1  0.67630717  0.38334012  0.18473972  1
  O2-  O460  1  0.67557388  0.31008523  0.51895784  1
  O2-  O461  1  0.65016701  0.32082264  0.84843221  1
  O2-  O462  1  0.67400379  0.57842434  0.19959531  1
  O2-  O463  1  0.68732544  0.61792687  0.53566057  1
  O2-  O464  1  0.67859800  0.59276720  0.85056093  1
  O2-  O465  1  0.65894045  0.80500247  0.17816413  1
  O2-  O466  1  0.64615032  0.82311097  0.53079704  1
  O2-  O467  1  0.63168964  0.84134049  0.85486439  1
  O2-  O468  1  0.88863322  0.08088078  0.19070649  1
  O2-  O469  1  0.89871676  0.08533268  0.51988644  1
  O2-  O470  1  0.90973519  0.09373366  0.85756447  1
  O2-  O471  1  0.91629857  0.33837374  0.18215917  1
  O2-  O472  1  0.90762035  0.32648622  0.52194192  1
  O2-  O473  1  0.83261346  0.29101960  0.88489583  1
  O2-  O474  1  0.92946669  0.58746909  0.18921675  1
  O2-  O475  1  0.92833608  0.58853666  0.52522517  1
  O2-  O476  1  0.91280174  0.58385958  0.85315514  1
  O2-  O477  1  0.92566249  0.82209728  0.18216398  1
  O2-  O478  1  0.90460090  0.83165667  0.52760225  1
  O2-  O479  1  0.92543936  0.83301545  0.85137478  1
  O2-  O480  1  0.16160939  0.07922608  0.34072504  1
  O2-  O481  1  0.16956312  0.08443037  0.64937204  1
  O2-  O482  1  0.16940631  0.06987616  0.96609382  1
  O2-  O483  1  0.15325988  0.33533086  0.32517129  1
  O2-  O484  1  0.18507762  0.33452725  0.64932126  1
  O2-  O485  1  0.17865327  0.32881237  0.97700573  1
  O2-  O486  1  0.14888221  0.58776456  0.34287577  1
  O2-  O487  1  0.16705461  0.57821123  0.64411494  1
  O2-  O488  1  0.18282025  0.58432963  1.00050231  1
  O2-  O489  1  0.17346901  0.82924867  0.31028433  1
  O2-  O490  1  0.17475053  0.83454608  0.64006849  1
  O2-  O491  1  0.18301457  0.86442003  0.96447570  1
  O2-  O492  1  0.41953716  0.09871549  0.30448017  1
  O2-  O493  1  0.41523109  0.10620182  0.63895769  1
  O2-  O494  1  0.42770861  0.08530895  0.97123948  1
  O2-  O495  1  0.39685235  0.33067665  0.30998078  1
  O2-  O496  1  0.44297511  0.35563872  0.62552935  1
  O2-  O497  1  0.41160438  0.32252551  0.97522615  1
  O2-  O498  1  0.39211920  0.56816780  0.30534135  1
  O2-  O499  1  0.42719164  0.57907364  0.64095956  1
  O2-  O500  1  0.42877860  0.58725350  0.97312059  1
  O2-  O501  1  0.40550031  0.81578488  0.30133808  1
  O2-  O502  1  0.41818630  0.81573545  0.64497538  1
  O2-  O503  1  0.39147866  0.80818897  0.95349771  1
  O2-  O504  1  0.65602372  0.09228939  0.30183079  1
  O2-  O505  1  0.65006073  0.07238131  0.64472428  1
  O2-  O506  1  0.65852530  0.08487020  0.97123693  1
  O2-  O507  1  0.67165377  0.33326838  0.32730884  1
  O2-  O508  1  0.67133430  0.31040231  0.63538817  1
  O2-  O509  1  0.67015576  0.33743953  0.97367296  1
  O2-  O510  1  0.67152697  0.58624147  0.32290085  1
  O2-  O511  1  0.62954055  0.59045202  0.67676320  1
  O2-  O512  1  0.66399285  0.58428343  0.97579928  1
  O2-  O513  1  0.62650611  0.80204366  0.29187600  1
  O2-  O514  1  0.69151467  0.85219242  0.65882985  1
  O2-  O515  1  0.67177928  0.83891135  0.97444230  1
  O2-  O516  1  0.90591379  0.08616860  0.31614938  1
  O2-  O517  1  0.93718591  0.09786021  0.64541365  1
  O2-  O518  1  0.92545216  0.08321946  0.97679861  1
  O2-  O519  1  0.91476188  0.33175325  0.31074986  1
  O2-  O520  1  0.91848849  0.31727965  0.65151879  1
  O2-  O521  1  0.91916099  0.34606282  0.99115742  1
  O2-  O522  1  0.91356219  0.56591863  0.31210359  1
  O2-  O523  1  0.92023270  0.61217353  0.64720242  1
  O2-  O524  1  0.92960499  0.58182484  0.96769345  1
  O2-  O525  1  0.90796501  0.82579784  0.31116420  1
  O2-  O526  1  0.91628050  0.83446123  0.65020908  1
  O2-  O527  1  0.91408105  0.82925354  0.97459956  1
  O2-  O528  1  0.10267829  0.16068311  0.01058877  1
  O2-  O529  1  0.07898765  0.17595494  0.35504602  1
  O2-  O530  1  0.10057304  0.17079253  0.69324428  1
  O2-  O531  1  0.10013756  0.42664900  0.00402235  1
  O2-  O532  1  0.07157515  0.41168320  0.35649833  1
  O2-  O533  1  0.08053340  0.42318792  0.68480526  1
  O2-  O534  1  0.08587710  0.66436291  -0.00413867  1
  O2-  O535  1  0.08551199  0.67381878  0.41988892  1
  O2-  O536  1  0.09565065  0.67943813  0.67730939  1
  O2-  O537  1  0.08305459  0.90997068  0.01104007  1
  O2-  O538  1  0.08499712  0.90517446  0.36881332  1
  O2-  O539  1  0.08466976  0.91579457  0.68554356  1
  O2-  O540  1  0.33124214  0.16099052  0.01195857  1
  O2-  O541  1  0.32953287  0.16452811  0.36022108  1
  O2-  O542  1  0.32600558  0.18146189  0.69633603  1
  O2-  O543  1  0.34444833  0.42060818  0.01657630  1
  O2-  O544  1  0.30948839  0.41352268  0.35678466  1
  O2-  O545  1  0.34368105  0.41130909  0.68358144  1
  O2-  O546  1  0.34745555  0.66522320  0.02584190  1
  O2-  O547  1  0.31926000  0.65869560  0.34984746  1
  O2-  O548  1  0.33432537  0.65228030  0.68433033  1
  O2-  O549  1  0.30078234  0.86006004  0.03700068  1
  O2-  O550  1  0.35243335  0.93385219  0.33280291  1
  O2-  O551  1  0.33614732  0.90052578  0.68748449  1
  O2-  O552  1  0.58541851  0.17465009  0.02732651  1
  O2-  O553  1  0.58343994  0.17328368  0.35227409  1
  O2-  O554  1  0.57534923  0.15603377  0.68893979  1
  O2-  O555  1  0.58094943  0.41647890  0.00808835  1
  O2-  O556  1  0.60580911  0.42119107  0.36761122  1
  O2-  O557  1  0.59644413  0.40037469  0.67806503  1
  O2-  O558  1  0.58497332  0.66627966  0.01900543  1
  O2-  O559  1  0.55507396  0.65084378  0.35043907  1
  O2-  O560  1  0.60329876  0.65581879  0.67764102  1
  O2-  O561  1  0.62131436  0.93880654  0.02017855  1
  O2-  O562  1  0.57232574  0.91498696  0.33273035  1
  O2-  O563  1  0.57543388  0.90979761  0.69206876  1
  O2-  O564  1  0.87045612  0.17675867  0.02316899  1
  O2-  O565  1  0.82041427  0.16755054  0.35101337  1
  O2-  O566  1  0.81402655  0.13642849  0.70122920  1
  O2-  O567  1  0.84108055  0.43531002  0.01857887  1
  O2-  O568  1  0.82951612  0.41121872  0.35573175  1
  O2-  O569  1  0.81567203  0.37346255  0.68895893  1
  O2-  O570  1  0.82531501  0.66908006  0.03019227  1
  O2-  O571  1  0.84124760  0.66957077  0.35416208  1
  O2-  O572  1  0.82136761  0.67037644  0.68593660  1
  O2-  O573  1  0.83562761  0.91461318  0.01607334  1
  O2-  O574  1  0.91824201  0.97090804  0.38577028  1
  O2-  O575  1  0.85538273  0.93853357  0.68789258  1
