# generated using pymatgen
data_H2O
_symmetry_space_group_name_H-M   'P 1'
_cell_length_a   17.99167825
_cell_length_b   17.99164639
_cell_length_c   22.00253117
_cell_angle_alpha   89.99342750
_cell_angle_beta   90.01648941
_cell_angle_gamma   120.01512702
_symmetry_Int_Tables_number   1
_chemical_formula_structural   H2O
_chemical_formula_sum   'H384 O192'
_cell_volume   6167.08055652
_cell_formula_units_Z   192
loop_
 _symmetry_equiv_pos_site_id
 _symmetry_equiv_pos_as_xyz
  1  'x, y, z'
loop_
 _atom_type_symbol
 _atom_type_oxidation_number
  H+  1.0
  O2-  -2.0
loop_
 _atom_site_type_symbol
 _atom_site_label
 _atom_site_symmetry_multiplicity
 _atom_site_fract_x
 _atom_site_fract_y
 _atom_site_fract_z
 _atom_site_occupancy
  H+  H0  1  0.12281916  0.51259622  0.65672865  1
  H+  H1  1  0.08386048  0.17481123  0.09898662  1
  H+  H2  1  0.26703727  0.63575387  0.00214881  1
  H+  H3  1  0.43380062  0.34831734  0.56796379  1
  H+  H4  1  0.65871380  0.50181463  0.68328096  1
  H+  H5  1  0.88366121  0.63203934  0.99277289  1
  H+  H6  1  0.11096600  0.38673743  0.16337504  1
  H+  H7  1  0.71330299  0.35909105  0.17391659  1
  H+  H8  1  0.13735624  0.25499226  0.48999009  1
  H+  H9  1  0.88286514  0.85338208  0.16728586  1
  H+  H10  1  0.65220467  0.36734806  0.50481967  1
  H+  H11  1  0.56777173  0.66488017  0.09625290  1
  H+  H12  1  0.59223462  0.62967807  0.83227509  1
  H+  H13  1  0.60948955  0.12980180  0.00886982  1
  H+  H14  1  0.37397182  0.59975282  0.49788466  1
  H+  H15  1  0.53176709  0.62568989  0.67352184  1
  H+  H16  1  -0.02904090  0.85386682  0.16186971  1
  H+  H17  1  0.71379499  0.38261493  0.30966125  1
  H+  H18  1  0.47364280  0.11465660  0.84759270  1
  H+  H19  1  0.82351718  0.16437463  0.71644639  1
  H+  H20  1  0.60512210  0.38364237  0.15587562  1
  H+  H21  1  0.98085594  0.63186104  0.99165888  1
  H+  H22  1  0.63593109  0.77872469  0.83414121  1
  H+  H23  1  0.64472248  0.13230259  0.59831124  1
  H+  H24  1  0.89131089  0.34972384  0.55776928  1
  H+  H25  1  0.86295657  0.88928386  0.00481177  1
  H+  H26  1  0.86154648  0.72349440  0.15545017  1
  H+  H27  1  0.35722377  0.48251782  0.67538278  1
  H+  H28  1  0.86349744  0.12930257  0.81448920  1
  H+  H29  1  0.10776625  0.15500545  0.49013618  1
  H+  H30  1  0.61598038  -0.01626840  0.16136687  1
  H+  H31  1  0.38697055  0.84978588  0.17113893  1
  H+  H32  1  0.34876126  0.63758119  0.66885623  1
  H+  H33  1  0.78204092  0.62482289  0.48948081  1
  H+  H34  1  0.10267962  0.38240381  0.67049472  1
  H+  H35  1  0.13967684  0.11767828  0.84148148  1
  H+  H36  1  0.60058778  0.47024165  0.15928214  1
  H+  H37  1  0.28319511  0.37000046  0.47655706  1
  H+  H38  1  0.11891404  0.89079243  0.83063311  1
  H+  H39  1  0.11840550  0.88178869  0.48549579  1
  H+  H40  1  0.47525724  0.09309681  0.66827593  1
  H+  H41  1  0.22223499  0.36165362  0.32215529  1
  H+  H42  1  0.82437156  0.76418330  0.54670763  1
  H+  H43  1  0.38771511  0.86682915  0.99442241  1
  H+  H44  1  0.88257904  0.53881359  0.83836658  1
  H+  H45  1  0.47142004  0.33360420  0.15453350  1
  H+  H46  1  0.16005128  0.33568887  0.60642546  1
  H+  H47  1  0.61475944  0.34578255  0.82844493  1
  H+  H48  1  0.13257869  0.77395203  0.17037984  1
  H+  H49  1  0.53869938  0.40680895  0.35975043  1
  H+  H50  1  0.73183190  0.86674852  0.16486905  1
  H+  H51  1  0.84964814  0.23862809  0.17441078  1
  H+  H52  1  0.13962785  0.61889007  0.31014361  1
  H+  H53  1  0.25685036  0.14821267  0.49951216  1
  H+  H54  1  -0.02411147  0.37230558  0.17771314  1
  H+  H55  1  0.38466858  0.77637291  0.98988227  1
  H+  H56  1  0.40795202  0.77228394  0.16498773  1
  H+  H57  1  0.52395028  0.89552927  0.82931927  1
  H+  H58  1  0.19241262  0.08984497  0.32658697  1
  H+  H59  1  0.65339967  0.61768397  0.65954709  1
  H+  H60  1  0.61322203  0.13834811  0.83264212  1
  H+  H61  1  0.85277221  0.38606880  0.16678872  1
  H+  H62  1  1.08719576  0.18584997  0.39226383  1
  H+  H63  1  0.83426039  0.66732468  0.06639425  1
  H+  H64  1  0.52480212  0.63181349  0.32068555  1
  H+  H65  1  0.10301903  0.14321182  0.33341584  1
  H+  H66  1  0.61917371  -0.02202140  0.33451699  1
  H+  H67  1  0.78335549  0.87813589  0.67201194  1
  H+  H68  1  0.88646964  0.26151380  1.01555103  1
  H+  H69  1  0.03894621  0.67027886  0.54334426  1
  H+  H70  1  0.90208491  0.67230831  0.82008169  1
  H+  H71  1  0.38356439  0.37281233  -0.01579564  1
  H+  H72  1  0.90302427  0.09734589  0.49958846  1
  H+  H73  1  0.96780773  0.36485762  0.64862781  1
  H+  H74  1  0.36504882  0.98094566  0.01380655  1
  H+  H75  1  0.38285848  0.62193671  0.83676127  1
  H+  H76  1  0.61905403  0.26838624  0.65997253  1
  H+  H77  1  0.13674010  0.37231311  0.99423530  1
  H+  H78  1  0.38239641  0.09716266  0.16911918  1
  H+  H79  1  0.12801135  0.85036451  0.66194028  1
  H+  H80  1  0.47599883  0.10807006  0.16810307  1
  H+  H81  1  0.09488102  0.92273484  0.73132466  1
  H+  H82  1  0.11180185  0.22963417  0.83279003  1
  H+  H83  1  0.63072726  0.54388478  1.00392649  1
  H+  H84  1  0.52198922  0.62251496  0.49473017  1
  H+  H85  1  0.63676777  0.63577947  0.99874180  1
  H+  H86  1  0.98483551  0.36679377  0.33407961  1
  H+  H87  1  0.60870259  0.14420704  0.33843686  1
  H+  H88  1  0.86402714  0.21921693  0.48578863  1
  H+  H89  1  0.72307126  0.60670502  0.16544095  1
  H+  H90  1  0.10936307  0.62903873  0.68382609  1
  H+  H91  1  0.73801068  0.36092195  0.51435198  1
  H+  H92  1  0.27127164  0.64132978  0.82730067  1
  H+  H93  1  0.72384853  0.11469700  0.32674544  1
  H+  H94  1  0.99700878  0.87970041  0.65950589  1
  H+  H95  1  0.85583538  0.41597035  0.82429419  1
  H+  H96  1  0.36424782  0.72437077  0.49202866  1
  H+  H97  1  0.75360951  0.35982000  0.67849298  1
  H+  H98  1  0.85061680  0.32800971  0.88427791  1
  H+  H99  1  0.87450613  0.37613111  0.35354898  1
  H+  H100  1  0.42634150  0.13197723  0.51002767  1
  H+  H101  1  0.56213568  0.84020104  0.70176561  1
  H+  H102  1  0.14699717  0.38923666  0.50915026  1
  H+  H103  1  0.14969695  0.87114794  0.99474684  1
  H+  H104  1  0.13736048  0.61420084  0.84553059  1
  H+  H105  1  0.09044608  0.92172965  -0.05898117  1
  H+  H106  1  0.76571311  0.14530121  0.65665020  1
  H+  H107  1  -0.02936166  0.60843952  0.17109650  1
  H+  H108  1  0.91294181  0.79885116  0.83502164  1
  H+  H109  1  0.75888950  0.63041770  0.86969756  1
  H+  H110  1  0.86763951  0.89387247  0.82797382  1
  H+  H111  1  0.47427437  0.11317871  1.00062345  1
  H+  H112  1  0.37023910  0.15281211  1.01296076  1
  H+  H113  1  0.64709072  0.75564430  0.65917371  1
  H+  H114  1  0.60157387  0.22491924  0.15926715  1
  H+  H115  1  0.42196012  0.59627850  0.89369769  1
  H+  H116  1  0.97767516  0.61819795  0.67324886  1
  H+  H117  1  0.38339854  0.27753299  0.65476966  1
  H+  H118  1  0.11563246  0.72721077  0.83703082  1
  H+  H119  1  0.23910208  0.41838076  0.53675395  1
  H+  H120  1  0.76894894  0.13699272  0.01874189  1
  H+  H121  1  0.37753189  0.78230972  0.65473087  1
  H+  H122  1  0.81731629  0.42311392  0.76272931  1
  H+  H123  1  0.86955100  0.21964638  0.80898739  1
  H+  H124  1  0.22005481  0.36978200  0.83652062  1
  H+  H125  1  0.36717098  0.00257756  0.67115336  1
  H+  H126  1  0.85086536  0.95980312  0.49237770  1
  H+  H127  1  0.88163377  0.59984719  0.32305122  1
  H+  H128  1  0.06403729  1.00767336  0.50727851  1
  H+  H129  1  0.02436832  0.13816335  0.82899603  1
  H+  H130  1  0.11300586  0.88480668  0.14973227  1
  H+  H131  1  0.64308648  0.87133113  0.16803446  1
  H+  H132  1  0.25583243  0.89748669  0.68348700  1
  H+  H133  1  0.85994484  0.63276560  0.15610300  1
  H+  H134  1  -0.00960592  0.86648309  0.49056190  1
  H+  H135  1  0.35738382  0.48301227  0.82610310  1
  H+  H136  1  0.54408359  0.13324926  0.53096112  1
  H+  H137  1  0.75749252  0.87187754  0.48670707  1
  H+  H138  1  0.62424787  0.37762766  0.33274982  1
  H+  H139  1  0.65501482  0.41124590  0.68096466  1
  H+  H140  1  0.11527952  0.47847450  0.16299051  1
  H+  H141  1  0.39255014  0.62381277  -0.01127987  1
  H+  H142  1  0.10633099  0.13730485  0.15831609  1
  H+  H143  1  0.85033885  0.47267841  0.16132568  1
  H+  H144  1  0.98171780  0.61786248  0.84532808  1
  H+  H145  1  0.11821301  0.76294356  0.52327094  1
  H+  H146  1  0.14490307  0.12842069  0.99131631  1
  H+  H147  1  0.39413067  0.86141771  0.31988542  1
  H+  H148  1  0.64254057  0.87216878  0.99003614  1
  H+  H149  1  0.89551668  0.91296181  0.34738369  1
  H+  H150  1  0.86183164  0.13849357  0.33049022  1
  H+  H151  1  0.39109812  0.29333311  0.23882880  1
  H+  H152  1  0.83272607  -0.08605213  0.39689628  1
  H+  H153  1  0.71381856  0.37193634  0.83324271  1
  H+  H154  1  0.46040262  0.98139427  0.44105752  1
  H+  H155  1  0.85428323  0.84592442  0.50463263  1
  H+  H156  1  0.13734445  0.52536136  0.83989987  1
  H+  H157  1  0.65187770  0.09652331  0.50479995  1
  H+  H158  1  0.34161645  0.40566613  0.41821712  1
  H+  H159  1  0.13191161  0.52502250  0.99844694  1
  H+  H160  1  0.55256192  0.40090873  0.49584323  1
  H+  H161  1  0.01339753  0.05278551  0.53128886  1
  H+  H162  1  0.28281032  0.15468986  1.00712300  1
  H+  H163  1  0.38545361  0.51011742  0.16808606  1
  H+  H164  1  0.74872400  0.63169641  0.65784053  1
  H+  H165  1  0.87193276  0.10600895  0.64811852  1
  H+  H166  1  0.84735993  0.36951713  0.67771417  1
  H+  H167  1  0.48066492  0.85188067  0.50206456  1
  H+  H168  1  0.02163189  0.39356933  0.82612804  1
  H+  H169  1  0.77871348  0.62566158  0.33158910  1
  H+  H170  1  0.36247873  -0.01879102  0.83583001  1
  H+  H171  1  0.76379095  0.67295630  0.87833420  1
  H+  H172  1  0.09053908  0.01794197  0.33073678  1
  H+  H173  1  0.97366185  0.12094884  0.32391312  1
  H+  H174  1  0.35775519  0.22651590  0.82458189  1
  H+  H175  1  0.80528005  0.03843570  0.95304675  1
  H+  H176  1  0.60085622  0.13622431  0.68622432  1
  H+  H177  1  0.77373001  0.64654648  0.00680367  1
  H+  H178  1  0.02608640  0.38677118  0.01822037  1
  H+  H179  1  0.58224980  1.00604756  0.67341862  1
  H+  H180  1  0.65681388  0.88481262  0.31570933  1
  H+  H181  1  0.88019446  0.27539975  0.64577107  1
  H+  H182  1  0.11137121  0.72999895  0.30968367  1
  H+  H183  1  0.45036841  0.88172101  0.65891350  1
  H+  H184  1  0.02480492  0.63648501  0.30842477  1
  H+  H185  1  0.83750472  0.16708339  0.39220173  1
  H+  H186  1  0.88912460  0.51347436  0.32690941  1
  H+  H187  1  0.11375612  0.71988262  0.68935453  1
  H+  H188  1  0.26092545  0.38391586  0.15302135  1
  H+  H189  1  0.14094395  0.65298260  0.52221223  1
  H+  H190  1  0.87939932  0.89598567  0.67472909  1
  H+  H191  1  0.11292761  0.72985645  0.00611573  1
  H+  H192  1  0.22861968  0.61696256  0.32257357  1
  H+  H193  1  0.37913084  0.51189966  0.49446900  1
  H+  H194  1  0.38543268  0.11603320  0.84405577  1
  H+  H195  1  0.22762075  0.61639630  0.17038345  1
  H+  H196  1  0.13069495  0.27332673  0.17149530  1
  H+  H197  1  0.35446642  0.39179052  0.82466149  1
  H+  H198  1  0.82292760  0.17253164  0.11977317  1
  H+  H199  1  0.36583761  0.48639082  1.00070216  1
  H+  H200  1  0.65618017  0.52799890  0.50516771  1
  H+  H201  1  0.60917317  0.21881282  1.00453575  1
  H+  H202  1  0.61034451  0.86847619  0.48509188  1
  H+  H203  1  0.12901336  0.27779268  0.32236158  1
  H+  H204  1  0.75263620  0.88373786  0.31363259  1
  H+  H205  1  0.63225269  0.22212820  0.52430617  1
  H+  H206  1  0.62747157  0.75358189  0.50175543  1
  H+  H207  1  0.13309460  0.60294203  0.46276757  1
  H+  H208  1  0.83663880  0.91725811  0.76572352  1
  H+  H209  1  0.71707346  0.12056450  0.18131768  1
  H+  H210  1  0.27932391  0.13823483  0.66310742  1
  H+  H211  1  0.89537153  0.60422385  0.50988402  1
  H+  H212  1  0.46370887  0.67203137  0.62618716  1
  H+  H213  1  0.12439412  0.97994638  0.66982349  1
  H+  H214  1  0.87766123  1.02049229  0.65811627  1
  H+  H215  1  0.24226711  0.12739915  0.46891474  1
  H+  H216  1  0.35358850  0.37079650  0.32081449  1
  H+  H217  1  0.72592864  0.86698497  0.83304027  1
  H+  H218  1  0.85143099  0.37051210  0.01707679  1
  H+  H219  1  0.85305204  0.13088001  0.02110675  1
  H+  H220  1  0.14213827  0.02895968  0.84093504  1
  H+  H221  1  1.02953780  0.15079375  0.99998331  1
  H+  H222  1  0.77147087  0.88720713  0.00291455  1
  H+  H223  1  0.37508614  0.59824759  0.32514271  1
  H+  H224  1  0.16279791  0.33538599  0.23065311  1
  H+  H225  1  0.88059539  0.74545088  0.66886018  1
  H+  H226  1  0.12530313  -0.00339004  0.98788294  1
  H+  H227  1  0.58103337  0.40142263  0.75263331  1
  H+  H228  1  0.61436300  0.62818546  0.49591664  1
  H+  H229  1  0.60583359  0.23132924  0.33546987  1
  H+  H230  1  0.89486817  0.27509654  0.32886754  1
  H+  H231  1  0.87044314  0.71050013  0.48347365  1
  H+  H232  1  0.32953310  0.19671843  0.32497246  1
  H+  H233  1  0.90512742  0.07865618  0.88970525  1
  H+  H234  1  0.78125905  0.35871340  0.36973324  1
  H+  H235  1  0.97776622  0.86968073  0.99263173  1
  H+  H236  1  0.52198591  0.41403232  0.00193956  1
  H+  H237  1  0.21926378  0.36932523  0.66504626  1
  H+  H238  1  0.11696457  0.48371590  0.33950118  1
  H+  H239  1  0.11814341  0.02056312  0.16721827  1
  H+  H240  1  0.41188001  0.03484943  0.50548722  1
  H+  H241  1  0.86034955  1.00754280  -0.01197877  1
  H+  H242  1  0.64479113  0.51990480  0.32924454  1
  H+  H243  1  0.10457276  0.63647089  0.00265830  1
  H+  H244  1  0.88980990  0.77817640  0.99685586  1
  H+  H245  1  0.44919655  0.32010000  0.29600777  1
  H+  H246  1  0.41794857  0.83334118  0.56100075  1
  H+  H247  1  0.38648131  0.77988823  0.83763615  1
  H+  H248  1  0.27145085  0.87659873  0.16187038  1
  H+  H249  1  0.36327570  0.96243699  0.16430257  1
  H+  H250  1  0.36685683  0.97618079  0.32787150  1
  H+  H251  1  0.63633913  0.60977271  0.16785680  1
  H+  H252  1  0.71600399  0.34633485  0.99256409  1
  H+  H253  1  0.92238692  0.58991881  0.61222510  1
  H+  H254  1  0.81546119  0.40422667  0.06814494  1
  H+  H255  1  0.22520309  0.87546058  0.32236230  1
  H+  H256  1  0.41137355  0.37275805  0.50243368  1
  H+  H257  1  0.14658778  0.11210453  0.66356525  1
  H+  H258  1  0.47393391  0.11572075  0.32562283  1
  H+  H259  1  0.97233911  0.10418117  0.16748845  1
  H+  H260  1  0.25882132  0.63345489  0.66948867  1
  H+  H261  1  0.88565337  0.02103531  0.83037184  1
  H+  H262  1  0.45703689  0.35546965  0.82650289  1
  H+  H263  1  0.22897191  0.86536281  0.84428793  1
  H+  H264  1  0.07867652  0.66544608  0.09976810  1
  H+  H265  1  0.03324190  0.89861580  0.82933493  1
  H+  H266  1  0.53025097  0.89182380  0.16076916  1
  H+  H267  1  0.11646692  0.24089530  0.99999705  1
  H+  H268  1  0.52871750  0.80661212  0.68098800  1
  H+  H269  1  0.63908525  0.02201699  0.99436875  1
  H+  H270  1  0.47750436  0.59660039  0.17482876  1
  H+  H271  1  0.86354521  0.97045882  0.16010987  1
  H+  H272  1  0.62039716  0.57150958  0.91424315  1
  H+  H273  1  0.41705883  0.08089958  0.26496556  1
  H+  H274  1  0.11138034  0.63859026  0.15895128  1
  H+  H275  1  0.61083998  0.72700368  0.15346672  1
  H+  H276  1  0.33683929  0.91526938  0.07101542  1
  H+  H277  1  0.61205285  0.22744398  0.83122615  1
  H+  H278  1  -0.08961730  0.52442912  0.52058564  1
  H+  H279  1  0.36401999  0.89258644  0.82873934  1
  H+  H280  1  0.41004795  0.34079479  0.89167962  1
  H+  H281  1  0.50575072  0.30474060  0.76032478  1
  H+  H282  1  0.72850032  0.11567324  0.83719574  1
  H+  H283  1  0.60495897  0.51346486  0.85649526  1
  H+  H284  1  0.43522563  0.26050801  0.49071500  1
  H+  H285  1  0.39679690  0.63623649  0.14806271  1
  H+  H286  1  0.36733142  0.72414717  0.33710107  1
  H+  H287  1  0.35846065  0.46286143  0.32937819  1
  H+  H288  1  0.17785148  0.10068808  0.93213348  1
  H+  H289  1  0.22610457  0.37368262  0.98752476  1
  H+  H290  1  0.41600691  0.58754229  0.58844617  1
  H+  H291  1  -0.02339854  0.83608511  0.30156467  1
  H+  H292  1  0.40263088  0.90172595  0.48191219  1
  H+  H293  1  0.10811817  0.17252657  0.74106189  1
  H+  H294  1  0.32572191  0.42272591  0.05721053  1
  H+  H295  1  0.87784719  0.65342747  0.67201726  1
  H+  H296  1  0.34000002  0.11607526  0.33310880  1
  H+  H297  1  0.67437079  0.08625715  0.93671042  1
  H+  H298  1  0.62355665  0.11070424  0.17723869  1
  H+  H299  1  0.83099563  0.91320141  0.09911894  1
  H+  H300  1  0.26995343  0.64362803  0.48940977  1
  H+  H301  1  0.64723232  0.33154840  0.23022475  1
  H+  H302  1  0.91755277  0.59976029  0.92750209  1
  H+  H303  1  0.23598199  0.86621153  1.00131987  1
  H+  H304  1  0.45246344  0.70455994  0.09956292  1
  H+  H305  1  0.10802792  0.48221174  0.49719508  1
  H+  H306  1  0.09176203  0.42742890  0.43681444  1
  H+  H307  1  0.13769128  0.07003003  0.59921835  1
  H+  H308  1  0.67173920  0.84502683  0.92925361  1
  H+  H309  1  0.42158061  0.06367418  0.60145849  1
  H+  H310  1  0.51746170  0.64678143  0.81998329  1
  H+  H311  1  0.08529382  0.66393085  0.77890020  1
  H+  H312  1  0.11811116  0.39529065  0.34118049  1
  H+  H313  1  0.42349101  0.82608820  0.26400643  1
  H+  H314  1  0.68529819  0.85211649  0.24784734  1
  H+  H315  1  0.16157620  0.58086385  0.93663864  1
  H+  H316  1  0.08546938  0.91450594  0.08992837  1
  H+  H317  1  0.27382199  0.13581222  0.82551309  1
  H+  H318  1  0.09128355  0.42374594  0.07302788  1
  H+  H319  1  0.65012435  0.84423390  0.65766270  1
  H+  H320  1  0.16166339  0.34218143  0.89660603  1
  H+  H321  1  0.68569124  0.59014800  0.56394295  1
  H+  H322  1  0.57026353  0.16447886  0.74415717  1
  H+  H323  1  0.83874774  0.65000866  0.38998299  1
  H+  H324  1  0.60944324  0.42763878  0.43376606  1
  H+  H325  1  0.13138115  0.22935068  0.68076290  1
  H+  H326  1  0.93161533  0.85100735  0.60140218  1
  H+  H327  1  0.35205169  0.24118839  0.09028624  1
  H+  H328  1  0.90396859  0.06170587  0.56613564  1
  H+  H329  1  0.61493511  0.63988157  0.31781178  1
  H+  H330  1  0.87733705  0.70374776  0.75828275  1
  H+  H331  1  0.67374490  0.06841158  0.58847358  1
  H+  H332  1  0.03994817  0.63379074  0.42024599  1
  H+  H333  1  0.07077007  0.41490002  0.72696890  1
  H+  H334  1  0.32657532  0.42424069  0.73461147  1
  H+  H335  1  0.02884446  0.91567982  0.42664686  1
  H+  H336  1  0.66964590  0.57259796  0.26568833  1
  H+  H337  1  0.14188496  0.78998647  0.61399641  1
  H+  H338  1  0.57437194  0.43300089  0.06422715  1
  H+  H339  1  0.41616623  0.83770329  0.89805911  1
  H+  H340  1  0.65905884  0.08283518  0.27017805  1
  H+  H341  1  0.58551941  0.65939532  0.73602416  1
  H+  H342  1  0.92461361  0.31881890  0.95608948  1
  H+  H343  1  0.32560262  0.67071028  0.76534826  1
  H+  H344  1  0.16397430  0.84055843  0.22626963  1
  H+  H345  1  0.33915863  0.66629988  0.05521340  1
  H+  H346  1  0.39211509  0.28867306  0.98595452  1
  H+  H347  1  0.92280451  0.41883183  0.90370145  1
  H+  H348  1  0.92141763  0.84582919  0.89995183  1
  H+  H349  1  0.57700297  0.16419468  0.09969381  1
  H+  H350  1  0.55788004  0.95568859  0.73630934  1
  H+  H351  1  0.65583268  0.32029008  0.93361923  1
  H+  H352  1  0.85477283  0.40504471  0.45166799  1
  H+  H353  1  0.37989413  0.36410827  0.65611410  1
  H+  H354  1  0.17251892  0.58741434  0.23166188  1
  H+  H355  1  0.33187301  0.16761205  0.72445100  1
  H+  H356  1  0.20057962  0.90518077  0.52466830  1
  H+  H357  1  0.78570589  0.12443291  0.48436901  1
  H+  H358  1  0.61245752  0.89546984  0.82227529  1
  H+  H359  1  0.66349849  0.81723086  0.55946031  1
  H+  H360  1  0.91449072  0.07453341  0.22687174  1
  H+  H361  1  0.33263343  0.66495625  0.39643360  1
  H+  H362  1  0.14802835  0.57605407  0.59984660  1
  H+  H363  1  0.63869450  0.02830358  0.84141565  1
  H+  H364  1  0.53458984  0.88379269  0.32948488  1
  H+  H365  1  0.31343308  0.93484528  0.74507180  1
  H+  H366  1  0.39848867  0.19640504  0.43445564  1
  H+  H367  1  0.58527979  0.90115872  0.42414793  1
  H+  H368  1  0.64470496  0.00447472  0.49158699  1
  H+  H369  1  0.66029288  0.32697432  0.59960592  1
  H+  H370  1  0.90949508  0.57468798  0.22952478  1
  H+  H371  1  0.41178763  0.08601386  0.94323834  1
  H+  H372  1  0.52282685  0.88864859  0.00609741  1
  H+  H373  1  0.58382267  0.91998047  0.06552873  1
  H+  H374  1  0.40459716  0.56821842  0.26574165  1
  H+  H375  1  0.10732093  0.38762587  0.82421338  1
  H+  H376  1  0.17231458  0.83446422  0.90463137  1
  H+  H377  1  0.88859277  0.02907218  0.32622259  1
  H+  H378  1  0.03351736  0.67197938  0.42133928  1
  H+  H379  1  0.13079936  0.86803762  0.32094369  1
  H+  H380  1  0.33615734  0.36585261  0.13598730  1
  H+  H381  1  0.13670393  0.07209883  0.22915321  1
  H+  H382  1  0.34531680  0.91820869  0.38579767  1
  H+  H383  1  0.92217190  0.34722326  0.23979365  1
  O2-  O384  1  0.08035629  0.17329066  0.14379016  1
  O2-  O385  1  0.11736172  0.20432036  0.46420219  1
  O2-  O386  1  0.08704144  0.16864016  0.81980515  1
  O2-  O387  1  0.08169299  0.41838569  0.14786183  1
  O2-  O388  1  0.09186086  0.42480116  0.48231677  1
  O2-  O389  1  0.07905931  0.42032789  0.80823289  1
  O2-  O390  1  0.07941569  0.66733972  0.14490531  1
  O2-  O391  1  0.10169369  0.71029787  0.54877047  1
  O2-  O392  1  0.08450303  0.66512837  0.82488270  1
  O2-  O393  1  0.07964994  0.91187693  0.13395337  1
  O2-  O394  1  0.04364651  0.91068495  0.47187414  1
  O2-  O395  1  0.09431490  0.92606699  0.81499437  1
  O2-  O396  1  0.35082907  0.27598891  0.12567458  1
  O2-  O397  1  0.43550582  0.21103793  0.47018748  1
  O2-  O398  1  0.33451408  0.16598578  0.81078333  1
  O2-  O399  1  0.32010245  0.41112201  0.13450763  1
  O2-  O400  1  0.34275390  0.40890404  0.46417674  1
  O2-  O401  1  0.32416910  0.42299916  0.81027638  1
  O2-  O402  1  0.39924215  0.68464457  0.12271172  1
  O2-  O403  1  0.33000196  0.66345453  0.47696162  1
  O2-  O404  1  0.33095932  0.67325122  0.81062294  1
  O2-  O405  1  0.33290644  0.90228997  0.14858628  1
  O2-  O406  1  0.40302025  0.95062910  0.45872835  1
  O2-  O407  1  0.33065214  0.92179413  0.81818838  1
  O2-  O408  1  0.57269357  0.16354399  0.14535364  1
  O2-  O409  1  0.60782300  0.15973261  0.53299125  1
  O2-  O410  1  0.57952507  0.16540655  0.81824437  1
  O2-  O411  1  0.57051078  0.41050865  0.14239911  1
  O2-  O412  1  0.61289816  0.42797631  0.48090722  1
  O2-  O413  1  0.53889917  0.35697816  0.78411572  1
  O2-  O414  1  0.57943621  0.66599491  0.14004300  1
  O2-  O415  1  0.58278326  0.65794366  0.48326059  1
  O2-  O416  1  0.57912826  0.66994753  0.80869932  1
  O2-  O417  1  0.59015892  0.92352735  0.14465915  1
  O2-  O418  1  0.58213657  0.90091035  0.46946810  1
  O2-  O419  1  0.58365536  0.92937575  0.81295063  1
  O2-  O420  1  0.81365138  0.17710060  0.16343160  1
  O2-  O421  1  0.84644956  0.16172325  0.47018045  1
  O2-  O422  1  0.83223850  0.15936378  0.79893253  1
  O2-  O423  1  0.81776284  0.41044213  0.15007933  1
  O2-  O424  1  0.85375648  0.40668178  0.49761730  1
  O2-  O425  1  0.82246729  0.44092049  0.80799596  1
  O2-  O426  1  0.83018461  0.66238895  0.13867532  1
  O2-  O427  1  0.84267776  0.64901066  0.47355708  1
  O2-  O428  1  0.90589343  0.72231383  0.79887171  1
  O2-  O429  1  0.82830335  0.90852903  0.14430969  1
  O2-  O430  1  0.81918406  0.90054364  0.47309245  1
  O2-  O431  1  0.83406874  0.92039217  0.81129428  1
  O2-  O432  1  0.14316727  0.07888950  0.18432564  1
  O2-  O433  1  0.07110334  0.05843691  0.53054877  1
  O2-  O434  1  0.17205260  0.08934855  0.85683225  1
  O2-  O435  1  0.16242439  0.33528062  0.18499878  1
  O2-  O436  1  0.18459299  0.36666085  0.52807678  1
  O2-  O437  1  0.15893919  0.33920679  0.85108194  1
  O2-  O438  1  0.16873549  0.58697244  0.18527913  1
  O2-  O439  1  0.15788596  0.61155775  0.50344257  1
  O2-  O440  1  0.16864046  0.58355974  0.85863570  1
  O2-  O441  1  0.16536111  0.83641798  0.18083295  1
  O2-  O442  1  0.16014484  0.86227084  0.49650941  1
  O2-  O443  1  0.16795208  0.83381748  0.85943827  1
  O2-  O444  1  0.41501750  0.07126519  0.18455988  1
  O2-  O445  1  0.43254348  0.08584876  0.53240687  1
  O2-  O446  1  0.41314987  0.08479168  0.86253873  1
  O2-  O447  1  0.41653396  0.27894425  0.16659726  1
  O2-  O448  1  0.44671942  0.35217704  0.52267082  1
  O2-  O449  1  0.40026930  0.33493218  0.84644837  1
  O2-  O450  1  0.41574801  0.56903463  0.18624029  1
  O2-  O451  1  0.40241677  0.56872299  0.51500616  1
  O2-  O452  1  0.41432478  0.59129705  0.84900180  1
  O2-  O453  1  0.42464192  0.82737762  0.18609553  1
  O2-  O454  1  0.41962786  0.82823318  0.51494118  1
  O2-  O455  1  0.41715844  0.84043066  0.85257765  1
  O2-  O456  1  0.65414636  0.08145479  0.19333745  1
  O2-  O457  1  0.68273429  0.06369636  0.50815503  1
  O2-  O458  1  0.67133109  0.08933334  0.85695385  1
  O2-  O459  1  0.65068322  0.32881534  0.18476249  1
  O2-  O460  1  0.67603653  0.33225800  0.52371011  1
  O2-  O461  1  0.65531740  0.33107177  0.84889996  1
  O2-  O462  1  0.66292379  0.57590716  0.18129315  1
  O2-  O463  1  0.68498047  0.59026835  0.51832881  1
  O2-  O464  1  0.58771804  0.55133483  0.87534938  1
  O2-  O465  1  0.67110566  0.83841152  0.18305414  1
  O2-  O466  1  0.65829984  0.81717957  0.51461067  1
  O2-  O467  1  0.66514183  0.84002968  0.84728023  1
  O2-  O468  1  0.91320166  0.06517415  0.18242202  1
  O2-  O469  1  0.91158817  0.05387177  0.52071850  1
  O2-  O470  1  0.91439639  0.08298797  0.84499848  1
  O2-  O471  1  0.91674982  0.34707345  0.19462982  1
  O2-  O472  1  0.88175891  0.34439680  0.51238964  1
  O2-  O473  1  0.91054591  0.37103635  0.87648541  1
  O2-  O474  1  0.90934140  0.57835091  0.18389759  1
  O2-  O475  1  0.93065235  0.58444971  0.53263973  1
  O2-  O476  1  0.92082985  0.59459279  0.86001507  1
  O2-  O477  1  0.91247705  0.82136715  0.17931863  1
  O2-  O478  1  0.87543388  0.80944660  0.52666096  1
  O2-  O479  1  0.92990136  0.85638827  0.85548972  1
  O2-  O480  1  0.13434446  0.07368892  0.31104579  1
  O2-  O481  1  0.16356883  0.07440663  0.63979459  1
  O2-  O482  1  0.17696782  0.09922682  0.97806191  1
  O2-  O483  1  0.16189781  0.33966918  0.30832849  1
  O2-  O484  1  0.15795421  0.33492289  0.65154425  1
  O2-  O485  1  0.16406872  0.34129952  0.97479430  1
  O2-  O486  1  0.16969348  0.58390690  0.30476913  1
  O2-  O487  1  0.15383545  0.57520728  0.64396559  1
  O2-  O488  1  0.15993072  0.58519418  0.98203625  1
  O2-  O489  1  0.16685294  0.84629355  0.30369818  1
  O2-  O490  1  0.15764089  0.81638405  0.65481934  1
  O2-  O491  1  0.17509466  0.83474899  0.98520667  1
  O2-  O492  1  0.41301807  0.07946234  0.31002414  1
  O2-  O493  1  0.42574464  0.04597118  0.64480511  1
  O2-  O494  1  0.41195908  0.08598793  0.98868218  1
  O2-  O495  1  0.39089673  0.30364248  0.28371825  1
  O2-  O496  1  0.41319480  0.33854563  0.64028246  1
  O2-  O497  1  0.41754103  0.34725316  0.96792934  1
  O2-  O498  1  0.40026784  0.56311533  0.31080939  1
  O2-  O499  1  0.42890926  0.60995312  0.63174850  1
  O2-  O500  1  0.42788219  0.59602523  0.97897028  1
  O2-  O501  1  0.42541576  0.83021816  0.30941126  1
  O2-  O502  1  0.40366017  0.83755918  0.63301172  1
  O2-  O503  1  0.41794034  0.83775136  0.97703222  1
  O2-  O504  1  0.66154566  0.08116170  0.31587263  1
  O2-  O505  1  0.66413552  0.09839519  0.62329985  1
  O2-  O506  1  0.67352166  0.08415305  0.98209477  1
  O2-  O507  1  0.65226793  0.34234694  0.30823487  1
  O2-  O508  1  0.65746118  0.32733696  0.64506733  1
  O2-  O509  1  0.65559943  0.31155558  0.97783865  1
  O2-  O510  1  0.67571788  0.57946987  0.31030571  1
  O2-  O511  1  0.68861927  0.59509775  0.64137019  1
  O2-  O512  1  0.66719196  0.60570823  0.98686310  1
  O2-  O513  1  0.69388304  0.86307072  0.29556113  1
  O2-  O514  1  0.67898187  0.81506096  0.64085603  1
  O2-  O515  1  0.67949831  0.85025043  0.97400681  1
  O2-  O516  1  0.91307611  0.08738383  0.30833836  1
  O2-  O517  1  0.90214080  0.07531986  0.63532251  1
  O2-  O518  1  0.86452648  0.06011286  0.96620827  1
  O2-  O519  1  0.92432573  0.33809019  0.31840034  1
  O2-  O520  1  0.90802999  0.33682566  0.63261568  1
  O2-  O521  1  0.92108714  0.32298703  1.00014796  1
  O2-  O522  1  0.91244455  0.56885735  0.30587427  1
  O2-  O523  1  0.91935018  0.59736407  0.65660517  1
  O2-  O524  1  0.91935541  0.60535311  0.97493447  1
  O2-  O525  1  1.00828084  0.92821346  0.36102542  1
  O2-  O526  1  0.93491228  0.85250207  0.64616857  1
  O2-  O527  1  0.91651018  0.83811734  0.98065237  1
  O2-  O528  1  0.08858680  0.17930242  0.01461883  1
  O2-  O529  1  0.07691662  0.17855302  0.34713481  1
  O2-  O530  1  0.12150018  0.17417773  0.69732027  1
  O2-  O531  1  0.08876456  0.42333493  0.02709871  1
  O2-  O532  1  0.08857268  0.42534187  0.35862475  1
  O2-  O533  1  0.07122996  0.41385118  0.68176083  1
  O2-  O534  1  0.07469941  0.66784475  0.01718222  1
  O2-  O535  1  0.08835480  0.66767426  0.30490298  1
  O2-  O536  1  0.08293121  0.65924651  0.70467012  1
  O2-  O537  1  0.09408208  0.93109712  -0.01503494  1
  O2-  O538  1  0.02418246  0.86406557  0.33044546  1
  O2-  O539  1  0.09362189  0.91873871  0.68621538  1
  O2-  O540  1  0.34297699  0.18817055  0.02232521  1
  O2-  O541  1  0.30634800  0.14257520  0.34802793  1
  O2-  O542  1  0.33787785  0.17344100  0.67977832  1
  O2-  O543  1  0.32901310  0.42476441  0.01169364  1
  O2-  O544  1  0.32890673  0.40091852  0.34355180  1
  O2-  O545  1  0.32402044  0.42293664  0.68870934  1
  O2-  O546  1  0.33028604  0.66742624  0.01072984  1
  O2-  O547  1  0.33222878  0.66335171  0.35113178  1
  O2-  O548  1  0.31870943  0.66610897  0.68570587  1
  O2-  O549  1  0.33649469  0.91861794  0.02549323  1
  O2-  O550  1  0.33554826  0.91398497  0.34129945  1
  O2-  O551  1  0.29999746  0.95028442  0.70426485  1
  O2-  O552  1  0.57763414  0.15837554  0.02321302  1
  O2-  O553  1  0.57442038  0.17114607  0.35007089  1
  O2-  O554  1  0.56676073  0.16250248  0.69806306  1
  O2-  O555  1  0.57896218  0.45037046  0.02098241  1
  O2-  O556  1  0.59952560  0.42666699  0.36355513  1
  O2-  O557  1  0.65254060  0.45343552  0.70884041  1
  O2-  O558  1  0.50719275  0.64636915  0.01140546  1
  O2-  O559  1  0.58530563  0.67307037  0.31229762  1
  O2-  O560  1  0.59049642  0.65801542  0.68992785  1
  O2-  O561  1  0.58388655  0.91995730  0.02005005  1
  O2-  O562  1  0.59546440  0.91493078  0.34438569  1
  O2-  O563  1  0.53380095  0.96839629  0.69994735  1
  O2-  O564  1  0.82792305  0.16471398  0.03746746  1
  O2-  O565  1  0.83369356  0.17066915  0.34703414  1
  O2-  O566  1  0.82587899  0.17023861  0.67159997  1
  O2-  O567  1  0.81837284  0.39999149  0.02320919  1
  O2-  O568  1  0.84173154  0.40166375  0.37489036  1
  O2-  O569  1  0.80532543  0.37493187  0.70364517  1
  O2-  O570  1  0.83535283  0.67126571  0.01979564  1
  O2-  O571  1  0.84020602  0.65161102  0.34509963  1
  O2-  O572  1  0.84702580  0.68580415  0.68481106  1
  O2-  O573  1  0.83255561  0.91924055  0.01998328  1
  O2-  O574  1  0.84489956  0.92104069  0.35205049  1
  O2-  O575  1  0.84060617  0.91712650  0.68998749  1
