# generated using pymatgen
data_H2O
_symmetry_space_group_name_H-M   'P 1'
_cell_length_a   17.98300338
_cell_length_b   17.98619094
_cell_length_c   21.99237420
_cell_angle_alpha   89.99942781
_cell_angle_beta   89.96227893
_cell_angle_gamma   119.98826898
_symmetry_Int_Tables_number   1
_chemical_formula_structural   H2O
_chemical_formula_sum   'H384 O192'
_cell_volume   6161.05905719
_cell_formula_units_Z   192
loop_
 _symmetry_equiv_pos_site_id
 _symmetry_equiv_pos_as_xyz
  1  'x, y, z'
loop_
 _atom_type_symbol
 _atom_type_oxidation_number
  H+  1.0
  O2-  -2.0
loop_
 _atom_site_type_symbol
 _atom_site_label
 _atom_site_symmetry_multiplicity
 _atom_site_fract_x
 _atom_site_fract_y
 _atom_site_fract_z
 _atom_site_occupancy
  H+  H0  1  0.15235786  0.13598523  0.68712905  1
  H+  H1  1  0.35171382  0.61782997  0.49293749  1
  H+  H2  1  0.10335740  0.47927066  0.67737747  1
  H+  H3  1  0.20685360  0.87177915  0.69268439  1
  H+  H4  1  0.64159696  0.10276944  0.88768376  1
  H+  H5  1  0.59855108  0.63181573  0.33761024  1
  H+  H6  1  0.33711183  0.12961025  0.84344877  1
  H+  H7  1  0.42619112  0.81481279  0.50474053  1
  H+  H8  1  0.12718080  0.52967452  0.17190132  1
  H+  H9  1  0.37204034  0.14100574  0.17950027  1
  H+  H10  1  0.88377813  0.24412046  0.68865807  1
  H+  H11  1  0.02153117  0.14992681  0.49820285  1
  H+  H12  1  0.44512790  0.53034442  0.97419061  1
  H+  H13  1  0.45725090  0.12031850  0.84020992  1
  H+  H14  1  0.87289955  0.27032700  0.48900995  1
  H+  H15  1  0.47562995  0.61729777  0.33730861  1
  H+  H16  1  0.95036801  0.09965968  0.85197285  1
  H+  H17  1  0.64620660  0.02799894  0.33945119  1
  H+  H18  1  0.79537437  0.84113481  0.01915104  1
  H+  H19  1  0.95969350  0.59607589  0.52191335  1
  H+  H20  1  0.88195105  0.37085628  0.67147996  1
  H+  H21  1  0.38067932  0.35939394  0.16969405  1
  H+  H22  1  0.71603794  0.37866582  0.96757957  1
  H+  H23  1  0.39589333  0.07819577  0.57078922  1
  H+  H24  1  0.54994489  0.92198648  0.50151323  1
  H+  H25  1  0.39925753  -0.00151006  0.82523963  1
  H+  H26  1  0.48460778  0.61543778  0.72182984  1
  H+  H27  1  0.34769207  0.01309633  0.65923791  1
  H+  H28  1  0.22015029  0.84988404  0.83013695  1
  H+  H29  1  0.31765895  0.41224446  0.76795436  1
  H+  H30  1  0.73751880  0.62670092  0.84940881  1
  H+  H31  1  0.50133663  0.11502830  0.33464550  1
  H+  H32  1  0.85931857  0.11076057  1.01708472  1
  H+  H33  1  0.61353028  0.88204446  0.67406683  1
  H+  H34  1  0.28921002  0.11394368  0.67408343  1
  H+  H35  1  0.37509809  0.61436575  0.17783465  1
  H+  H36  1  0.62557268  0.29417910  0.97436344  1
  H+  H37  1  0.31686001  0.16755784  0.45075506  1
  H+  H38  1  0.86563762  0.32378110  0.98895420  1
  H+  H39  1  0.13778242  0.11710027  0.33341989  1
  H+  H40  1  0.65990701  0.05150084  0.52220548  1
  H+  H41  1  0.27529677  0.40674566  0.35266081  1
  H+  H42  1  0.86732216  0.08947103  0.17965496  1
  H+  H43  1  0.32171109  0.66317713  0.73500792  1
  H+  H44  1  0.90980007  0.13361361  0.66091821  1
  H+  H45  1  0.62619164  0.85895620  0.18276991  1
  H+  H46  1  0.61210794  0.23301941  0.51108865  1
  H+  H47  1  1.01187160  0.90776959  0.64621301  1
  H+  H48  1  0.11918117  0.02428968  0.82851602  1
  H+  H49  1  0.70257971  0.01467265  0.82696366  1
  H+  H50  1  0.15509232  0.88328576  0.32911384  1
  H+  H51  1  0.13236306  0.27749951  0.50695194  1
  H+  H52  1  0.01776194  0.38880772  0.67665665  1
  H+  H53  1  0.61876821  0.23389606  0.15703540  1
  H+  H54  1  0.38517514  0.27124575  0.17603469  1
  H+  H55  1  0.86741186  0.50822922  0.51778041  1
  H+  H56  1  0.16837804  0.80004563  0.41710078  1
  H+  H57  1  0.57089998  0.20724416  0.67529706  1
  H+  H58  1  0.85976295  0.63171385  0.82155884  1
  H+  H59  1  0.07512830  0.66919020  0.76103862  1
  H+  H60  1  0.16465548  0.34519050  0.59421133  1
  H+  H61  1  0.20794279  0.61584226  0.66578889  1
  H+  H62  1  0.07503808  0.18667961  0.16310963  1
  H+  H63  1  0.15126288  0.90352431  -0.00301923  1
  H+  H64  1  0.12656687  0.24110298  0.66281111  1
  H+  H65  1  0.60219212  0.38489994  0.81513673  1
  H+  H66  1  0.25977644  0.38338174  0.67659834  1
  H+  H67  1  0.89378325  0.54286153  0.18177927  1
  H+  H68  1  0.89520881  0.61650323  0.33855944  1
  H+  H69  1  0.75102240  0.37626815  0.05912405  1
  H+  H70  1  0.38328063  0.74105794  0.83339884  1
  H+  H71  1  0.91100775  0.89817063  0.66829460  1
  H+  H72  1  0.39258612  0.77504453  0.17513295  1
  H+  H73  1  0.47608499  0.59276594  0.69155250  1
  H+  H74  1  0.84167940  0.66224152  0.42631051  1
  H+  H75  1  0.35065572  0.13547233  0.50568734  1
  H+  H76  1  0.64457596  0.87507504  0.50662532  1
  H+  H77  1  0.02365350  0.65840741  0.16103545  1
  H+  H78  1  0.28030611  0.88563086  0.48051059  1
  H+  H79  1  0.94011202  0.84899163  0.19102755  1
  H+  H80  1  0.38839096  0.37416065  0.32540135  1
  H+  H81  1  0.13951969  0.75423605  0.48026706  1
  H+  H82  1  0.10634085  0.97872326  0.33692560  1
  H+  H83  1  0.26616867  0.64037735  0.16275261  1
  H+  H84  1  0.68422145  0.85782659  0.59732408  1
  H+  H85  1  0.88476358  0.85728084  0.50626572  1
  H+  H86  1  0.46783371  0.37571474  0.66508731  1
  H+  H87  1  0.60985440  0.01680625  0.67507781  1
  H+  H88  1  0.59668614  0.72345148  0.16478529  1
  H+  H89  1  0.40337873  0.33411248  0.26453623  1
  H+  H90  1  0.39236762  0.86241211  0.33066292  1
  H+  H91  1  0.29133949  0.88996245  0.00681457  1
  H+  H92  1  0.96303250  0.20226140  0.76564038  1
  H+  H93  1  0.90328235  0.04301237  0.65684115  1
  H+  H94  1  0.87023475  0.87998949  0.82392761  1
  H+  H95  1  0.50966734  0.65208128  0.00726656  1
  H+  H96  1  0.09111435  0.20427799  1.00908871  1
  H+  H97  1  0.37674817  0.36712857  0.99310532  1
  H+  H98  1  0.12896925  0.36430787  0.50021814  1
  H+  H99  1  0.63106547  0.36837089  0.16897186  1
  H+  H100  1  0.35120858  0.92343583  0.10350471  1
  H+  H101  1  0.77905747  0.13983848  0.37917914  1
  H+  H102  1  0.96497268  0.93340047  0.96949372  1
  H+  H103  1  0.72612485  0.07501933  1.03654324  1
  H+  H104  1  0.10958699  0.61725253  0.35340097  1
  H+  H105  1  0.18360896  0.83216845  0.93027462  1
  H+  H106  1  0.95242451  0.46825850  0.15429660  1
  H+  H107  1  0.98805547  0.36897813  0.48465010  1
  H+  H108  1  0.85773239  0.19929102  1.01204778  1
  H+  H109  1  0.01114755  0.37936341  0.38821287  1
  H+  H110  1  0.29108758  0.90393508  0.34373836  1
  H+  H111  1  0.89337263  0.52813827  0.32553916  1
  H+  H112  1  0.85747814  0.62878218  0.51322855  1
  H+  H113  1  0.69431252  0.61175060  0.67727016  1
  H+  H114  1  0.95865544  0.61047948  0.66898589  1
  H+  H115  1  0.11956837  0.61768157  0.83383554  1
  H+  H116  1  0.59452141  0.90100418  0.76791890  1
  H+  H117  1  0.79207430  0.90798379  0.67123080  1
  H+  H118  1  0.38149325  0.62102539  0.33878927  1
  H+  H119  1  0.72227336  0.86041144  0.33299243  1
  H+  H120  1  0.35610025  0.47192995  0.82654088  1
  H+  H121  1  0.04214681  0.15004082  0.66167820  1
  H+  H122  1  0.12084802  0.23906031  0.35215146  1
  H+  H123  1  0.40600822  0.07871590  0.90254664  1
  H+  H124  1  0.84650679  0.06619553  0.85601295  1
  H+  H125  1  0.20199946  0.57768211  0.50898468  1
  H+  H126  1  0.89055044  0.34251509  0.19887401  1
  H+  H127  1  0.86939955  0.36065765  0.49819308  1
  H+  H128  1  0.78140118  0.61018264  0.37313128  1
  H+  H129  1  0.37851346  0.51886153  0.34383326  1
  H+  H130  1  0.84110504  0.71997035  0.16655312  1
  H+  H131  1  0.64840094  0.12294428  0.17960045  1
  H+  H132  1  0.63793901  0.62275843  0.51339628  1
  H+  H133  1  0.69456225  0.33922303  0.69072501  1
  H+  H134  1  0.77671655  0.13212920  0.17075243  1
  H+  H135  1  0.77402387  0.71365921  1.00624479  1
  H+  H136  1  0.86220695  0.96519570  0.83437355  1
  H+  H137  1  0.83816458  -0.04808708  0.16031754  1
  H+  H138  1  0.52798233  0.89007494  0.34408278  1
  H+  H139  1  0.69611240  0.87007898  0.02387963  1
  H+  H140  1  0.32254895  0.68756166  0.50273049  1
  H+  H141  1  0.14826676  0.99424226  -0.00410448  1
  H+  H142  1  0.64879876  0.76367720  0.83695352  1
  H+  H143  1  -0.00427516  0.09494201  0.16452837  1
  H+  H144  1  0.39751839  0.86628682  0.17567706  1
  H+  H145  1  0.22085508  0.60359498  0.32630738  1
  H+  H146  1  0.47384988  0.38491710  -0.00903957  1
  H+  H147  1  0.07157302  0.41303514  0.06586550  1
  H+  H148  1  0.84762615  0.63037475  0.17007644  1
  H+  H149  1  0.62346883  0.61515923  0.15886306  1
  H+  H150  1  0.72837425  0.62366863  0.52038088  1
  H+  H151  1  0.35312104  0.38065603  0.49796474  1
  H+  H152  1  0.05693473  0.88518689  0.13633494  1
  H+  H153  1  0.13378424  0.10827709  -0.01112341  1
  H+  H154  1  0.98639401  0.86163967  0.82379115  1
  H+  H155  1  0.32470665  0.46041786  0.00687621  1
  H+  H156  1  0.60161859  0.47208060  0.15354205  1
  H+  H157  1  0.08389001  0.22166062  0.83722882  1
  H+  H158  1  0.47157403  0.61210786  0.50752975  1
  H+  H159  1  0.64723527  0.85853904  0.83384681  1
  H+  H160  1  0.61048991  0.41445600  -0.00552040  1
  H+  H161  1  0.88079307  0.11976238  0.49395082  1
  H+  H162  1  0.87198008  0.72654800  0.83158045  1
  H+  H163  1  0.61010033  0.16911000  -0.00802334  1
  H+  H164  1  0.64465719  0.36738227  0.53738401  1
  H+  H165  1  0.01910356  0.88560146  0.33295974  1
  H+  H166  1  0.59789574  0.37213655  0.67871100  1
  H+  H167  1  1.02849716  0.62984969  0.35087987  1
  H+  H168  1  0.87687992  0.66817047  0.67579474  1
  H+  H169  1  0.15271278  0.31027211  0.20871454  1
  H+  H170  1  0.21588609  0.35745148  0.84623471  1
  H+  H171  1  0.13686985  0.37848003  0.36388620  1
  H+  H172  1  0.74426950  0.85843582  0.83521246  1
  H+  H173  1  0.24380490  0.36652022  1.01039511  1
  H+  H174  1  0.13080728  0.62070758  0.17327468  1
  H+  H175  1  0.12091074  0.63723691  0.00672431  1
  H+  H176  1  0.54908467  0.88433541  0.83344063  1
  H+  H177  1  0.74719676  0.62587919  0.16036892  1
  H+  H178  1  0.15642622  0.08326142  0.92410933  1
  H+  H179  1  0.27954333  0.14495357  0.98951493  1
  H+  H180  1  1.01019579  0.63164991  0.81657506  1
  H+  H181  1  0.09743201  0.73675625  0.68194054  1
  H+  H182  1  0.50493853  0.38094191  0.82014225  1
  H+  H183  1  0.84772604  0.48316186  0.70359339  1
  H+  H184  1  0.26796263  0.62851799  0.00344444  1
  H+  H185  1  0.73366126  0.36490843  0.53142977  1
  H+  H186  1  0.85631623  0.70036090  0.73695768  1
  H+  H187  1  0.37882364  0.36461321  0.83417632  1
  H+  H188  1  0.51816690  0.87096986  0.68164692  1
  H+  H189  1  0.70981402  0.36354677  0.79855825  1
  H+  H190  1  0.52105789  0.38897630  0.29819538  1
  H+  H191  1  0.46816260  0.11510062  0.51726345  1
  H+  H192  1  0.29237741  0.89345272  0.16386244  1
  H+  H193  1  0.87115596  0.79389337  -0.00118093  1
  H+  H194  1  0.62002022  0.47132000  0.67782686  1
  H+  H195  1  0.76525535  0.10882986  0.80503749  1
  H+  H196  1  0.36154078  0.98163982  0.49721209  1
  H+  H197  1  0.11792540  0.98144677  0.59186890  1
  H+  H198  1  0.12434770  -0.01595171  0.50228791  1
  H+  H199  1  0.51506621  0.38185437  0.15521918  1
  H+  H200  1  0.61872635  0.51461219  0.29610748  1
  H+  H201  1  0.87270609  0.38780730  0.34419825  1
  H+  H202  1  0.39507359  0.03375754  0.99913834  1
  H+  H203  1  0.42438151  0.88214309  0.83592115  1
  H+  H204  1  0.63946568  0.12656784  0.52604504  1
  H+  H205  1  0.49240475  0.61480576  0.83716356  1
  H+  H206  1  0.86209691  0.98287567  0.49729878  1
  H+  H207  1  0.11722151  0.88609446  0.82510565  1
  H+  H208  1  0.86245109  -0.02018626  0.34737720  1
  H+  H209  1  0.12982800  0.51569208  0.98843785  1
  H+  H210  1  0.02019136  0.38094645  0.16958800  1
  H+  H211  1  0.03476584  0.63531623  -0.00309845  1
  H+  H212  1  0.61050081  0.48357079  0.53053909  1
  H+  H213  1  0.85878630  0.88788544  0.34654528  1
  H+  H214  1  0.32819094  0.62473778  0.67004866  1
  H+  H215  1  0.62597828  0.14179150  0.35241473  1
  H+  H216  1  0.36014626  0.48095059  0.16075161  1
  H+  H217  1  0.88873199  0.60174572  1.04268307  1
  H+  H218  1  0.40531632  0.58307561  0.23657658  1
  H+  H219  1  0.12816634  0.00511444  0.66216713  1
  H+  H220  1  0.35709780  0.23419906  0.35365109  1
  H+  H221  1  0.37684338  0.77041611  0.66508617  1
  H+  H222  1  0.40696526  0.62281784  0.83629000  1
  H+  H223  1  0.31597123  0.65434545  0.86418886  1
  H+  H224  1  0.40486224  1.01667457  0.33436425  1
  H+  H225  1  0.61208226  0.39249427  0.30165318  1
  H+  H226  1  1.01022356  0.37474085  1.00765430  1
  H+  H227  1  0.14862317  0.02095734  0.17593236  1
  H+  H228  1  0.38120023  0.89399091  0.00835163  1
  H+  H229  1  0.09728644  0.61590182  0.50939150  1
  H+  H230  1  0.13180955  0.36900243  0.65584995  1
  H+  H231  1  0.58429458  0.41965609  0.47634173  1
  H+  H232  1  0.38581630  0.12024683  0.99216554  1
  H+  H233  1  0.33498863  0.50730173  0.65595055  1
  H+  H234  1  0.61221180  0.73349521  0.49724221  1
  H+  H235  1  0.07758825  0.13226568  0.82599799  1
  H+  H236  1  0.86277639  0.72387980  0.50739938  1
  H+  H237  1  0.03244471  0.15010515  0.35537311  1
  H+  H238  1  0.35420977  0.39322245  0.67921249  1
  H+  H239  1  0.34672012  0.88019738  0.67405687  1
  H+  H240  1  0.89201987  0.25558081  0.19104750  1
  H+  H241  1  0.51645255  0.15439127  0.00144700  1
  H+  H242  1  0.88992511  0.12310906  0.36600329  1
  H+  H243  1  0.48388277  0.84561365  0.98553285  1
  H+  H244  1  0.63316128  0.12683287  0.86320388  1
  H+  H245  1  0.15234975  0.77738621  -0.00865146  1
  H+  H246  1  0.66901606  0.79355481  0.64897998  1
  H+  H247  1  0.58462309  0.23227671  0.81446658  1
  H+  H248  1  0.40128209  0.88724919  0.51114511  1
  H+  H249  1  0.23633080  0.39218750  0.18763114  1
  H+  H250  1  0.13293597  0.09951661  0.17844450  1
  H+  H251  1  0.36839020  0.23203444  0.99281650  1
  H+  H252  1  0.59593898  0.77959675  1.02415909  1
  H+  H253  1  0.11642823  0.40408832  0.16642669  1
  H+  H254  1  0.61578860  0.88864127  0.34579832  1
  H+  H255  1  0.49034231  0.11546659  0.17888038  1
  H+  H256  1  0.91451953  0.60141598  0.24082265  1
  H+  H257  1  0.60641580  0.72464495  0.34321084  1
  H+  H258  1  0.11507919  0.34386879  0.99801964  1
  H+  H259  1  0.87513215  0.76431084  0.34545349  1
  H+  H260  1  0.35484792  0.62641222  0.00796969  1
  H+  H261  1  0.88690345  0.26953026  0.35887097  1
  H+  H262  1  0.20372803  0.07457465  0.52388800  1
  H+  H263  1  0.27157345  0.14444764  0.35334945  1
  H+  H264  1  0.02496664  0.89503434  -0.01721895  1
  H+  H265  1  0.45844076  0.35419677  0.52476160  1
  H+  H266  1  0.90339453  0.28534963  0.83371402  1
  H+  H267  1  0.06730074  0.63873340  0.44799219  1
  H+  H268  1  0.13135669  0.88284979  0.66456192  1
  H+  H269  1  0.16591194  0.87778902  0.17292718  1
  H+  H270  1  0.20850165  0.62155602  0.82609284  1
  H+  H271  1  0.97754255  0.49388834  0.92382073  1
  H+  H272  1  0.64352879  0.55836119  1.00346356  1
  H+  H273  1  -0.04143676  0.07927104  0.00047460  1
  H+  H274  1  0.46639722  0.99544704  0.78126989  1
  H+  H275  1  0.73078588  0.36450985  0.32627661  1
  H+  H276  1  0.50796467  0.63371668  0.16335612  1
  H+  H277  1  0.10219441  0.64861632  0.67037143  1
  H+  H278  1  0.70792324  0.84709251  0.17910806  1
  H+  H279  1  0.70324278  0.60923609  0.30567385  1
  H+  H280  1  0.38853351  0.76728111  -0.00795076  1
  H+  H281  1  0.65134030  0.66489209  0.60219686  1
  H+  H282  1  0.63127708  0.05967476  1.03965360  1
  H+  H283  1  0.34498157  0.22204578  0.83935722  1
  H+  H284  1  0.63370660  0.63756899  0.83842455  1
  H+  H285  1  0.90497002  0.48671581  -0.03432742  1
  H+  H286  1  0.10373744  0.85754365  0.47059202  1
  H+  H287  1  0.84277791  0.58944508  0.03590559  1
  H+  H288  1  0.68132292  0.61205920  0.91098794  1
  H+  H289  1  0.80683769  0.47421056  0.04453813  1
  H+  H290  1  0.40302110  0.02448033  0.18004687  1
  H+  H291  1  0.56032765  0.39167543  0.40054205  1
  H+  H292  1  0.59941997  0.43646971  0.39923331  1
  H+  H293  1  0.58181993  0.66994817  0.43978454  1
  H+  H294  1  0.98834288  0.36900020  0.84708900  1
  H+  H295  1  0.42466704  0.57865976  0.92321173  1
  H+  H296  1  0.64851029  0.58472359  0.21966287  1
  H+  H297  1  0.90443170  0.54030266  0.86664489  1
  H+  H298  1  0.43243916  0.84008096  0.89904559  1
  H+  H299  1  0.85097182  0.84404539  0.17695667  1
  H+  H300  1  0.36839006  0.56638680  0.59564446  1
  H+  H301  1  0.12646251  0.93483874  0.08694394  1
  H+  H302  1  0.62614712  0.94488606  -0.00502250  1
  H+  H303  1  0.16009931  0.58114960  0.26981548  1
  H+  H304  1  0.62040250  0.22808457  0.34505389  1
  H+  H305  1  0.58574543  0.17745758  0.44971530  1
  H+  H306  1  0.52862189  0.89364985  0.16604937  1
  H+  H307  1  0.89938986  0.33968492  0.60753626  1
  H+  H308  1  0.32631220  0.66438356  0.10395421  1
  H+  H309  1  0.12954154  0.76516597  0.83545396  1
  H+  H310  1  0.69768839  0.57183829  0.61650515  1
  H+  H311  1  0.31669796  0.41544577  0.10445430  1
  H+  H312  1  0.33889650  0.42822613  0.40939148  1
  H+  H313  1  0.56565868  0.11559388  0.67743302  1
  H+  H314  1  0.88073351  0.03638228  0.23375517  1
  H+  H315  1  0.16094488  0.57951316  0.93020437  1
  H+  H316  1  0.67230213  0.32847375  0.26692257  1
  H+  H317  1  0.41570368  0.34467434  0.89442507  1
  H+  H318  1  0.34536200  0.92587140  0.73400176  1
  H+  H319  1  0.59894817  0.93662278  0.43854783  1
  H+  H320  1  0.09138464  0.17584848  0.44647195  1
  H+  H321  1  0.92610117  0.13077127  0.30099884  1
  H+  H322  1  0.83954897  0.15580359  0.11212682  1
  H+  H323  1  0.08198186  0.41856817  0.76829015  1
  H+  H324  1  0.58086478  0.42873561  0.06010419  1
  H+  H325  1  0.28217873  0.13772111  0.17664086  1
  H+  H326  1  0.16581789  0.36988411  0.29611623  1
  H+  H327  1  0.88444524  0.80929095  0.28123839  1
  H+  H328  1  0.78052534  0.40122983  0.45841172  1
  H+  H329  1  0.94487317  0.84971212  0.88927771  1
  H+  H330  1  0.60175213  0.66199335  0.77434966  1
  H+  H331  1  0.64320255  0.03232408  0.18651348  1
  H+  H332  1  0.41794785  0.83806517  0.60956878  1
  H+  H333  1  0.57557925  0.64729249  0.64554961  1
  H+  H334  1  0.82732461  0.94678770  0.00907087  1
  H+  H335  1  0.36705844  0.72713185  0.34216438  1
  H+  H336  1  0.39967647  0.33913932  0.61123726  1
  H+  H337  1  0.88212076  0.51354722  0.79609513  1
  H+  H338  1  0.16724675  0.08406477  0.27499862  1
  H+  H339  1  0.84499321  0.93134866  0.73367581  1
  H+  H340  1  0.83170894  0.92095572  0.43988524  1
  H+  H341  1  0.26685385  0.38804629  0.49287274  1
  H+  H342  1  0.73032203  0.86875324  0.50651199  1
  H+  H343  1  0.68500716  0.09519245  0.28507636  1
  H+  H344  1  0.58645067  0.17608486  0.09803612  1
  H+  H345  1  0.35344124  0.92907198  0.40300535  1
  H+  H346  1  0.42123659  0.83086462  0.27149242  1
  H+  H347  1  0.65867629  0.82703756  0.27504663  1
  H+  H348  1  0.19061788  0.85043198  0.27603524  1
  H+  H349  1  0.56578904  0.41105291  0.75240674  1
  H+  H350  1  0.80202169  0.88977735  0.10197402  1
  H+  H351  1  0.96891641  0.84922878  0.49933046  1
  H+  H352  1  0.11182384  0.48299468  0.82505449  1
  H+  H353  1  0.89425253  0.57084474  0.61372252  1
  H+  H354  1  0.10133473  0.89677713  0.75794630  1
  H+  H355  1  0.14870315  0.57521198  0.60683673  1
  H+  H356  1  0.91912933  0.80698123  0.67161685  1
  H+  H357  1  0.36793909  0.26485006  0.51900554  1
  H+  H358  1  0.38432984  0.51878954  0.50380629  1
  H+  H359  1  0.20263810  0.11415976  0.83952334  1
  H+  H360  1  0.14693078  0.31638866  0.93876246  1
  H+  H361  1  0.67290201  0.35234556  0.87030481  1
  H+  H362  1  0.92526621  0.31728017  0.29488594  1
  H+  H363  1  0.13189848  0.36553102  0.84581720  1
  H+  H364  1  0.64449610  0.08352421  0.62010761  1
  H+  H365  1  0.08108263  0.67685127  0.10094225  1
  H+  H366  1  0.85412208  0.43123571  0.39885313  1
  H+  H367  1  0.06590369  0.14071680  0.06639373  1
  H+  H368  1  0.91309442  0.31069628  0.93225357  1
  H+  H369  1  0.91095690  0.09659525  0.55801285  1
  H+  H370  1  0.43930813  0.07987969  0.26943657  1
  H+  H371  1  0.63238902  0.64087886  1.00095342  1
  H+  H372  1  0.86898501  0.43379604  0.11470458  1
  H+  H373  1  0.43009965  0.10420041  0.66297436  1
  H+  H374  1  0.07211995  0.89967282  0.42172679  1
  H+  H375  1  0.10930442  0.49575155  0.50905051  1
  H+  H376  1  0.15490176  0.78540465  0.17764800  1
  H+  H377  1  0.60145151  0.94014787  0.11427018  1
  H+  H378  1  0.56033002  0.67560757  0.07275272  1
  H+  H379  1  0.65823332  0.32285523  0.62050291  1
  H+  H380  1  0.54173830  0.16152692  0.76221791  1
  H+  H381  1  0.89600460  0.05163558  0.94207589  1
  H+  H382  1  0.72421558  0.37862831  0.17425173  1
  H+  H383  1  0.32902619  0.66184751  0.40067104  1
  O2-  O384  1  0.05560842  0.12876512  0.14844853  1
  O2-  O385  1  0.08447293  0.18166590  0.49037790  1
  O2-  O386  1  0.04385799  0.16231585  0.82326452  1
  O2-  O387  1  0.07537799  0.42003923  0.14846569  1
  O2-  O388  1  0.05686991  0.39918417  0.47327066  1
  O2-  O389  1  0.08547435  0.42150530  0.81406821  1
  O2-  O390  1  0.08294041  0.68004938  0.14615562  1
  O2-  O391  1  0.06926048  0.64773642  0.49356952  1
  O2-  O392  1  0.07335283  0.66637680  0.80750475  1
  O2-  O393  1  0.11776659  0.92711457  0.13290043  1
  O2-  O394  1  0.07048118  0.88777205  0.46632412  1
  O2-  O395  1  0.08863960  0.90953629  0.79915185  1
  O2-  O396  1  0.34303822  0.17133227  0.16408421  1
  O2-  O397  1  0.31576857  0.16302473  0.49638345  1
  O2-  O398  1  0.30419658  0.15982091  0.83904532  1
  O2-  O399  1  0.32441165  0.41912674  0.14957268  1
  O2-  O400  1  0.32919789  0.41607303  0.47980091  1
  O2-  O401  1  0.32123308  0.41119348  0.81434921  1
  O2-  O402  1  0.32764918  0.66702573  0.14907453  1
  O2-  O403  1  0.31301147  0.63991500  0.47655527  1
  O2-  O404  1  0.34732842  0.67663185  0.82611179  1
  O2-  O405  1  0.35340690  0.92404111  0.14905228  1
  O2-  O406  1  0.34404301  0.92370145  0.47826656  1
  O2-  O407  1  0.41032123  0.95717014  0.79947002  1
  O2-  O408  1  0.59197305  0.17334316  0.14272754  1
  O2-  O409  1  0.57809797  0.17345129  0.49425452  1
  O2-  O410  1  0.54645641  0.17011228  0.80757940  1
  O2-  O411  1  0.57579448  0.41209810  0.13871636  1
  O2-  O412  1  0.58164343  0.42105062  0.52085145  1
  O2-  O413  1  0.56575075  0.41211449  0.80171299  1
  O2-  O414  1  0.56718327  0.66477639  0.14520181  1
  O2-  O415  1  0.58190868  0.67114179  0.48494836  1
  O2-  O416  1  0.59895671  0.66709762  0.81835844  1
  O2-  O417  1  0.59242652  0.92782298  0.15795904  1
  O2-  O418  1  0.60706650  0.94082812  0.48352741  1
  O2-  O419  1  0.60613197  0.90443214  0.81367221  1
  O2-  O420  1  0.83839230  0.15517399  0.15785977  1
  O2-  O421  1  0.83779506  0.17300000  0.45911437  1
  O2-  O422  1  0.92284160  0.22454708  0.76628775  1
  O2-  O423  1  0.89038933  0.44495907  0.15718640  1
  O2-  O424  1  0.81937216  0.41243680  0.49236436  1
  O2-  O425  1  0.76625120  0.37070892  0.74438686  1
  O2-  O426  1  0.81394757  0.65799460  0.15150804  1
  O2-  O427  1  0.82879238  0.66007295  0.49538129  1
  O2-  O428  1  0.83318559  0.66804367  0.81471520  1
  O2-  O429  1  0.80702900  0.89012014  0.14759652  1
  O2-  O430  1  0.83258971  0.92052419  0.48498471  1
  O2-  O431  1  0.83478251  0.90716988  0.81286534  1
  O2-  O432  1  0.16858090  0.07730028  0.19596491  1
  O2-  O433  1  0.14429031  0.02996884  0.53364892  1
  O2-  O434  1  0.13857414  0.07996184  0.84858788  1
  O2-  O435  1  0.17957841  0.37256532  0.20950654  1
  O2-  O436  1  0.16558275  0.34230282  0.51678238  1
  O2-  O437  1  0.15635659  0.33089415  0.86299947  1
  O2-  O438  1  0.16112883  0.58993939  0.18662114  1
  O2-  O439  1  0.14514533  0.55373321  0.52841778  1
  O2-  O440  1  0.15516479  0.59161411  0.84952026  1
  O2-  O441  1  0.19103005  0.84530228  0.19232978  1
  O2-  O442  1  0.17292104  0.81261267  0.46082798  1
  O2-  O443  1  0.16610240  0.82512170  0.85245682  1
  O2-  O444  1  0.43371049  0.08270610  0.19976363  1
  O2-  O445  1  0.40529822  0.07962884  0.52548337  1
  O2-  O446  1  0.39857131  0.07659106  0.85754599  1
  O2-  O447  1  0.41541279  0.33531172  0.18622469  1
  O2-  O448  1  0.39596634  0.32766153  0.53097684  1
  O2-  O449  1  0.41412699  0.33903947  0.84922120  1
  O2-  O450  1  0.40664820  0.58410665  0.19178141  1
  O2-  O451  1  0.40912207  0.58004903  0.51749791  1
  O2-  O452  1  0.43122244  0.58727769  0.85144077  1
  O2-  O453  1  0.42673709  0.83472401  0.19124800  1
  O2-  O454  1  0.43802734  0.86455843  0.52927570  1
  O2-  O455  1  0.44103004  0.84115814  0.85399200  1
  O2-  O456  1  0.67766630  0.09419582  0.19841845  1
  O2-  O457  1  0.67167263  0.10228050  0.54632206  1
  O2-  O458  1  0.75590200  0.06800182  0.83750936  1
  O2-  O459  1  0.66405440  0.33969517  0.18387963  1
  O2-  O460  1  0.67093577  0.33182067  0.54701308  1
  O2-  O461  1  0.65724320  0.34558921  0.82707940  1
  O2-  O462  1  0.65502688  0.58547944  0.17406617  1
  O2-  O463  1  0.66860481  0.59933984  0.53795605  1
  O2-  O464  1  0.67791235  0.60263115  0.86630050  1
  O2-  O465  1  0.64867249  0.82072115  0.19653134  1
  O2-  O466  1  0.66885806  0.83873007  0.52138151  1
  O2-  O467  1  0.68037790  0.82703812  0.85023589  1
  O2-  O468  1  0.89092760  0.04955939  0.19045333  1
  O2-  O469  1  0.90935385  0.08901099  0.51307994  1
  O2-  O470  1  0.89274384  0.05355599  0.86867694  1
  O2-  O471  1  0.92341009  0.31428833  0.20978070  1
  O2-  O472  1  0.90378294  0.33029238  0.50762481  1
  O2-  O473  1  0.92817590  0.33318328  0.86287263  1
  O2-  O474  1  0.90977435  0.60201690  0.19447240  1
  O2-  O475  1  0.89883065  0.56927579  0.53568459  1
  O2-  O476  1  0.90392507  0.56264016  0.82585469  1
  O2-  O477  1  0.87852638  0.81180769  0.19700135  1
  O2-  O478  1  0.91081803  0.82224207  0.51798609  1
  O2-  O479  1  0.92963268  0.83567041  0.84560761  1
  O2-  O480  1  0.16392780  0.08215142  0.32023582  1
  O2-  O481  1  0.17739828  0.09655294  0.69907634  1
  O2-  O482  1  0.16876930  0.08626601  0.96914317  1
  O2-  O483  1  0.16980953  0.35778498  0.33944006  1
  O2-  O484  1  0.16478793  0.34249101  0.63974485  1
  O2-  O485  1  0.14311601  0.31086393  0.98456419  1
  O2-  O486  1  0.16016985  0.57265999  0.31422161  1
  O2-  O487  1  0.14709015  0.58475979  0.65139459  1
  O2-  O488  1  0.16385200  0.57711813  0.97537846  1
  O2-  O489  1  0.19430988  0.86054717  0.32048876  1
  O2-  O490  1  0.14354948  0.84807035  0.69397991  1
  O2-  O491  1  0.18836733  0.83674993  0.97553381  1
  O2-  O492  1  0.44009195  0.07918966  0.31647427  1
  O2-  O493  1  0.37061679  0.07316108  0.64524632  1
  O2-  O494  1  0.42204636  0.09226676  0.98123147  1
  O2-  O495  1  0.41252130  0.33930504  0.30968708  1
  O2-  O496  1  0.40624667  0.35075629  0.65552117  1
  O2-  O497  1  0.41535925  0.34986771  0.97336305  1
  O2-  O498  1  0.41171901  0.58506026  0.32461388  1
  O2-  O499  1  0.33446627  0.55523958  0.63315552  1
  O2-  O500  1  0.42278957  0.56965736  0.96943951  1
  O2-  O501  1  0.42011478  0.82892289  0.31700236  1
  O2-  O502  1  0.41245580  0.83284344  0.65445890  1
  O2-  O503  1  0.42306007  0.82749188  0.97712928  1
  O2-  O504  1  0.68066088  0.09099859  0.32997915  1
  O2-  O505  1  0.62658547  0.07605830  0.66401541  1
  O2-  O506  1  0.66386280  0.02986388  1.04149623  1
  O2-  O507  1  0.67049759  0.33071268  0.31189065  1
  O2-  O508  1  0.64083885  0.31635917  0.66461517  1
  O2-  O509  1  0.65555309  0.35340239  0.95651699  1
  O2-  O510  1  0.64259537  0.58143536  0.29515467  1
  O2-  O511  1  0.69913936  0.56394766  0.66054882  1
  O2-  O512  1  0.67162386  0.61949434  0.99001180  1
  O2-  O513  1  0.66046491  0.82732265  0.32054291  1
  O2-  O514  1  0.68787178  0.85525605  0.64297465  1
  O2-  O515  1  0.62819832  0.84855982  1.02910070  1
  O2-  O516  1  0.91932224  0.09970564  0.33877934  1
  O2-  O517  1  0.93133069  0.10091414  0.63785669  1
  O2-  O518  1  0.89652385  0.04785133  0.98822854  1
  O2-  O519  1  0.91951787  0.32715414  0.33847207  1
  O2-  O520  1  0.90843548  0.34051839  0.65180999  1
  O2-  O521  1  0.90600858  0.30439988  0.97886040  1
  O2-  O522  1  0.92076397  0.58962439  0.31258192  1
  O2-  O523  1  0.89631026  0.57840548  0.65903215  1
  O2-  O524  1  0.95265479  0.52714115  0.94025225  1
  O2-  O525  1  0.89855462  0.82087035  0.32484140  1
  O2-  O526  1  0.94398002  0.86893116  0.65467394  1
  O2-  O527  1  0.96746904  0.88072578  0.96502272  1
  O2-  O528  1  0.06479771  0.14251810  0.02141665  1
  O2-  O529  1  0.09518599  0.17736486  0.36215147  1
  O2-  O530  1  0.10141006  0.18088774  0.67781192  1
  O2-  O531  1  0.07134242  0.41058483  0.02061829  1
  O2-  O532  1  0.06973229  0.40867973  0.40660649  1
  O2-  O533  1  0.07806167  0.41843124  0.69143303  1
  O2-  O534  1  0.08940428  0.66773833  0.01875793  1
  O2-  O535  1  0.08132749  0.64637564  0.37397494  1
  O2-  O536  1  0.06879434  0.67345008  0.68913274  1
  O2-  O537  1  0.12226671  0.93427146  0.01397553  1
  O2-  O538  1  0.07963448  0.91559269  0.34632399  1
  O2-  O539  1  0.10000621  0.95306332  0.63497523  1
  O2-  O540  1  0.33893633  0.17132059  0.00550844  1
  O2-  O541  1  0.32766954  0.17774282  0.37397436  1
  O2-  O542  1  0.26994678  0.15206216  0.69200118  1
  O2-  O543  1  0.30483071  0.40385271  0.02528449  1
  O2-  O544  1  0.33848675  0.43643765  0.36298379  1
  O2-  O545  1  0.31800188  0.41832704  0.69537026  1
  O2-  O546  1  0.32787197  0.65984720  0.02025989  1
  O2-  O547  1  0.33780231  0.66500442  0.35549683  1
  O2-  O548  1  0.31431422  0.66735898  0.69122307  1
  O2-  O549  1  0.35038681  0.92277928  0.02437561  1
  O2-  O550  1  0.35353352  0.92815640  0.35703330  1
  O2-  O551  1  0.31852053  0.91010498  0.69299899  1
  O2-  O552  1  0.58023114  0.19431745  0.01306239  1
  O2-  O553  1  0.59025320  0.16881947  0.36259973  1
  O2-  O554  1  0.53257423  0.14631043  0.68783691  1
  O2-  O555  1  0.58363596  0.44360506  0.01595730  1
  O2-  O556  1  0.58272155  0.42212324  0.28508721  1
  O2-  O557  1  0.57391871  0.41142260  0.68998639  1
  O2-  O558  1  0.56593754  0.69001982  0.02756621  1
  O2-  O559  1  0.57189531  0.66296611  0.35730791  1
  O2-  O560  1  0.63783799  0.68299658  0.64115031  1
  O2-  O561  1  0.60217811  0.88428082  -0.02170172  1
  O2-  O562  1  0.58828875  0.92237777  0.35917045  1
  O2-  O563  1  0.57845475  0.90150305  0.69711616  1
  O2-  O564  1  0.83320915  0.14411382  0.03493331  1
  O2-  O565  1  0.84051264  0.17155977  0.39192978  1
  O2-  O566  1  0.87276890  0.19022540  0.71004094  1
  O2-  O567  1  0.80749882  0.41982541  0.04406845  1
  O2-  O568  1  0.84588850  0.42386988  0.35445988  1
  O2-  O569  1  0.85327382  0.44512066  0.73468853  1
  O2-  O570  1  0.81736663  0.77027432  0.02262197  1
  O2-  O571  1  0.83930315  0.65827322  0.37906475  1
  O2-  O572  1  0.87195390  0.71628987  0.69363955  1
  O2-  O573  1  0.78275714  0.89068268  0.02766930  1
  O2-  O574  1  0.82724540  0.91837415  0.35814048  1
  O2-  O575  1  0.85160952  0.93782680  0.68866669  1
