# generated using pymatgen
data_H2O
_symmetry_space_group_name_H-M   'P 1'
_cell_length_a   17.98837530
_cell_length_b   17.98956968
_cell_length_c   22.00929894
_cell_angle_alpha   90.00626501
_cell_angle_beta   90.01072807
_cell_angle_gamma   119.97634739
_symmetry_Int_Tables_number   1
_chemical_formula_structural   H2O
_chemical_formula_sum   'H384 O192'
_cell_volume   6169.54301382
_cell_formula_units_Z   192
loop_
 _symmetry_equiv_pos_site_id
 _symmetry_equiv_pos_as_xyz
  1  'x, y, z'
loop_
 _atom_type_symbol
 _atom_type_oxidation_number
  H+  1.0
  O2-  -2.0
loop_
 _atom_site_type_symbol
 _atom_site_label
 _atom_site_symmetry_multiplicity
 _atom_site_fract_x
 _atom_site_fract_y
 _atom_site_fract_z
 _atom_site_occupancy
  H+  H0  1  0.86186341  0.89317036  0.49762840  1
  H+  H1  1  0.87297557  0.98753042  0.49343328  1
  H+  H2  1  0.87936450  0.61827550  0.00083955  1
  H+  H3  1  0.63593846  0.86121433  0.17944769  1
  H+  H4  1  0.65662749  0.32591364  0.89321776  1
  H+  H5  1  0.72234468  0.88189797  0.83513446  1
  H+  H6  1  0.55225886  0.62240553  0.42861049  1
  H+  H7  1  0.87930418  0.36213192  0.98835022  1
  H+  H8  1  0.61212657  0.72422955  0.34668224  1
  H+  H9  1  0.45623517  0.60098971  0.65953867  1
  H+  H10  1  0.07691657  0.65143194  0.41249932  1
  H+  H11  1  0.60966074  0.46913471  0.49807105  1
  H+  H12  1  0.39241507  0.03200249  0.99125723  1
  H+  H13  1  0.38100175  0.36087534  0.32572702  1
  H+  H14  1  0.71434209  0.46102651  0.26645209  1
  H+  H15  1  0.11991908  0.97696448  0.15271839  1
  H+  H16  1  0.61228676  0.14349468  0.01542432  1
  H+  H17  1  1.01914460  0.62671222  0.15621160  1
  H+  H18  1  0.38766286  0.90319141  0.67412980  1
  H+  H19  1  0.10682499  0.62955179  0.82985111  1
  H+  H20  1  0.87137328  0.91689087  0.67016162  1
  H+  H21  1  0.10849964  0.87721074  0.31883036  1
  H+  H22  1  0.85557650  0.47580858  1.00402215  1
  H+  H23  1  0.24401391  0.10908114  0.31147379  1
  H+  H24  1  0.01886849  0.38431216  0.34659302  1
  H+  H25  1  0.64769363  0.03249080  1.01396053  1
  H+  H26  1  0.75642538  0.13010859  0.79642481  1
  H+  H27  1  0.87729547  0.22806088  0.33585410  1
  H+  H28  1  0.36701119  0.72740681  0.48612347  1
  H+  H29  1  0.24934258  0.39575723  0.18469390  1
  H+  H30  1  0.03734237  0.38633573  0.65060176  1
  H+  H31  1  0.37772068  0.84537197  0.32549120  1
  H+  H32  1  0.37613726  0.22111821  0.66675034  1
  H+  H33  1  0.61340277  0.47638752  0.67754682  1
  H+  H34  1  0.14863690  0.03945185  0.83657356  1
  H+  H35  1  0.64754385  0.77802192  0.17517500  1
  H+  H36  1  0.68453945  0.17865363  0.67674868  1
  H+  H37  1  0.76578273  0.63518989  0.50097704  1
  H+  H38  1  0.14294049  0.86290177  0.83498397  1
  H+  H39  1  0.57153934  0.71166679  0.65651449  1
  H+  H40  1  0.78652939  0.14445781  1.02136072  1
  H+  H41  1  0.03470174  0.88745753  0.82429953  1
  H+  H42  1  0.50567456  0.12941213  0.72254633  1
  H+  H43  1  0.87705977  0.77646183  0.67549308  1
  H+  H44  1  0.99963804  0.37121890  0.51962899  1
  H+  H45  1  0.72197108  0.62258833  0.99333847  1
  H+  H46  1  0.38337116  0.10870704  0.48451507  1
  H+  H47  1  0.59994751  0.47860770  0.83264508  1
  H+  H48  1  0.36694413  0.14395263  0.00081684  1
  H+  H49  1  0.85318814  0.71730025  0.34916429  1
  H+  H50  1  0.52360720  0.89597125  0.49496246  1
  H+  H51  1  0.22870869  1.11636019  -0.00892003  1
  H+  H52  1  0.46805287  0.34958432  0.17064156  1
  H+  H53  1  0.47373597  0.37112268  1.00115628  1
  H+  H54  1  0.62553611  0.11642317  0.50635408  1
  H+  H55  1  0.88090640  0.61497552  0.50700409  1
  H+  H56  1  0.11966679  0.75128206  0.31947822  1
  H+  H57  1  0.87346883  0.78247718  0.83908351  1
  H+  H58  1  0.96770756  0.35647749  0.83012626  1
  H+  H59  1  0.11001861  0.50598185  0.99125563  1
  H+  H60  1  0.60783591  0.37999336  0.49621241  1
  H+  H61  1  0.73933275  0.12248945  0.32757917  1
  H+  H62  1  0.01118966  0.37673388  0.00450950  1
  H+  H63  1  0.62040132  0.01483930  0.50395140  1
  H+  H64  1  0.60182163  0.17636196  0.43385763  1
  H+  H65  1  0.36935767  0.39828403  0.83509374  1
  H+  H66  1  0.08294080  0.41016976  0.75714758  1
  H+  H67  1  0.63024428  0.36243614  0.83726028  1
  H+  H68  1  0.62941942  0.61011749  0.33456083  1
  H+  H69  1  0.12974443  0.60324037  0.66022311  1
  H+  H70  1  0.63272464  0.62742449  0.83404316  1
  H+  H71  1  0.36765370  0.60550388  0.50619307  1
  H+  H72  1  0.02773123  0.13030513  0.16136898  1
  H+  H73  1  0.35600919  0.63803581  0.67677620  1
  H+  H74  1  0.28897615  0.89681379  0.00879934  1
  H+  H75  1  0.15477763  0.56902273  0.89826471  1
  H+  H76  1  0.97350828  0.62155285  0.32639658  1
  H+  H77  1  0.86622098  0.88883242  1.00755695  1
  H+  H78  1  0.51928103  0.86936023  0.33862075  1
  H+  H79  1  0.11544891  0.72915535  0.00001709  1
  H+  H80  1  0.78316059  0.13661775  0.16863108  1
  H+  H81  1  0.83496429  0.12716098  0.82680763  1
  H+  H82  1  0.61626232  0.88870946  0.67407953  1
  H+  H83  1  0.43427948  0.12618760  0.67617582  1
  H+  H84  1  0.90643520  0.12711059  0.49768560  1
  H+  H85  1  0.88908156  0.02386527  0.17588071  1
  H+  H86  1  0.13597115  0.76980706  0.83698740  1
  H+  H87  1  0.38896294  0.60699692  0.32095356  1
  H+  H88  1  0.38987723  0.86502910  0.50108813  1
  H+  H89  1  0.36383686  0.23193596  1.00628146  1
  H+  H90  1  0.52118376  0.63515684  0.33909467  1
  H+  H91  1  0.57470810  0.67735565  0.72353357  1
  H+  H92  1  0.87375496  0.76898957  0.51336795  1
  H+  H93  1  0.12048267  0.47518177  0.66391016  1
  H+  H94  1  0.41448844  0.34218596  0.94146517  1
  H+  H95  1  0.54054088  0.90653109  0.00395660  1
  H+  H96  1  0.97175455  0.92986236  0.22215556  1
  H+  H97  1  0.61482557  0.45526531  0.17069674  1
  H+  H98  1  0.76658334  0.38706822  0.82939082  1
  H+  H99  1  0.17778973  0.83620759  0.93267873  1
  H+  H100  1  0.67957550  0.09871620  0.95938645  1
  H+  H101  1  0.59561122  0.22005139  0.80544746  1
  H+  H102  1  0.22181613  0.61089968  0.84394869  1
  H+  H103  1  0.41924374  0.51429446  0.17189701  1
  H+  H104  1  0.33967306  0.94199117  0.33649610  1
  H+  H105  1  0.13234114  0.27257160  -0.01066728  1
  H+  H106  1  0.11232899  0.22248688  0.34608140  1
  H+  H107  1  0.61932945  0.10973982  0.78250270  1
  H+  H108  1  0.02721248  0.56340964  0.37908752  1
  H+  H109  1  0.35915758  0.20541536  0.15699017  1
  H+  H110  1  0.57916457  0.91192930  0.39631885  1
  H+  H111  1  0.41587273  0.83502491  0.56199105  1
  H+  H112  1  0.39886557  0.52566882  0.84292610  1
  H+  H113  1  0.88825784  0.37638847  0.17741225  1
  H+  H114  1  0.26796213  0.38713011  0.00731011  1
  H+  H115  1  0.15008164  0.56710772  0.23664027  1
  H+  H116  1  0.42147469  0.80961857  1.00060238  1
  H+  H117  1  0.95689795  0.50462425  0.20143759  1
  H+  H118  1  1.01993778  0.63356011  0.83273797  1
  H+  H119  1  0.89542317  0.88917195  0.17637495  1
  H+  H120  1  0.89202384  1.01755811  0.33014616  1
  H+  H121  1  0.64758359  1.03216491  0.66196408  1
  H+  H122  1  0.84189620  0.60060975  0.82527473  1
  H+  H123  1  0.87644309  0.13765439  0.33738775  1
  H+  H124  1  0.27394386  0.38039298  0.34942333  1
  H+  H125  1  0.04082177  0.89096303  0.66379940  1
  H+  H126  1  0.37751494  0.79885357  0.16932643  1
  H+  H127  1  0.61508651  0.02019226  0.78679130  1
  H+  H128  1  0.72251761  0.61701133  0.66179302  1
  H+  H129  1  0.62499951  0.51829994  0.34121238  1
  H+  H130  1  0.43989278  0.05488615  0.35030459  1
  H+  H131  1  0.23343813  0.60421606  0.32629682  1
  H+  H132  1  0.14739907  0.86644698  0.99087793  1
  H+  H133  1  0.64153059  1.02312938  0.17765256  1
  H+  H134  1  0.71082513  0.60818170  0.83627312  1
  H+  H135  1  0.38782846  0.35539436  0.66712487  1
  H+  H136  1  0.36571998  0.71901778  0.33015274  1
  H+  H137  1  0.37337041  0.51942141  0.00231624  1
  H+  H138  1  0.13033785  1.01112747  0.49981280  1
  H+  H139  1  0.85623852  0.38741286  0.82869721  1
  H+  H140  1  0.31932832  0.69419689  0.01004654  1
  H+  H141  1  1.01498405  0.62972980  0.67285997  1
  H+  H142  1  0.58817097  0.20526414  0.33947237  1
  H+  H143  1  0.63537598  0.77693754  0.99317545  1
  H+  H144  1  0.13223271  0.27015847  0.83845317  1
  H+  H145  1  0.50675821  0.13473364  0.81845361  1
  H+  H146  1  0.20579134  0.92244770  0.54192025  1
  H+  H147  1  0.63707111  0.10867892  0.17231640  1
  H+  H148  1  0.89152523  0.11715155  -0.00266430  1
  H+  H149  1  0.74864845  0.90418717  0.65364044  1
  H+  H150  1  0.37629985  0.11990723  0.84290508  1
  H+  H151  1  0.13441401  0.15120633  0.82535353  1
  H+  H152  1  0.74213994  0.11241402  0.64981008  1
  H+  H153  1  0.89373369  0.11483486  0.18108160  1
  H+  H154  1  0.62668566  0.86545173  0.84274803  1
  H+  H155  1  0.37937152  0.27351597  0.85734769  1
  H+  H156  1  0.09598482  0.87446803  0.49451696  1
  H+  H157  1  0.46133428  0.35887073  0.50722460  1
  H+  H158  1  0.87890428  0.53383145  0.66141881  1
  H+  H159  1  0.61908394  0.90546909  0.49333999  1
  H+  H160  1  0.64798913  0.16120517  0.34383674  1
  H+  H161  1  0.35893863  0.38975585  0.00881726  1
  H+  H162  1  0.44638650  0.18412589  0.30401666  1
  H+  H163  1  0.61521807  0.74376728  0.81688446  1
  H+  H164  1  0.88375616  0.61773704  0.32174351  1
  H+  H165  1  0.10191398  0.63295602  0.00135882  1
  H+  H166  1  0.44673830  0.61256238  0.16969100  1
  H+  H167  1  0.10500364  0.74268820  0.15685171  1
  H+  H168  1  0.61500468  0.39960380  0.33696888  1
  H+  H169  1  0.40028178  1.05466499  0.33862554  1
  H+  H170  1  0.19940631  0.59014978  0.99600954  1
  H+  H171  1  0.46927530  0.36236019  0.84962320  1
  H+  H172  1  0.87161368  0.34763853  0.33695247  1
  H+  H173  1  0.17898478  0.07838661  0.24684842  1
  H+  H174  1  1.00771175  1.14419410  0.65221958  1
  H+  H175  1  0.13514348  0.75771405  0.66346396  1
  H+  H176  1  0.72839212  0.36336824  0.51131137  1
  H+  H177  1  0.73086444  0.88639858  0.49907140  1
  H+  H178  1  0.11312023  0.46879001  0.34372885  1
  H+  H179  1  0.77435339  0.88186520  0.34494337  1
  H+  H180  1  1.02515200  0.12874409  0.48842974  1
  H+  H181  1  0.31452681  0.36993569  0.52483434  1
  H+  H182  1  0.21149549  0.83518914  0.32337889  1
  H+  H183  1  0.86952793  0.39201768  0.49818344  1
  H+  H184  1  0.14665764  0.85121806  0.66850994  1
  H+  H185  1  0.50360599  0.52667823  0.45006170  1
  H+  H186  1  0.22758660  0.10629985  0.16125812  1
  H+  H187  1  0.67603145  0.09625236  0.27107029  1
  H+  H188  1  1.02547256  0.88757421  0.32672977  1
  H+  H189  1  0.14463834  0.63127934  0.50865259  1
  H+  H190  1  0.91629044  0.05819073  0.65157353  1
  H+  H191  1  0.52556130  0.65523321  0.81614124  1
  H+  H192  1  0.87678850  0.27031318  0.83111373  1
  H+  H193  1  0.86215106  0.64487394  0.66612970  1
  H+  H194  1  0.36189973  0.46837739  0.34230495  1
  H+  H195  1  0.51761294  0.64055761  0.01205081  1
  H+  H196  1  0.15178538  0.33220533  0.90380975  1
  H+  H197  1  0.73254369  0.58195860  0.19296076  1
  H+  H198  1  0.10551589  0.47593600  0.15711506  1
  H+  H199  1  0.36388476  0.46989327  0.67601804  1
  H+  H200  1  0.86482619  0.40971579  0.67601775  1
  H+  H201  1  0.61195546  0.48168443  0.00733187  1
  H+  H202  1  0.77547038  0.88667828  0.00583369  1
  H+  H203  1  0.67101062  0.82873347  0.27613409  1
  H+  H204  1  0.38313497  0.77923140  0.66127303  1
  H+  H205  1  0.90306236  0.28491501  0.61056444  1
  H+  H206  1  0.87293703  0.23171775  1.00989503  1
  H+  H207  1  0.23921017  0.10964776  0.64626171  1
  H+  H208  1  0.12215518  0.36056734  0.83504895  1
  H+  H209  1  0.66843162  0.83765320  0.93429002  1
  H+  H210  1  0.02870068  0.89269673  0.15424986  1
  H+  H211  1  0.77124130  0.88821200  0.16302934  1
  H+  H212  1  0.93644100  0.86044533  0.71181444  1
  H+  H213  1  0.10960428  0.74067584  0.49684783  1
  H+  H214  1  0.63625673  0.85430164  0.33489759  1
  H+  H215  1  0.55311696  0.93112602  0.85874698  1
  H+  H216  1  0.62341091  0.89551346  0.00837424  1
  H+  H217  1  0.63107917  0.61294452  0.66125361  1
  H+  H218  1  0.37755437  0.66793614  0.83715745  1
  H+  H219  1  0.12781396  0.85757283  0.16715278  1
  H+  H220  1  0.96992761  0.62022249  0.99634962  1
  H+  H221  1  0.24338426  0.13061744  0.84370914  1
  H+  H222  1  0.27379038  0.64405427  0.48701845  1
  H+  H223  1  0.27885246  0.38227400  0.68109773  1
  H+  H224  1  0.68689125  0.80608021  0.65294087  1
  H+  H225  1  0.40127863  0.88410737  0.98896000  1
  H+  H226  1  0.76249124  0.54333426  0.78451103  1
  H+  H227  1  0.14399998  0.60236663  0.33467847  1
  H+  H228  1  0.88788782  0.52898712  0.50489852  1
  H+  H229  1  0.61525072  0.22616073  0.49645726  1
  H+  H230  1  0.76644649  0.38929866  0.34046611  1
  H+  H231  1  0.35621662  0.22377595  0.48261604  1
  H+  H232  1  0.93304150  0.74907597  0.86136663  1
  H+  H233  1  0.36388563  0.37729582  0.15992806  1
  H+  H234  1  0.67676082  0.55440985  0.25378661  1
  H+  H235  1  0.12664663  0.35968857  -0.00894974  1
  H+  H236  1  0.86110052  0.73330711  0.01157682  1
  H+  H237  1  0.62214564  0.25446681  0.17422401  1
  H+  H238  1  0.84423692  0.89728941  0.80615550  1
  H+  H239  1  0.12729473  0.98021484  0.66710443  1
  H+  H240  1  0.84604924  0.45757499  0.15318189  1
  H+  H241  1  0.31736629  0.45921562  0.52884400  1
  H+  H242  1  1.02820996  0.13895896  1.00595178  1
  H+  H243  1  0.16948963  0.07659791  0.55599470  1
  H+  H244  1  0.14570483  0.01046763  0.30815503  1
  H+  H245  1  0.63005000  0.27641040  -0.00733660  1
  H+  H246  1  0.15461674  0.11785330  0.65312317  1
  H+  H247  1  0.46887824  0.35794142  0.32451037  1
  H+  H248  1  0.98431728  0.03098733  0.88319044  1
  H+  H249  1  0.14119766  0.23872986  0.66454679  1
  H+  H250  1  0.35829667  0.22847804  0.32609952  1
  H+  H251  1  1.02400995  0.12929264  0.34294189  1
  H+  H252  1  0.11052251  0.46998660  0.81728945  1
  H+  H253  1  0.39765264  0.89670182  0.16960761  1
  H+  H254  1  0.13671826  0.10900715  0.16573181  1
  H+  H255  1  0.61857469  0.59067444  0.50735098  1
  H+  H256  1  0.47662632  0.86278324  0.65853585  1
  H+  H257  1  1.01079725  0.87920719  0.49955728  1
  H+  H258  1  0.47812516  0.35919339  0.66657387  1
  H+  H259  1  0.81577535  0.72436040  0.16432035  1
  H+  H260  1  0.73121870  0.29896090  0.36877031  1
  H+  H261  1  0.26805474  0.87481707  0.82039438  1
  H+  H262  1  0.88426705  0.52233967  0.84988126  1
  H+  H263  1  0.11423302  0.12123820  0.48597427  1
  H+  H264  1  0.21990350  0.44864506  0.22405482  1
  H+  H265  1  0.98369138  0.39067424  0.18000626  1
  H+  H266  1  0.12007347  0.97952079  0.00041605  1
  H+  H267  1  0.19407092  0.61372892  0.17539006  1
  H+  H268  1  0.36709204  0.97754104  0.48003503  1
  H+  H269  1  0.52218211  0.14167484  0.00594776  1
  H+  H270  1  0.86003949  0.17947256  0.42993863  1
  H+  H271  1  0.13031216  0.35322428  0.33902310  1
  H+  H272  1  0.62079854  0.34231050  0.16649845  1
  H+  H273  1  0.71910522  0.36397272  0.98709744  1
  H+  H274  1  0.98559936  0.86884197  0.99695377  1
  H+  H275  1  0.33204454  0.65873690  0.17667462  1
  H+  H276  1  0.48979366  0.84669588  0.82624614  1
  H+  H277  1  0.75510938  0.36922148  0.15214076  1
  H+  H278  1  0.11822439  0.14074496  0.00233489  1
  H+  H279  1  0.88765488  0.15900997  0.65890111  1
  H+  H280  1  0.57523299  0.63357061  0.16160727  1
  H+  H281  1  0.89157426  0.23781487  0.49024415  1
  H+  H282  1  0.87150926  0.98977730  0.82800014  1
  H+  H283  1  0.88167474  0.85573818  0.33658757  1
  H+  H284  1  0.47994490  0.58099093  0.88540544  1
  H+  H285  1  0.02065075  0.65054638  0.50071573  1
  H+  H286  1  0.15304635  0.36915814  0.64897952  1
  H+  H287  1  0.66271886  0.28723963  0.66427383  1
  H+  H288  1  0.47216166  0.10944307  0.49060361  1
  H+  H289  1  0.34697873  0.42996982  0.77348094  1
  H+  H290  1  0.33509844  0.41578604  0.10364953  1
  H+  H291  1  0.82961857  0.91575397  0.10156777  1
  H+  H292  1  0.11169304  0.39166142  0.15920299  1
  H+  H293  1  0.92042092  0.35226478  0.27519744  1
  H+  H294  1  0.76658247  0.26350457  0.69402164  1
  H+  H295  1  0.61091290  0.39200505  0.00478731  1
  H+  H296  1  0.49685887  0.16637133  0.25407930  1
  H+  H297  1  0.33979121  0.61804266  0.01660349  1
  H+  H298  1  0.82530518  0.66520656  0.44144224  1
  H+  H299  1  0.88700406  0.02466949  0.99999546  1
  H+  H300  1  0.09244039  0.92207215  0.76440785  1
  H+  H301  1  0.33761664  0.19505072  0.79124556  1
  H+  H302  1  0.92512363  0.07718797  0.27009945  1
  H+  H303  1  0.84961885  0.17244542  0.11433253  1
  H+  H304  1  0.66722719  0.14660191  0.88825073  1
  H+  H305  1  0.91163511  0.58881515  0.59909868  1
  H+  H306  1  0.93129796  0.56977761  0.23102676  1
  H+  H307  1  0.90903693  0.58653999  0.90737400  1
  H+  H308  1  0.83718100  0.91760316  0.40263604  1
  H+  H309  1  0.39920896  0.58313989  0.94530980  1
  H+  H310  1  0.08622066  0.16266332  0.10166498  1
  H+  H311  1  0.16853423  0.33442031  0.28008017  1
  H+  H312  1  0.35604013  0.94036915  0.06602373  1
  H+  H313  1  0.09185198  0.91932851  0.05973702  1
  H+  H314  1  0.57664227  0.40709500  0.40230498  1
  H+  H315  1  0.08392986  0.15633443  0.41713638  1
  H+  H316  1  0.90932865  0.33004116  0.93005420  1
  H+  H317  1  0.83414002  0.43086462  0.73789222  1
  H+  H318  1  0.93564031  0.07341674  0.91326084  1
  H+  H319  1  0.67398124  0.85887252  0.55813801  1
  H+  H320  1  0.33313763  0.16444443  0.38245333  1
  H+  H321  1  0.58116914  0.41577978  0.10313092  1
  H+  H322  1  0.57654353  0.41983765  0.77318147  1
  H+  H323  1  0.33111859  0.15684954  0.09369164  1
  H+  H324  1  0.82447257  0.65556042  0.72865575  1
  H+  H325  1  0.42913887  0.57416142  0.26787604  1
  H+  H326  1  0.22308070  0.61368109  0.66206868  1
  H+  H327  1  0.10826327  0.18118827  0.72481382  1
  H+  H328  1  0.66064978  0.32900349  0.56701486  1
  H+  H329  1  0.07225533  0.65199475  0.73343757  1
  H+  H330  1  0.60587495  0.67742209  0.09697292  1
  H+  H331  1  0.08776030  0.40804844  0.43755179  1
  H+  H332  1  0.84910514  0.18115248  0.71639174  1
  H+  H333  1  0.15192903  0.81675745  0.22543369  1
  H+  H334  1  0.07288603  0.40835003  0.06402116  1
  H+  H335  1  0.34781536  0.86009900  0.81890537  1
  H+  H336  1  0.66075099  0.59314214  0.93445184  1
  H+  H337  1  0.90508376  0.83019808  0.57157997  1
  H+  H338  1  0.39318989  0.57427629  0.60253090  1
  H+  H339  1  0.33338673  0.67648383  0.73509133  1
  H+  H340  1  0.81190829  0.67216644  0.06776663  1
  H+  H341  1  0.07059966  0.67201227  0.08950908  1
  H+  H342  1  0.82137481  0.40861692  0.05907859  1
  H+  H343  1  0.17054736  0.08884837  0.93112885  1
  H+  H344  1  0.71955395  0.67796051  0.14079089  1
  H+  H345  1  0.21419372  0.35780287  0.59976559  1
  H+  H346  1  0.17416819  0.36467345  0.49843493  1
  H+  H347  1  0.92327753  0.83070765  0.94008730  1
  H+  H348  1  0.57403680  0.15962704  0.10153388  1
  H+  H349  1  0.33839498  0.66327229  0.39183612  1
  H+  H350  1  0.58441933  0.91479886  0.10817593  1
  H+  H351  1  0.33759351  0.14394164  0.71461719  1
  H+  H352  1  0.82130782  0.39954405  0.43945436  1
  H+  H353  1  0.65790080  0.57829138  0.57004468  1
  H+  H354  1  0.41669241  0.01079806  0.69071625  1
  H+  H355  1  0.66011083  0.08232484  0.56761307  1
  H+  H356  1  0.76372096  0.62854714  0.35100369  1
  H+  H357  1  0.36217844  0.05803737  0.14917662  1
  H+  H358  1  0.40786756  0.32203308  0.22922807  1
  H+  H359  1  0.93947624  0.10312336  0.55875595  1
  H+  H360  1  0.17479493  0.59402354  0.56226099  1
  H+  H361  1  0.27031019  0.13350757  0.47914680  1
  H+  H362  1  0.57586749  0.90674064  0.73236459  1
  H+  H363  1  0.57085541  0.25725175  0.63872587  1
  H+  H364  1  0.90574022  0.82282579  0.27703938  1
  H+  H365  1  0.41491753  0.83547857  0.26241409  1
  H+  H366  1  0.35071630  0.92507038  0.73839527  1
  H+  H367  1  0.37652414  0.02853377  0.83916850  1
  H+  H368  1  0.41884730  0.09079513  0.93146032  1
  H+  H369  1  0.52181169  0.88977481  0.16545762  1
  H+  H370  1  0.60664566  0.63977206  0.00412432  1
  H+  H371  1  0.67878292  0.36421452  0.25611012  1
  H+  H372  1  0.84433172  0.95901257  0.72316066  1
  H+  H373  1  0.04273892  0.14379579  0.82452668  1
  H+  H374  1  0.31838523  0.89317442  0.39915457  1
  H+  H375  1  0.71015891  0.14853010  0.88603443  1
  H+  H376  1  0.60909865  0.38426734  0.67834125  1
  H+  H377  1  0.37736368  0.77857916  0.88820345  1
  H+  H378  1  0.28193087  0.88754956  0.49337978  1
  H+  H379  1  0.30802182  0.66720676  0.10881424  1
  H+  H380  1  0.40823000  0.32326044  0.56739769  1
  H+  H381  1  0.50743804  0.10476412  0.15289042  1
  H+  H382  1  0.44256382  0.58161386  0.50572534  1
  H+  H383  1  0.18221473  0.84048894  0.58138808  1
  O2-  O384  1  0.08783720  0.15599595  0.14616729  1
  O2-  O385  1  0.08558191  0.15355106  0.47022672  1
  O2-  O386  1  0.10183396  0.18115952  0.80948717  1
  O2-  O387  1  0.07789860  0.41518236  0.14037447  1
  O2-  O388  1  0.09282068  0.40408570  0.48303505  1
  O2-  O389  1  0.08042842  0.40914664  0.80271455  1
  O2-  O390  1  0.07116945  0.67584332  0.13527214  1
  O2-  O391  1  0.08104420  0.68039766  0.48437918  1
  O2-  O392  1  0.07873264  0.66201597  0.81509288  1
  O2-  O393  1  0.08766850  0.91567993  0.13775109  1
  O2-  O394  1  0.06984467  0.90865234  0.48244343  1
  O2-  O395  1  0.09414376  0.92244438  0.80977764  1
  O2-  O396  1  0.32763615  0.14698881  0.13880440  1
  O2-  O397  1  0.32980072  0.16641019  0.46264554  1
  O2-  O398  1  0.33168109  0.17456222  0.83274170  1
  O2-  O399  1  0.34317185  0.41855997  0.14869184  1
  O2-  O400  1  0.27850150  0.39588302  0.53307410  1
  O2-  O401  1  0.35004669  0.43749838  0.81847804  1
  O2-  O402  1  0.30714539  0.68530764  0.15154093  1
  O2-  O403  1  0.33431533  0.66747403  0.47070260  1
  O2-  O404  1  0.33951022  0.68978759  0.82304696  1
  O2-  O405  1  0.36159805  0.94883004  0.13630011  1
  O2-  O406  1  0.33701641  0.91287548  0.47067199  1
  O2-  O407  1  0.32985822  0.90154401  0.80669306  1
  O2-  O408  1  0.56938225  0.14844472  0.14634299  1
  O2-  O409  1  0.58757818  0.16677298  0.47907650  1
  O2-  O410  1  0.55844427  0.16030553  0.79113271  1
  O2-  O411  1  0.57405154  0.40261381  0.14749218  1
  O2-  O412  1  0.57662551  0.40955245  0.48166095  1
  O2-  O413  1  0.57565110  0.41849764  0.81870803  1
  O2-  O414  1  0.62542121  0.67954818  0.13997066  1
  O2-  O415  1  0.53101162  0.58504342  0.46621412  1
  O2-  O416  1  0.58463295  0.68480092  0.79859838  1
  O2-  O417  1  0.58325716  0.91248248  0.15312346  1
  O2-  O418  1  0.58412157  0.93370109  0.48027315  1
  O2-  O419  1  0.55066666  0.89514479  0.82459647  1
  O2-  O420  1  0.84547395  0.16543733  0.15882833  1
  O2-  O421  1  0.86385564  0.17846970  0.47529029  1
  O2-  O422  1  0.82101509  0.16233502  0.80082030  1
  O2-  O423  1  0.81490152  0.39955768  0.13482755  1
  O2-  O424  1  0.83546147  0.41751738  0.48312095  1
  O2-  O425  1  0.82889657  0.42204227  0.81742574  1
  O2-  O426  1  0.77369869  0.67452364  0.14149653  1
  O2-  O427  1  0.82703354  0.66788317  0.48731209  1
  O2-  O428  1  0.79579624  0.60236245  0.79932266  1
  O2-  O429  1  0.83170059  0.91706636  0.14688077  1
  O2-  O430  1  0.83716856  0.92655127  0.47927046  1
  O2-  O431  1  0.82807628  0.94133208  0.80162358  1
  O2-  O432  1  0.16795162  0.07681495  0.17959219  1
  O2-  O433  1  0.16586579  0.07400667  0.51084391  1
  O2-  O434  1  0.17418086  0.09812679  0.85329602  1
  O2-  O435  1  0.19853503  0.39155767  0.20688012  1
  O2-  O436  1  0.11219520  0.33413288  0.48731439  1
  O2-  O437  1  0.15081534  0.33024862  0.85629974  1
  O2-  O438  1  0.14042593  0.56648451  0.19207769  1
  O2-  O439  1  0.17913451  0.60402652  0.51781508  1
  O2-  O440  1  0.16024970  0.57294791  0.85275717  1
  O2-  O441  1  0.14860021  0.81743444  0.18022636  1
  O2-  O442  1  0.18855739  0.86195628  0.53703301  1
  O2-  O443  1  0.17124571  0.83102308  0.85043819  1
  O2-  O444  1  0.39962457  0.03568908  0.16315076  1
  O2-  O445  1  0.40982261  0.07489211  0.49915050  1
  O2-  O446  1  0.40983131  0.08826498  0.85309202  1
  O2-  O447  1  0.40649560  0.31836630  0.18369349  1
  O2-  O448  1  0.40161301  0.32661317  0.52286996  1
  O2-  O449  1  0.41074403  0.33762573  0.86731877  1
  O2-  O450  1  0.46140209  0.57294641  0.18914241  1
  O2-  O451  1  0.38871167  0.56941384  0.52678799  1
  O2-  O452  1  0.43595237  0.58691525  0.86343077  1
  O2-  O453  1  0.41808377  0.85588181  0.18629519  1
  O2-  O454  1  0.42070406  0.83546774  0.51707121  1
  O2-  O455  1  0.38323390  0.78049526  0.84311427  1
  O2-  O456  1  0.67256195  0.08497629  0.18871362  1
  O2-  O457  1  0.65220910  0.08014467  0.52183318  1
  O2-  O458  1  0.65303723  0.07998616  0.77601134  1
  O2-  O459  1  0.65557012  0.31727917  0.18266241  1
  O2-  O460  1  0.66604638  0.33137191  0.52183876  1
  O2-  O461  1  0.65926950  0.32923977  0.84777678  1
  O2-  O462  1  0.69312428  0.53161023  0.21765941  1
  O2-  O463  1  0.66080058  0.57604342  0.52481697  1
  O2-  O464  1  0.65478740  0.59329102  0.85497816  1
  O2-  O465  1  0.67193567  0.83615657  0.19338000  1
  O2-  O466  1  0.67038532  0.86063382  0.51369716  1
  O2-  O467  1  0.66506122  0.84196487  0.85260152  1
  O2-  O468  1  0.92413857  0.08212924  0.19348093  1
  O2-  O469  1  0.93328027  0.09215788  0.51406859  1
  O2-  O470  1  0.95175297  0.05907554  0.87180595  1
  O2-  O471  1  0.93830163  0.39308817  0.20446501  1
  O2-  O472  1  0.93713263  0.34515452  0.53270715  1
  O2-  O473  1  0.90903602  0.32972251  0.84761100  1
  O2-  O474  1  0.94161386  0.54917718  0.19110600  1
  O2-  O475  1  0.91590168  0.58878603  0.52106809  1
  O2-  O476  1  0.91104062  0.58461652  0.86148096  1
  O2-  O477  1  0.93839978  0.87751231  0.19843071  1
  O2-  O478  1  0.90533949  0.83082884  0.52727370  1
  O2-  O479  1  0.92834719  0.80088811  0.85914262  1
  O2-  O480  1  0.18205150  0.07454112  0.29402144  1
  O2-  O481  1  0.17691625  0.08061186  0.63682935  1
  O2-  O482  1  0.16755307  0.08489599  0.97670363  1
  O2-  O483  1  0.16215160  0.32417473  0.32446536  1
  O2-  O484  1  0.18752157  0.34054750  0.64088011  1
  O2-  O485  1  0.15926641  0.33305890  0.97262181  1
  O2-  O486  1  0.17075800  0.57208997  0.31489510  1
  O2-  O487  1  0.16475565  0.57825302  0.64461670  1
  O2-  O488  1  0.14267726  0.56709922  0.97592688  1
  O2-  O489  1  0.15312611  0.80982995  0.30404924  1
  O2-  O490  1  0.17199728  0.81874621  0.65056446  1
  O2-  O491  1  0.17745878  0.83493536  0.97791731  1
  O2-  O492  1  0.50480829  0.20229361  0.28937539  1
  O2-  O493  1  0.47196750  0.10173283  0.68461385  1
  O2-  O494  1  0.42138140  0.09304026  0.97687560  1
  O2-  O495  1  0.40985565  0.32989173  0.30706123  1
  O2-  O496  1  0.41789676  0.32505459  0.65124157  1
  O2-  O497  1  0.41259191  0.34131674  0.98746165  1
  O2-  O498  1  0.42060204  0.57536162  0.31224191  1
  O2-  O499  1  0.39484590  0.57400414  0.64840249  1
  O2-  O500  1  0.40036077  0.58231647  0.99030625  1
  O2-  O501  1  0.41175357  0.82158375  0.30685515  1
  O2-  O502  1  0.41569640  0.83961037  0.64560324  1
  O2-  O503  1  0.43137776  0.85372179  0.97086084  1
  O2-  O504  1  0.67888774  0.10250957  0.31588696  1
  O2-  O505  1  0.67968310  0.08686984  0.63964663  1
  O2-  O506  1  0.67690621  0.09561859  1.00381482  1
  O2-  O507  1  0.69962191  0.40788947  0.28924562  1
  O2-  O508  1  0.62710227  0.30879390  0.64253340  1
  O2-  O509  1  0.65786068  0.33471151  0.97347150  1
  O2-  O510  1  0.66062952  0.57829425  0.32496399  1
  O2-  O511  1  0.66118280  0.58180297  0.64900630  1
  O2-  O512  1  0.66056291  0.59171486  0.97972015  1
  O2-  O513  1  0.67058588  0.82601623  0.32121324  1
  O2-  O514  1  0.68754824  0.85946690  0.64376753  1
  O2-  O515  1  0.66938701  0.83811600  0.97946870  1
  O2-  O516  1  0.92579041  0.07837499  0.31582885  1
  O2-  O517  1  0.94781640  0.11805214  0.63598853  1
  O2-  O518  1  0.91952699  0.08385706  0.98236266  1
  O2-  O519  1  0.91600588  0.33624575  0.31924625  1
  O2-  O520  1  0.93967008  0.34623166  0.59977890  1
  O2-  O521  1  0.91060763  0.33168739  0.97523512  1
  O2-  O522  1  0.92671142  0.61024603  0.29831218  1
  O2-  O523  1  0.91102481  0.59389735  0.64449385  1
  O2-  O524  1  0.90850099  0.58836709  0.98306583  1
  O2-  O525  1  0.90967240  0.82226583  0.32169451  1
  O2-  O526  1  0.91003952  0.84161895  0.67185708  1
  O2-  O527  1  0.92304171  0.83819850  0.98444197  1
  O2-  O528  1  0.08992946  0.17324700  0.01741202  1
  O2-  O529  1  0.08403882  0.16104893  0.36039862  1
  O2-  O530  1  0.10921386  0.17782283  0.67987338  1
  O2-  O531  1  0.07264938  0.40699267  0.01821330  1
  O2-  O532  1  0.07962617  0.40986787  0.36136049  1
  O2-  O533  1  0.09036028  0.41242376  0.67548850  1
  O2-  O534  1  0.07749603  0.66914691  0.01553756  1
  O2-  O535  1  0.06641997  0.62416846  0.37091385  1
  O2-  O536  1  0.07474307  0.65244941  0.68825716  1
  O2-  O537  1  0.09034297  0.91800095  0.01419604  1
  O2-  O538  1  0.08916550  0.91949853  0.32466740  1
  O2-  O539  1  0.09612820  0.92069906  0.68501462  1
  O2-  O540  1  0.33289709  0.16969678  0.01733412  1
  O2-  O541  1  0.33457724  0.16582987  0.33700047  1
  O2-  O542  1  0.35108945  0.15677424  0.67165564  1
  O2-  O543  1  0.32707727  0.41926683  0.02417391  1
  O2-  O544  1  0.33631421  0.40905428  0.35816853  1
  O2-  O545  1  0.34024743  0.41222343  0.69515567  1
  O2-  O546  1  0.30167146  0.64099239  0.03211829  1
  O2-  O547  1  0.33722422  0.65858426  0.34634468  1
  O2-  O548  1  0.33153376  0.67475590  0.69032325  1
  O2-  O549  1  0.35093411  0.93011017  0.01925853  1
  O2-  O550  1  0.31091023  0.88384445  0.35332449  1
  O2-  O551  1  0.37022625  0.94376402  0.69425069  1
  O2-  O552  1  0.58092113  0.17451434  0.02474724  1
  O2-  O553  1  0.63287764  0.20330898  0.36483139  1
  O2-  O554  1  0.70435569  0.23600439  0.69518299  1
  O2-  O555  1  0.58222499  0.42206290  0.02331834  1
  O2-  O556  1  0.57339842  0.41281372  0.35733337  1
  O2-  O557  1  0.58327302  0.41767111  0.69559787  1
  O2-  O558  1  0.57986297  0.67291848  0.02148754  1
  O2-  O559  1  0.57910551  0.66191418  0.35893352  1
  O2-  O560  1  0.56885918  0.66344500  0.67868191  1
  O2-  O561  1  0.59594628  0.92764986  0.02549058  1
  O2-  O562  1  0.57854799  0.89360814  0.35409231  1
  O2-  O563  1  0.58031758  0.91326749  0.68805937  1
  O2-  O564  1  0.84969849  0.17318952  0.02772500  1
  O2-  O565  1  0.84756521  0.16885738  0.35303191  1
  O2-  O566  1  0.84818178  0.18075092  0.67148712  1
  O2-  O567  1  0.82531341  0.41338514  0.01340154  1
  O2-  O568  1  0.78443045  0.35714228  0.36789891  1
  O2-  O569  1  0.83361131  0.43638682  0.69272130  1
  O2-  O570  1  0.82468157  0.67182474  0.02369955  1
  O2-  O571  1  0.82482529  0.65740024  0.36532444  1
  O2-  O572  1  0.83017074  0.67262636  0.68509989  1
  O2-  O573  1  0.83507734  0.91829114  0.02243214  1
  O2-  O574  1  0.83659751  0.91273703  0.35718578  1
  O2-  O575  1  0.84889726  0.95648845  0.67811584  1
