# generated using pymatgen
data_H2O
_symmetry_space_group_name_H-M   'P 1'
_cell_length_a   17.99939276
_cell_length_b   17.99703552
_cell_length_c   22.00380686
_cell_angle_alpha   89.99392059
_cell_angle_beta   89.99599597
_cell_angle_gamma   120.02073287
_symmetry_Int_Tables_number   1
_chemical_formula_structural   H2O
_chemical_formula_sum   'H384 O192'
_cell_volume   6171.58204044
_cell_formula_units_Z   192
loop_
 _symmetry_equiv_pos_site_id
 _symmetry_equiv_pos_as_xyz
  1  'x, y, z'
loop_
 _atom_type_symbol
 _atom_type_oxidation_number
  H+  1.0
  O2-  -2.0
loop_
 _atom_site_type_symbol
 _atom_site_label
 _atom_site_symmetry_multiplicity
 _atom_site_fract_x
 _atom_site_fract_y
 _atom_site_fract_z
 _atom_site_occupancy
  H+  H0  1  0.35838388  0.88257331  0.84439884  1
  H+  H1  1  0.13707006  0.52510949  0.32067480  1
  H+  H2  1  0.12862181  0.27380186  0.50748808  1
  H+  H3  1  0.63264626  0.44966351  0.00318695  1
  H+  H4  1  0.14458928  0.29188749  0.32778403  1
  H+  H5  1  0.13962532  0.52999694  0.83569976  1
  H+  H6  1  0.27164823  0.63335742  0.82447714  1
  H+  H7  1  0.11887467  0.01787832  0.89994808  1
  H+  H8  1  0.39294402  0.76483930  -0.00664136  1
  H+  H9  1  0.27220021  0.38660712  0.00946962  1
  H+  H10  1  0.87215127  0.11960433  0.84922607  1
  H+  H11  1  0.61951419  0.74316166  0.67413420  1
  H+  H12  1  0.60805015  0.97019112  0.83425673  1
  H+  H13  1  0.38145693  0.27618989  0.17703898  1
  H+  H14  1  0.74975797  0.86705128  0.48621972  1
  H+  H15  1  0.16665644  0.12913575  0.96801997  1
  H+  H16  1  0.27043677  0.06156105  0.42828079  1
  H+  H17  1  0.01070936  0.20870531  0.36336331  1
  H+  H18  1  0.11679333  0.83870174  0.25587622  1
  H+  H19  1  0.51633987  0.38105060  0.15222067  1
  H+  H20  1  0.78240544  0.65125732  0.48196740  1
  H+  H21  1  0.62842552  0.86542678  0.50013059  1
  H+  H22  1  0.33758494  0.59101342  0.14509555  1
  H+  H23  1  0.50640700  0.63737149  0.51137358  1
  H+  H24  1  0.86078509  0.72425126  0.01760726  1
  H+  H25  1  0.61372680  0.85023617  0.84325039  1
  H+  H26  1  -0.03468920  0.86740386  0.00169151  1
  H+  H27  1  0.47878933  0.62288862  0.31560155  1
  H+  H28  1  0.62619485  0.25737540  0.51165407  1
  H+  H29  1  0.85858901  -0.01824763  0.14400042  1
  H+  H30  1  0.86356435  0.34095649  0.26208941  1
  H+  H31  1  0.61437482  0.97724384  0.32876234  1
  H+  H32  1  0.14292089  0.11328945  0.66227688  1
  H+  H33  1  0.47970920  0.12722554  -0.00828307  1
  H+  H34  1  0.37104298  0.75834867  0.49640951  1
  H+  H35  1  0.60191870  0.24348876  0.00894587  1
  H+  H36  1  0.76832780  0.61247930  0.29100927  1
  H+  H37  1  0.62801031  0.11159119  0.84457953  1
  H+  H38  1  0.98481735  0.11525050  0.16031021  1
  H+  H39  1  0.22167412  0.37318695  0.66283720  1
  H+  H40  1  0.46901637  0.21382810  0.75061243  1
  H+  H41  1  0.36955225  0.02843550  0.16777392  1
  H+  H42  1  0.73596275  0.34791596  0.66560870  1
  H+  H43  1  0.62929501  0.86388781  0.63662161  1
  H+  H44  1  0.85448533  0.42261381  0.19956086  1
  H+  H45  1  0.83404974  -0.02804758  0.83864566  1
  H+  H46  1  0.77462458  0.12678690  0.48397194  1
  H+  H47  1  0.37584211  0.49078981  0.33509972  1
  H+  H48  1  0.39487373  0.54802798  0.67708622  1
  H+  H49  1  0.62851288  0.11273688  0.31529530  1
  H+  H50  1  0.86770190  0.23106060  0.67542628  1
  H+  H51  1  0.61353374  0.22662912  0.17684706  1
  H+  H52  1  0.22913865  0.36675740  0.16586886  1
  H+  H53  1  0.66086265  0.08867575  0.90453658  1
  H+  H54  1  0.32866417  0.49474710  0.52699520  1
  H+  H55  1  0.60625809  0.12928922  0.67894559  1
  H+  H56  1  0.36154801  0.99073465  0.34023648  1
  H+  H57  1  0.23827987  0.53290653  0.59663162  1
  H+  H58  1  0.11948509  0.63690354  0.34101159  1
  H+  H59  1  0.60885122  0.21752278  0.68195010  1
  H+  H60  1  0.63782277  0.57558424  0.01693376  1
  H+  H61  1  -0.01034422  0.62296416  0.67926231  1
  H+  H62  1  0.40284595  0.45070312  0.84158102  1
  H+  H63  1  1.12336654  0.88091171  0.31875036  1
  H+  H64  1  0.76898628  0.89543313  0.14772179  1
  H+  H65  1  0.02879445  0.88956855  0.48132607  1
  H+  H66  1  0.25432118  0.11453344  0.67865279  1
  H+  H67  1  0.61336286  0.98779976  0.00773618  1
  H+  H68  1  0.82479706  0.18431147  0.16295317  1
  H+  H69  1  0.11115012  0.13937836  0.49180361  1
  H+  H70  1  0.60729550  0.55269821  0.25992946  1
  H+  H71  1  0.35923817  0.89095352  0.49911726  1
  H+  H72  1  0.09857050  0.47030790  0.48301381  1
  H+  H73  1  0.44801020  0.84830171  0.47230655  1
  H+  H74  1  0.87597159  0.52426382  0.81655825  1
  H+  H75  1  0.46518359  0.11799444  0.16179812  1
  H+  H76  1  0.48363405  0.34975430  0.98864945  1
  H+  H77  1  0.47783007  0.61313390  0.16175164  1
  H+  H78  1  0.20554217  0.08370134  0.86417163  1
  H+  H79  1  0.79174451  0.40116700  0.50528411  1
  H+  H80  1  1.01841357  0.13219019  0.48840741  1
  H+  H81  1  0.36958023  0.18803280  0.70846881  1
  H+  H82  1  0.63243991  0.86684240  0.32136990  1
  H+  H83  1  0.55735944  0.10649689  0.13615938  1
  H+  H84  1  0.89935011  0.16418214  0.15860464  1
  H+  H85  1  0.88178634  0.10646029  0.48575214  1
  H+  H86  1  0.84966477  0.63929390  0.81816109  1
  H+  H87  1  0.12183324  0.88837896  0.66452205  1
  H+  H88  1  0.58705628  0.58920923  0.32069411  1
  H+  H89  1  0.43397755  0.10578318  0.55709654  1
  H+  H90  1  0.03380051  0.89130643  0.65565809  1
  H+  H91  1  0.59649877  0.40571512  0.75062809  1
  H+  H92  1  0.50797946  0.13720604  0.32815738  1
  H+  H93  1  0.11646930  0.62430253  0.00502033  1
  H+  H94  1  0.68932744  0.76991082  0.49842067  1
  H+  H95  1  0.27724024  0.63560229  0.32315062  1
  H+  H96  1  0.16964128  0.33551790  0.59914894  1
  H+  H97  1  0.27077467  0.89874855  1.00615321  1
  H+  H98  1  0.89462822  0.53534887  0.33352649  1
  H+  H99  1  0.74200496  0.13734306  0.65737787  1
  H+  H100  1  0.32461540  0.17536763  0.83069790  1
  H+  H101  1  0.10975823  0.37803082  0.16347928  1
  H+  H102  1  0.63613857  0.13127025  0.99713845  1
  H+  H103  1  0.61940390  0.36160152  0.69323118  1
  H+  H104  1  0.34277559  0.09543149  0.83662067  1
  H+  H105  1  0.71658663  0.36496576  0.33681265  1
  H+  H106  1  0.22070290  0.10451420  0.49981175  1
  H+  H107  1  0.59249542  0.45945022  0.50766437  1
  H+  H108  1  0.13684867  0.36851506  0.00718171  1
  H+  H109  1  0.47833034  0.11065171  0.49396432  1
  H+  H110  1  0.35171196  0.11134265  0.47439977  1
  H+  H111  1  0.58875630  0.67887335  0.73279709  1
  H+  H112  1  0.49646846  0.65705108  0.48460440  1
  H+  H113  1  0.89271403  0.77608944  0.48937700  1
  H+  H114  1  0.10338280  0.46976977  0.01065990  1
  H+  H115  1  0.24167250  0.14364813  0.31323480  1
  H+  H116  1  -0.04480502  0.36697756  -0.00478885  1
  H+  H117  1  0.88984317  0.24051182  0.33104598  1
  H+  H118  1  0.88667276  0.77165780  0.84633379  1
  H+  H119  1  0.67193446  0.05008861  0.16731745  1
  H+  H120  1  0.89829484  0.53442169  0.68162454  1
  H+  H121  1  0.11257563  0.82555480  0.99084576  1
  H+  H122  1  0.79496605  0.96602807  0.74521568  1
  H+  H123  1  0.97354582  0.09582922  0.32096726  1
  H+  H124  1  0.47775377  0.60174203  0.83099097  1
  H+  H125  1  0.42225260  0.58466105  0.22393728  1
  H+  H126  1  0.91421682  0.66397276  0.34317888  1
  H+  H127  1  0.46078878  0.10328980  0.83888152  1
  H+  H128  1  0.35842507  0.62919289  0.82190867  1
  H+  H129  1  0.17186435  0.10145901  0.22067096  1
  H+  H130  1  0.48485868  0.97880020  0.21629556  1
  H+  H131  1  0.97551982  0.11382285  0.65109770  1
  H+  H132  1  0.40714931  0.33241904  0.83809713  1
  H+  H133  1  0.12493500  0.23097598  0.67062106  1
  H+  H134  1  0.97085839  0.35557225  0.50235827  1
  H+  H135  1  0.95827958  0.11980382  0.86850073  1
  H+  H136  1  0.52573724  0.88843192  0.33374454  1
  H+  H137  1  0.64095477  0.29226373  0.23404692  1
  H+  H138  1  0.60915556  0.63522579  0.15140265  1
  H+  H139  1  0.34914916  0.34565384  0.69924927  1
  H+  H140  1  0.37290452  0.00355059  0.84719900  1
  H+  H141  1  0.72097168  0.63456513  0.83706254  1
  H+  H142  1  0.86933258  0.88818688  0.71729742  1
  H+  H143  1  0.14761691  0.13143958  0.31730453  1
  H+  H144  1  0.68352626  0.14394309  0.17392340  1
  H+  H145  1  0.14095761  0.86756393  0.50894908  1
  H+  H146  1  0.87177701  0.63939840  0.01442970  1
  H+  H147  1  0.88203155  0.28102865  0.83950590  1
  H+  H148  1  0.17612216  0.01634706  0.35064465  1
  H+  H149  1  0.12741617  0.73259918  0.15770056  1
  H+  H150  1  0.11085878  0.96659143  0.81024079  1
  H+  H151  1  0.76396725  0.53683543  0.12603566  1
  H+  H152  1  0.14575008  0.62286983  0.84065660  1
  H+  H153  1  0.94694758  0.37800685  0.30436227  1
  H+  H154  1  0.22498647  0.12221505  0.15913876  1
  H+  H155  1  0.87388320  0.56190614  0.17569796  1
  H+  H156  1  0.13822762  0.61694191  0.17119299  1
  H+  H157  1  0.12267198  0.71585580  1.00313334  1
  H+  H158  1  0.61543368  0.74178005  0.34143463  1
  H+  H159  1  0.10840419  0.98312656  0.16217281  1
  H+  H160  1  0.54544693  0.86506977  0.52305686  1
  H+  H161  1  0.89316660  0.10414489  0.31859963  1
  H+  H162  1  0.37304521  0.26335353  0.47946199  1
  H+  H163  1  0.46073885  0.35116645  0.47413587  1
  H+  H164  1  0.39028651  0.38755063  0.69553643  1
  H+  H165  1  0.91431061  0.32575956  0.56438012  1
  H+  H166  1  0.11893556  0.51867306  0.17700443  1
  H+  H167  1  0.38383107  0.87050488  0.33139553  1
  H+  H168  1  0.84722422  0.38748819  0.34260822  1
  H+  H169  1  0.85941731  0.22041664  0.48919971  1
  H+  H170  1  0.36372778  0.47583063  0.15731895  1
  H+  H171  1  0.08836869  0.66556414  0.40046480  1
  H+  H172  1  0.64859529  0.62862774  0.49039997  1
  H+  H173  1  0.67172639  0.19533565  0.44161019  1
  H+  H174  1  0.76522590  0.65234619  0.29431838  1
  H+  H175  1  0.36272428  0.13693918  -0.00988961  1
  H+  H176  1  0.12280427  0.60960261  0.50237165  1
  H+  H177  1  0.24783921  0.59096473  0.14696320  1
  H+  H178  1  0.27434136  0.90830309  0.35558043  1
  H+  H179  1  -0.02321124  0.61313243  0.00473053  1
  H+  H180  1  0.60205407  0.63319911  0.82841134  1
  H+  H181  1  0.72576751  0.36257331  0.84465267  1
  H+  H182  1  0.58785327  0.71615377  0.83204753  1
  H+  H183  1  0.84377716  0.39761618  0.01047579  1
  H+  H184  1  0.61688140  0.66354325  -0.03207636  1
  H+  H185  1  0.38427461  0.77198228  0.84128775  1
  H+  H186  1  0.11425059  0.23390992  0.14374280  1
  H+  H187  1  0.97158633  0.36946320  0.83695370  1
  H+  H188  1  0.66723019  0.34012751  0.90616183  1
  H+  H189  1  0.35925404  0.96754557  0.66007907  1
  H+  H190  1  0.11651764  0.14679978  0.14304326  1
  H+  H191  1  0.86841854  0.98024398  0.44491419  1
  H+  H192  1  0.67118849  0.66538258  0.65107209  1
  H+  H193  1  0.11809548  0.46553002  0.66329685  1
  H+  H194  1  0.75562385  0.65668377  0.64512917  1
  H+  H195  1  0.38142178  0.12331070  0.31504449  1
  H+  H196  1  0.13884191  1.02011327  0.65710442  1
  H+  H197  1  0.58315090  0.49906115  0.68497265  1
  H+  H198  1  0.53992757  0.23854870  0.53625877  1
  H+  H199  1  0.38267931  0.09535927  0.65317755  1
  H+  H200  1  0.87577875  0.64587177  0.67591125  1
  H+  H201  1  0.75818859  0.40283487  0.01399818  1
  H+  H202  1  0.33367397  0.62378846  0.50969576  1
  H+  H203  1  0.89811854  0.86297931  0.63833500  1
  H+  H204  1  0.33009332  0.75692303  0.17575661  1
  H+  H205  1  0.04792318  0.63828923  0.85623929  1
  H+  H206  1  0.88495088  0.73731938  0.66335003  1
  H+  H207  1  0.14899116  0.29368940  0.86151007  1
  H+  H208  1  0.88337019  0.85790421  0.33423748  1
  H+  H209  1  0.13481282  0.86804505  0.16456001  1
  H+  H210  1  0.87084244  0.18480309  0.39154856  1
  H+  H211  1  0.72531383  0.86910563  0.99113020  1
  H+  H212  1  0.38792993  0.26947812  0.98286148  1
  H+  H213  1  0.91546133  0.82552565  0.94043687  1
  H+  H214  1  0.96047985  0.61448851  0.80640165  1
  H+  H215  1  0.91297344  0.76302306  0.19795208  1
  H+  H216  1  0.29221653  0.39847984  0.33549527  1
  H+  H217  1  0.47613289  0.10649700  0.65644083  1
  H+  H218  1  0.59739705  0.95180929  0.67865946  1
  H+  H219  1  0.63133911  0.78366701  0.99910619  1
  H+  H220  1  0.07831534  0.18501365  0.92632402  1
  H+  H221  1  0.74677590  0.88401711  0.82981512  1
  H+  H222  1  0.88184532  0.53120674  1.00506197  1
  H+  H223  1  0.50138803  0.30647697  0.71728777  1
  H+  H224  1  0.10396077  0.38394442  0.48783119  1
  H+  H225  1  0.22703971  0.86392024  0.66161025  1
  H+  H226  1  0.37902374  0.20687353  0.10348424  1
  H+  H227  1  0.85634479  0.13714120  0.67870223  1
  H+  H228  1  0.57028692  0.53257353  0.68162895  1
  H+  H229  1  0.36991528  0.91189992  0.15706322  1
  H+  H230  1  0.37815095  0.25133242  0.33016385  1
  H+  H231  1  0.40971259  0.37968675  0.32924919  1
  H+  H232  1  0.34726006  0.38182928  0.48099227  1
  H+  H233  1  0.63181461  0.11576935  0.48432185  1
  H+  H234  1  0.73459139  0.59641940  1.01054437  1
  H+  H235  1  0.62860719  0.39861448  0.84225857  1
  H+  H236  1  0.47908355  0.85755487  0.99425540  1
  H+  H237  1  0.62261519  0.27877124  0.33587048  1
  H+  H238  1  0.63306425  0.40282773  0.34753794  1
  H+  H239  1  0.35298776  0.87782248  0.66412398  1
  H+  H240  1  0.59224838  0.36973687  0.49947462  1
  H+  H241  1  0.84718637  0.88007131  -0.00202065  1
  H+  H242  1  0.24162893  0.59708951  0.64565900  1
  H+  H243  1  0.38792014  0.62077567  0.31203675  1
  H+  H244  1  0.38321705  0.36555170  0.17303753  1
  H+  H245  1  0.26772463  0.49452717  0.72246070  1
  H+  H246  1  0.11179097  0.72891924  0.68880456  1
  H+  H247  1  0.91485265  0.77719903  0.34217781  1
  H+  H248  1  0.11293872  0.39567621  0.82675065  1
  H+  H249  1  0.11874886  0.73451571  0.49839204  1
  H+  H250  1  0.13106524  0.75319205  0.84408261  1
  H+  H251  1  0.63302289  0.77650091  0.16579619  1
  H+  H252  1  0.36340651  0.13856678  0.15572120  1
  H+  H253  1  0.37580717  0.65186236  0.67330207  1
  H+  H254  1  0.10209145  0.37308462  0.67202359  1
  H+  H255  1  0.87816334  0.35428230  0.65576943  1
  H+  H256  1  0.82706650  0.85603540  0.70328233  1
  H+  H257  1  0.70249426  0.59266834  0.17536805  1
  H+  H258  1  0.60287964  0.22456248  0.83284664  1
  H+  H259  1  0.23657228  0.38432809  0.85032124  1
  H+  H260  1  0.51722047  0.88470388  0.83246690  1
  H+  H261  1  0.51365031  0.92329506  0.17883274  1
  H+  H262  1  0.13127493  0.84690142  0.83895668  1
  H+  H263  1  0.32460186  0.46370625  0.75477282  1
  H+  H264  1  0.60436614  0.48578932  0.33919356  1
  H+  H265  1  0.87394434  0.39066106  0.50049508  1
  H+  H266  1  0.03743315  0.35517516  0.32967496  1
  H+  H267  1  0.38726941  0.51437260  0.99036150  1
  H+  H268  1  0.61266989  0.51199699  0.16512961  1
  H+  H269  1  0.16522854  0.38653698  0.31975513  1
  H+  H270  1  0.12690696  0.94875098  0.00949517  1
  H+  H271  1  0.64489967  -0.00166656  0.50888075  1
  H+  H272  1  0.37993193  0.77008522  0.65131111  1
  H+  H273  1  0.02656538  0.64976227  0.50218465  1
  H+  H274  1  0.62277543  0.90253724  0.15867552  1
  H+  H275  1  0.32754923  0.43018692  0.43106084  1
  H+  H276  1  0.98001692  0.85244336  0.84502206  1
  H+  H277  1  0.72297102  0.12539288  0.99127555  1
  H+  H278  1  0.89795424  0.53415724  0.52095517  1
  H+  H279  1  0.22523478  0.87190567  0.16938110  1
  H+  H280  1  0.83762617  0.43645244  0.64009724  1
  H+  H281  1  0.36091577  0.62753945  -0.00343088  1
  H+  H282  1  0.54676664  0.41226589  0.84121466  1
  H+  H283  1  0.35633919  0.73880225  0.18867604  1
  H+  H284  1  0.61911224  0.90106360  0.00758331  1
  H+  H285  1  0.11250226  0.97907017  0.49690771  1
  H+  H286  1  0.74936281  0.93797668  0.68118684  1
  H+  H287  1  0.99252856  0.61652353  0.33040677  1
  H+  H288  1  0.32847789  0.92790662  0.09589194  1
  H+  H289  1  0.92743974  0.84146791  0.57600925  1
  H+  H290  1  0.21683110  0.36278584  0.50218720  1
  H+  H291  1  0.95540300  0.30208455  0.17533733  1
  H+  H292  1  0.40490691  0.08501298  0.25730493  1
  H+  H293  1  0.33483135  0.17667507  0.38270084  1
  H+  H294  1  0.40288155  0.82362647  0.58874599  1
  H+  H295  1  0.15932456  0.82301251  0.92903286  1
  H+  H296  1  0.29380921  0.10951095  0.74930959  1
  H+  H297  1  0.43103817  0.34797077  0.26799044  1
  H+  H298  1  0.49166642  0.62761246  0.66413224  1
  H+  H299  1  0.43144837  0.36181640  0.90732968  1
  H+  H300  1  0.36070262  0.38211436  0.00675561  1
  H+  H301  1  0.81527959  0.63035698  0.10145149  1
  H+  H302  1  0.44697071  0.34584595  0.59460514  1
  H+  H303  1  0.90315015  0.34859126  0.93443662  1
  H+  H304  1  0.67585724  0.07244919  0.56057829  1
  H+  H305  1  0.90250830  0.06298456  0.54073629  1
  H+  H306  1  0.08105612  0.41846253  0.76506087  1
  H+  H307  1  0.86189867  0.63668511  0.50457615  1
  H+  H308  1  0.92684364  0.83595425  0.27372727  1
  H+  H309  1  0.14558580  0.95519758  0.40921153  1
  H+  H310  1  0.17140004  0.33314255  0.22549969  1
  H+  H311  1  0.09084767  0.17222897  0.72932348  1
  H+  H312  1  0.40533413  0.34435126  0.58757748  1
  H+  H313  1  0.07047257  0.92639628  0.10388641  1
  H+  H314  1  0.55059874  0.68442141  0.39459197  1
  H+  H315  1  0.89321687  0.86375270  0.47441252  1
  H+  H316  1  0.22593947  0.60151221  -0.01010477  1
  H+  H317  1  0.33878280  0.93392329  0.44487141  1
  H+  H318  1  0.97236914  0.36063668  0.65715253  1
  H+  H319  1  0.92347713  0.59149780  0.58147340  1
  H+  H320  1  0.64183986  0.54207818  0.84497324  1
  H+  H321  1  0.58031844  0.39855087  0.09628223  1
  H+  H322  1  0.65999352  0.67279825  0.42522690  1
  H+  H323  1  0.76578638  0.14176696  0.83294698  1
  H+  H324  1  0.25804719  0.63513271  0.48738200  1
  H+  H325  1  0.16401476  0.82981005  0.60411619  1
  H+  H326  1  0.72016574  0.86327286  0.32768192  1
  H+  H327  1  0.16537731  0.57370844  0.93175927  1
  H+  H328  1  0.65175321  0.31122664  0.61576054  1
  H+  H329  1  0.36366417  0.72711378  0.32371773  1
  H+  H330  1  0.52105806  0.62431259  -0.00846600  1
  H+  H331  1  0.08139407  0.16564164  0.04928496  1
  H+  H332  1  0.10084253  0.66979473  0.09981889  1
  H+  H333  1  0.08445129  0.67086947  0.74968641  1
  H+  H334  1  0.68529451  0.83564098  0.59660874  1
  H+  H335  1  0.83254926  0.42396142  0.40513071  1
  H+  H336  1  0.41769507  0.08658311  0.93243388  1
  H+  H337  1  0.07199416  0.18869159  0.40401092  1
  H+  H338  1  0.58837815  0.66906787  0.09032431  1
  H+  H339  1  0.08058644  0.90548306  0.75386738  1
  H+  H340  1  0.56402996  0.17386049  0.06485296  1
  H+  H341  1  0.82228424  0.91966842  0.05324432  1
  H+  H342  1  0.98145741  0.85949040  0.18604210  1
  H+  H343  1  0.41616701  0.82551870  0.90407083  1
  H+  H344  1  0.41224339  0.56683312  0.92716957  1
  H+  H345  1  0.87622143  0.04336743  0.66008192  1
  H+  H346  1  0.82816897  0.68282111  0.76448289  1
  H+  H347  1  0.06984108  0.40675945  0.39227312  1
  H+  H348  1  0.71072373  0.18505823  0.61451105  1
  H+  H349  1  0.17261602  0.09034767  0.56422090  1
  H+  H350  1  0.37432883  0.55981592  0.58360475  1
  H+  H351  1  0.26678027  0.87983863  0.84514176  1
  H+  H352  1  0.35870746  -0.01026162  1.00714431  1
  H+  H353  1  0.33288990  0.41434287  0.09902859  1
  H+  H354  1  0.09630345  0.01511108  1.02149502  1
  H+  H355  1  0.31758023  0.63566403  0.05697993  1
  H+  H356  1  0.57487052  0.16339273  0.77322022  1
  H+  H357  1  0.59706979  0.93677525  0.09911632  1
  H+  H358  1  0.82194715  0.40790218  0.75642051  1
  H+  H359  1  0.23173729  0.87156806  0.51152342  1
  H+  H360  1  0.33273496  0.67156872  0.73000522  1
  H+  H361  1  0.65117164  0.58819782  0.57837718  1
  H+  H362  1  0.86756160  0.08507307  0.93997960  1
  H+  H363  1  0.17355908  0.35720775  0.94546520  1
  H+  H364  1  0.85848142  0.38977861  0.81758450  1
  H+  H365  1  0.66281697  0.83213569  0.22696436  1
  H+  H366  1  0.68043985  0.09308837  0.26604173  1
  H+  H367  1  0.92665028  0.07846317  0.22036270  1
  H+  H368  1  0.64500694  0.82161792  0.90292633  1
  H+  H369  1  0.51413189  0.88420011  0.64310273  1
  H+  H370  1  0.82596649  0.16905826  0.77339914  1
  H+  H371  1  0.16486216  0.58417309  0.26172710  1
  H+  H372  1  0.55232400  0.53900031  0.55767659  1
  H+  H373  1  0.60316478  0.43840225  0.40956554  1
  H+  H374  1  0.86439549  -0.02727208  0.34804605  1
  H+  H375  1  0.30062408  0.14990971  0.03565489  1
  H+  H376  1  0.06426302  0.41027193  0.06970669  1
  H+  H377  1  0.91688143  0.56094126  0.23713639  1
  H+  H378  1  0.77041263  0.32804365  0.20066223  1
  H+  H379  1  0.10280258  0.14587881  0.87289778  1
  H+  H380  1  0.42517318  0.86156508  0.27045955  1
  H+  H381  1  0.88058051  0.68919678  0.40628711  1
  H+  H382  1  0.56606724  0.15074824  0.38702397  1
  H+  H383  1  0.15930182  0.56958912  0.55279819  1
  O2-  O384  1  0.08497359  0.17480681  0.12622799  1
  O2-  O385  1  0.08056969  0.17002705  0.47834971  1
  O2-  O386  1  0.08015933  0.18472191  0.88131307  1
  O2-  O387  1  0.06992480  0.40127682  0.15417630  1
  O2-  O388  1  0.06964051  0.40824530  0.46982697  1
  O2-  O389  1  0.08030726  0.42229114  0.81019561  1
  O2-  O390  1  0.10520139  0.67215089  0.14487756  1
  O2-  O391  1  0.08467755  0.67329520  0.48437258  1
  O2-  O392  1  0.09331076  0.66855998  0.82631829  1
  O2-  O393  1  0.07679882  0.92227868  0.14826317  1
  O2-  O394  1  0.09264304  0.92219369  0.47744459  1
  O2-  O395  1  0.08306284  0.90602590  0.79943561  1
  O2-  O396  1  0.33928023  0.17523899  0.13630171  1
  O2-  O397  1  0.30357832  0.11386029  0.45423206  1
  O2-  O398  1  0.29620085  0.11396221  0.82216912  1
  O2-  O399  1  0.33058271  0.41373664  0.14461755  1
  O2-  O400  1  0.31805708  0.41626866  0.47559841  1
  O2-  O401  1  0.36826715  0.47635220  0.82515705  1
  O2-  O402  1  0.29071564  0.58820936  0.11990509  1
  O2-  O403  1  0.32152199  0.66257255  0.48491402  1
  O2-  O404  1  0.33197005  0.66227628  0.80684750  1
  O2-  O405  1  0.32780135  0.92774141  0.14260073  1
  O2-  O406  1  0.33510102  0.92861428  0.48973113  1
  O2-  O407  1  0.32904778  0.91607421  0.83483840  1
  O2-  O408  1  0.54460671  0.15303838  0.13409604  1
  O2-  O409  1  0.61971617  0.15999611  0.46506553  1
  O2-  O410  1  0.56835780  0.16412016  0.81828824  1
  O2-  O411  1  0.57693916  0.41499804  0.13843557  1
  O2-  O412  1  0.57516158  0.40907655  0.48018123  1
  O2-  O413  1  0.60507656  0.43409892  0.82428528  1
  O2-  O414  1  0.58434129  0.67036418  0.13489431  1
  O2-  O415  1  0.68752340  0.67967877  0.46514862  1
  O2-  O416  1  0.56240884  0.65632626  0.81339078  1
  O2-  O417  1  0.60271805  0.94265389  0.14500482  1
  O2-  O418  1  0.59361319  0.89404768  0.49500217  1
  O2-  O419  1  0.57795321  0.91097535  0.81816053  1
  O2-  O420  1  0.88522820  0.21017181  0.15068595  1
  O2-  O421  1  0.83462847  0.16345244  0.46855536  1
  O2-  O422  1  0.82702721  0.17217784  0.81861725  1
  O2-  O423  1  0.83404349  0.36015899  0.20506084  1
  O2-  O424  1  0.84965735  0.42898838  0.48866455  1
  O2-  O425  1  0.82331205  0.41466644  0.80136325  1
  O2-  O426  1  0.79493470  0.59600227  0.14070452  1
  O2-  O427  1  0.84401396  0.67121866  0.47907283  1
  O2-  O428  1  0.82296012  0.67569584  0.80922242  1
  O2-  O429  1  0.82557168  0.92270206  0.12760164  1
  O2-  O430  1  0.84271103  0.91823087  0.43246348  1
  O2-  O431  1  0.80266303  0.92381797  0.81039798  1
  O2-  O432  1  0.16601436  0.09518643  0.17554128  1
  O2-  O433  1  0.16420656  0.08722910  0.51955109  1
  O2-  O434  1  0.14982977  0.07439570  0.88111581  1
  O2-  O435  1  0.16765223  0.33400194  0.18047302  1
  O2-  O436  1  0.15835776  0.33472225  0.52170888  1
  O2-  O437  1  0.17573502  0.35747336  0.86121414  1
  O2-  O438  1  0.16042588  0.57814703  0.18877922  1
  O2-  O439  1  0.14820822  0.57140346  0.50872020  1
  O2-  O440  1  0.17561526  0.58858780  0.85283561  1
  O2-  O441  1  0.16349840  0.83750755  0.18123109  1
  O2-  O442  1  0.17000162  0.83685099  0.52511661  1
  O2-  O443  1  0.16040025  0.82012021  0.85985994  1
  O2-  O444  1  0.40182316  0.08893073  0.18363642  1
  O2-  O445  1  0.44818137  0.13458870  0.51630087  1
  O2-  O446  1  0.40144759  0.07161434  0.85592573  1
  O2-  O447  1  0.41548754  0.33742696  0.18902216  1
  O2-  O448  1  0.39767861  0.32365413  0.46911099  1
  O2-  O449  1  0.43965071  0.38324949  0.86312734  1
  O2-  O450  1  0.41882867  0.57820847  0.17855992  1
  O2-  O451  1  0.32630694  0.53808259  0.55397356  1
  O2-  O452  1  0.41049734  0.56560487  0.84808189  1
  O2-  O453  1  0.46294419  0.92063391  0.20118847  1
  O2-  O454  1  0.40633989  0.82380152  0.50531595  1
  O2-  O455  1  0.41293040  0.83089324  0.85797979  1
  O2-  O456  1  0.70702004  0.10786276  0.18659427  1
  O2-  O457  1  0.67387191  0.06240984  0.51602755  1
  O2-  O458  1  0.66243568  0.08601773  0.85900326  1
  O2-  O459  1  0.66199508  0.26552077  0.20552396  1
  O2-  O460  1  0.60102782  0.28575915  0.53556562  1
  O2-  O461  1  0.66591013  0.33348358  0.86111535  1
  O2-  O462  1  0.64073388  0.57095840  0.18464256  1
  O2-  O463  1  0.60849299  0.54970110  0.54434442  1
  O2-  O464  1  0.66086994  0.60329917  0.85302943  1
  O2-  O465  1  0.66100714  0.83611093  0.18204524  1
  O2-  O466  1  0.69981666  0.82763646  0.51114640  1
  O2-  O467  1  0.63862236  0.81346425  0.85783054  1
  O2-  O468  1  0.92475428  0.08591861  0.17621201  1
  O2-  O469  1  0.90793466  0.06973607  0.49601384  1
  O2-  O470  1  0.89514324  0.08674814  0.87209486  1
  O2-  O471  1  1.00099754  0.35543768  0.19826244  1
  O2-  O472  1  0.91049673  0.32608690  0.51858132  1
  O2-  O473  1  0.91069243  0.34326761  0.85007207  1
  O2-  O474  1  0.90037552  0.53293355  0.19673511  1
  O2-  O475  1  0.91985308  0.59353037  0.53616394  1
  O2-  O476  1  0.90355337  0.58701850  0.82504351  1
  O2-  O477  1  0.92448351  0.82115453  0.20551331  1
  O2-  O478  1  0.92225675  0.83934961  0.49847615  1
  O2-  O479  1  0.92541190  0.82692511  0.86727383  1
  O2-  O480  1  0.17952813  0.10569800  0.30037008  1
  O2-  O481  1  0.17445490  0.08422660  0.64674736  1
  O2-  O482  1  0.14532379  0.12075687  1.01022389  1
  O2-  O483  1  0.18581567  0.34707092  0.30753047  1
  O2-  O484  1  0.16641501  0.32998334  0.64479638  1
  O2-  O485  1  0.17361093  0.34677453  0.98944278  1
  O2-  O486  1  0.16936998  0.58548732  0.30780813  1
  O2-  O487  1  0.19999187  0.54754104  0.62019440  1
  O2-  O488  1  0.16390714  0.57035148  0.97714187  1
  O2-  O489  1  0.08214718  0.84539308  0.28779459  1
  O2-  O490  1  0.16354490  0.83379604  0.64941224  1
  O2-  O491  1  0.16281637  0.82438291  0.97608940  1
  O2-  O492  1  0.40670815  0.08679197  0.30350252  1
  O2-  O493  1  0.42070470  0.07875125  0.63296055  1
  O2-  O494  1  0.41765821  0.09330488  0.97745161  1
  O2-  O495  1  0.43471908  0.34553890  0.31304217  1
  O2-  O496  1  0.44475554  0.24546484  0.73091795  1
  O2-  O497  1  0.42466645  0.33328308  0.97505961  1
  O2-  O498  1  0.42005058  0.58843667  0.29994330  1
  O2-  O499  1  0.42933553  0.59966703  0.65186067  1
  O2-  O500  1  0.41921032  0.57351270  0.97211739  1
  O2-  O501  1  0.41373601  0.84205281  0.31345182  1
  O2-  O502  1  0.40848827  0.82935583  0.63342588  1
  O2-  O503  1  0.42215652  0.82310911  0.97509871  1
  O2-  O504  1  0.66095697  0.08255572  0.30897769  1
  O2-  O505  1  0.69077383  0.12826841  0.63185853  1
  O2-  O506  1  0.66082537  0.09593672  0.98160035  1
  O2-  O507  1  0.65505277  0.34105006  0.32473391  1
  O2-  O508  1  0.66548971  0.31231626  0.65924647  1
  O2-  O509  1  0.64495364  0.34680035  0.98713032  1
  O2-  O510  1  0.58104089  0.53713597  0.30149293  1
  O2-  O511  1  0.70819988  0.65679261  0.62166039  1
  O2-  O512  1  0.67307341  0.55311363  1.00066056  1
  O2-  O513  1  0.66227417  0.83197612  0.30982056  1
  O2-  O514  1  0.66822115  0.83865125  0.63875841  1
  O2-  O515  1  0.66001564  0.84065556  0.98007542  1
  O2-  O516  1  0.91301752  0.06294680  0.30777167  1
  O2-  O517  1  0.91856982  0.09018959  0.63220076  1
  O2-  O518  1  0.84914371  0.08663434  0.98464638  1
  O2-  O519  1  0.88641770  0.33376595  0.30511247  1
  O2-  O520  1  0.91293393  0.32605657  0.64083773  1
  O2-  O521  1  0.89767783  0.34952662  0.97902690  1
  O2-  O522  1  0.93065150  0.59278832  0.31536341  1
  O2-  O523  1  0.92735301  0.59039283  0.66120943  1
  O2-  O524  1  0.91717714  0.59260787  0.99129735  1
  O2-  O525  1  0.92461039  0.83992746  0.32079493  1
  O2-  O526  1  0.93258373  0.83993952  0.62133154  1
  O2-  O527  1  0.90793822  0.82667764  0.98603522  1
  O2-  O528  1  0.07928998  0.14584928  0.00587505  1
  O2-  O529  1  0.06041050  0.19913925  0.36100613  1
  O2-  O530  1  0.09520687  0.16945270  0.68531886  1
  O2-  O531  1  0.06996360  0.40903227  0.02521896  1
  O2-  O532  1  0.07747546  0.41121548  0.34683422  1
  O2-  O533  1  0.07870081  0.41051411  0.68459506  1
  O2-  O534  1  0.09036699  0.65803053  0.02155269  1
  O2-  O535  1  0.08565456  0.66329494  0.35568655  1
  O2-  O536  1  0.07885656  0.66926836  0.70417809  1
  O2-  O537  1  0.07812892  0.95240914  0.02490540  1
  O2-  O538  1  0.19221062  0.98325555  0.37819914  1
  O2-  O539  1  0.09063167  0.92146210  0.67639894  1
  O2-  O540  1  0.32709406  0.16644857  -0.00438216  1
  O2-  O541  1  0.33926114  0.18616997  0.33828692  1
  O2-  O542  1  0.30886521  0.12423554  0.70421962  1
  O2-  O543  1  0.33520090  0.41592600  0.02221292  1
  O2-  O544  1  0.34974649  0.43262135  0.35453627  1
  O2-  O545  1  0.29948165  0.46479025  0.71437153  1
  O2-  O546  1  0.32951590  0.65538720  0.01278258  1
  O2-  O547  1  0.34001258  0.66529776  0.33202817  1
  O2-  O548  1  0.33480280  0.67206016  0.68428341  1
  O2-  O549  1  0.32727617  0.93181584  0.02588740  1
  O2-  O550  1  0.33608161  0.93351388  0.36137779  1
  O2-  O551  1  0.32482593  0.91014145  0.67824328  1
  O2-  O552  1  0.57607732  0.18034869  0.01883916  1
  O2-  O553  1  0.56860142  0.16773603  0.34431311  1
  O2-  O554  1  0.57209906  0.15454391  0.69485186  1
  O2-  O555  1  0.59487772  0.38551216  0.01087193  1
  O2-  O556  1  0.62794430  0.45395700  0.36710713  1
  O2-  O557  1  0.57817338  0.37934532  0.70908880  1
  O2-  O558  1  0.58346717  0.65667903  0.00459607  1
  O2-  O559  1  0.58572876  0.68198629  0.36169434  1
  O2-  O560  1  0.59276447  0.68157711  0.68765972  1
  O2-  O561  1  0.58743122  0.92886801  0.02507683  1
  O2-  O562  1  0.58819992  0.91572085  0.34143159  1
  O2-  O563  1  0.57853693  0.91808238  0.64145372  1
  O2-  O564  1  0.83514496  0.15184057  -0.01004851  1
  O2-  O565  1  0.90237545  0.19891248  0.35226370  1
  O2-  O566  1  0.83164723  0.17202350  0.69345554  1
  O2-  O567  1  0.81819933  0.43064928  0.02846925  1
  O2-  O568  1  0.82248722  0.42192782  0.36085182  1
  O2-  O569  1  0.82345809  0.39637275  0.67382723  1
  O2-  O570  1  0.83436662  0.66342014  0.03130448  1
  O2-  O571  1  0.90583647  0.70902290  0.36538424  1
  O2-  O572  1  0.84786025  0.68134371  0.68318108  1
  O2-  O573  1  0.81808111  0.91305261  0.00762940  1
  O2-  O574  1  0.83057206  0.91176819  0.36558841  1
  O2-  O575  1  0.79089836  0.98890598  0.70415802  1
