# generated using pymatgen
data_H2O
_symmetry_space_group_name_H-M   'P 1'
_cell_length_a   17.97108566
_cell_length_b   17.95008898
_cell_length_c   21.97457206
_cell_angle_alpha   89.93838518
_cell_angle_beta   89.99797331
_cell_angle_gamma   119.95843441
_symmetry_Int_Tables_number   1
_chemical_formula_structural   H2O
_chemical_formula_sum   'H384 O192'
_cell_volume   6141.48478812
_cell_formula_units_Z   192
loop_
 _symmetry_equiv_pos_site_id
 _symmetry_equiv_pos_as_xyz
  1  'x, y, z'
loop_
 _atom_type_symbol
 _atom_type_oxidation_number
  H+  1.0
  O2-  -2.0
loop_
 _atom_site_type_symbol
 _atom_site_label
 _atom_site_symmetry_multiplicity
 _atom_site_fract_x
 _atom_site_fract_y
 _atom_site_fract_z
 _atom_site_occupancy
  H+  H0  1  0.52790838  0.38048068  0.36185909  1
  H+  H1  1  0.86483630  0.63448481  0.34050803  1
  H+  H2  1  0.65186936  0.25091214  0.16061359  1
  H+  H3  1  0.33393235  0.16818321  0.40475135  1
  H+  H4  1  0.13973770  0.83399505  0.30797284  1
  H+  H5  1  0.63794263  0.29197124  0.99194584  1
  H+  H6  1  0.11914584  0.62576633  0.84900079  1
  H+  H7  1  0.72596001  0.36278746  0.33375933  1
  H+  H8  1  0.20848947  0.22523354  0.11246344  1
  H+  H9  1  0.85506773  0.64305006  0.15764605  1
  H+  H10  1  0.11663516  0.39756944  0.48652244  1
  H+  H11  1  0.60757854  0.38282054  0.67454671  1
  H+  H12  1  0.62342236  0.51176924  0.66531684  1
  H+  H13  1  0.87183664  0.11512990  0.84408234  1
  H+  H14  1  0.62565885  0.58783220  0.50752743  1
  H+  H15  1  0.38161198  0.36607236  0.84340211  1
  H+  H16  1  0.10987635  0.73971816  0.62732278  1
  H+  H17  1  0.18815847  0.58633787  0.63787435  1
  H+  H18  1  0.49212080  0.62260673  0.17728060  1
  H+  H19  1  0.38966765  0.77937029  0.31237976  1
  H+  H20  1  0.13197131  0.96245299  0.44248174  1
  H+  H21  1  0.63293006  0.61500211  0.83088317  1
  H+  H22  1  0.39356411  0.52775195  0.32806712  1
  H+  H23  1  0.88920468  0.26535368  0.17349203  1
  H+  H24  1  0.37339875  0.63984842  0.17409339  1
  H+  H25  1  0.62226712  0.89337394  0.49738489  1
  H+  H26  1  0.32083193  0.15362622  0.89759995  1
  H+  H27  1  0.47036481  0.36305635  0.84212054  1
  H+  H28  1  0.87615294  0.52888333  0.16916673  1
  H+  H29  1  0.47330061  0.34280174  0.66740803  1
  H+  H30  1  0.88383744  0.36132719  0.84410689  1
  H+  H31  1  0.61567058  0.45824939  0.50446354  1
  H+  H32  1  0.60850789  0.38243570  0.82998341  1
  H+  H33  1  0.13503128  0.02437638  0.32276651  1
  H+  H34  1  0.14449546  0.74092657  0.45907929  1
  H+  H35  1  0.53292019  0.64052589  0.34262727  1
  H+  H36  1  0.39221834  0.12290621  0.16571469  1
  H+  H37  1  0.12528507  0.47261809  0.32081605  1
  H+  H38  1  0.08896091  0.37188454  0.67632163  1
  H+  H39  1  0.63445081  0.12286340  0.50572059  1
  H+  H40  1  0.14357134  0.26752464  0.32695650  1
  H+  H41  1  0.63321259  0.36586910  0.18046937  1
  H+  H42  1  0.21980260  0.36000097  1.00516978  1
  H+  H43  1  0.73131316  0.11556717  0.33062586  1
  H+  H44  1  0.60951425  0.72426348  0.67929300  1
  H+  H45  1  0.17649371  0.82650051  0.55212339  1
  H+  H46  1  0.35610361  0.37851295  0.01369991  1
  H+  H47  1  0.37527800  0.72629967  0.47746116  1
  H+  H48  1  0.62004205  0.98364981  0.49638798  1
  H+  H49  1  0.11475715  0.47029172  0.17964819  1
  H+  H50  1  0.35868489  0.22861749  0.85050489  1
  H+  H51  1  0.10914955  0.13487202  0.34142952  1
  H+  H52  1  0.23593856  0.85440173  0.31255272  1
  H+  H53  1  0.26997251  0.12188884  0.49270387  1
  H+  H54  1  0.09483321  0.21764802  0.66572583  1
  H+  H55  1  0.64289758  0.77660853  0.33548216  1
  H+  H56  1  0.86269984  0.38529406  0.33592683  1
  H+  H57  1  0.28419302  0.64018589  0.47529328  1
  H+  H58  1  0.38891535  0.76883053  0.17287321  1
  H+  H59  1  0.73569782  0.86373811  0.33864768  1
  H+  H60  1  -0.01534124  0.37238697  0.66765838  1
  H+  H61  1  0.76684487  0.89044797  0.83202751  1
  H+  H62  1  0.09346455  0.70494615  0.00099236  1
  H+  H63  1  0.85778149  0.75444742  0.67528061  1
  H+  H64  1  0.12032159  0.28128228  0.50321343  1
  H+  H65  1  0.96877462  0.60018841  0.31493861  1
  H+  H66  1  0.61926975  0.14361983  0.82700790  1
  H+  H67  1  0.49012058  0.37642387  0.18844553  1
  H+  H68  1  0.86284935  0.22735560  0.83418911  1
  H+  H69  1  0.88038545  0.86709498  0.83483933  1
  H+  H70  1  0.14234241  0.77029822  0.85068791  1
  H+  H71  1  0.57879301  0.88924517  0.67899228  1
  H+  H72  1  0.11228797  -0.01998407  0.62067467  1
  H+  H73  1  0.64289994  0.12107226  -0.00422546  1
  H+  H74  1  0.82747071  0.87571956  0.68100462  1
  H+  H75  1  0.46842451  0.34672758  0.51313210  1
  H+  H76  1  0.39088975  0.88659014  0.01151617  1
  H+  H77  1  0.38992670  0.85985597  0.85703489  1
  H+  H78  1  0.63582823  0.27226127  0.33420859  1
  H+  H79  1  0.52610506  0.62230180  1.01631569  1
  H+  H80  1  0.86379995  0.47370626  0.82602915  1
  H+  H81  1  0.38193072  0.64062225  0.65597946  1
  H+  H82  1  0.61192062  0.47799255  0.16631628  1
  H+  H83  1  0.52930260  0.88578596  0.16299581  1
  H+  H84  1  0.87497924  0.60723902  0.65526564  1
  H+  H85  1  0.80478709  0.62445696  0.00519164  1
  H+  H86  1  0.17877965  0.83585205  1.01659320  1
  H+  H87  1  0.52457876  0.89025562  0.83889310  1
  H+  H88  1  0.36906494  0.63307313  0.84737782  1
  H+  H89  1  0.01554999  0.60938222  -0.00030283  1
  H+  H90  1  0.86908027  0.60267763  0.50123406  1
  H+  H91  1  0.96739371  0.61645130  0.64427604  1
  H+  H92  1  0.69711700  0.86065685  0.66667667  1
  H+  H93  1  0.22761646  0.60170121  0.85462814  1
  H+  H94  1  0.10163460  0.12654830  1.00143283  1
  H+  H95  1  0.62095835  0.63916250  0.34312369  1
  H+  H96  1  0.59725609  0.92137370  0.07054212  1
  H+  H97  1  0.93032669  0.65367828  0.98937865  1
  H+  H98  1  0.78456357  0.81193187  0.19590424  1
  H+  H99  1  0.12225861  0.07187159  0.49474772  1
  H+  H100  1  0.87604159  0.88039597  0.17668408  1
  H+  H101  1  0.72490409  0.38053733  0.99382257  1
  H+  H102  1  0.77596467  0.14017122  0.00901478  1
  H+  H103  1  0.87608983  0.01788992  0.50838757  1
  H+  H104  1  0.97761456  0.36132441  0.32154425  1
  H+  H105  1  0.87315896  0.39577981  0.49041551  1
  H+  H106  1  0.38209105  0.89094908  0.48122826  1
  H+  H107  1  0.74594188  0.90913633  0.19272624  1
  H+  H108  1  0.85909524  0.47679473  0.66956636  1
  H+  H109  1  0.61966739  0.88858207  0.16740027  1
  H+  H110  1  0.87036875  0.09969658  0.66029802  1
  H+  H111  1  0.63796333  0.76806535  -0.00338545  1
  H+  H112  1  0.24411886  0.61227807  0.29980112  1
  H+  H113  1  0.52389010  0.63721469  0.68039213  1
  H+  H114  1  0.14226025  0.36547405  0.18118119  1
  H+  H115  1  0.09262801  0.96275804  0.00580382  1
  H+  H116  1  0.40664562  0.28854931  0.20652124  1
  H+  H117  1  0.62928821  0.60455134  0.66325482  1
  H+  H118  1  0.63641904  0.89330668  0.34639936  1
  H+  H119  1  0.46038697  0.92295581  0.70555178  1
  H+  H120  1  0.86457061  0.72838618  0.82578530  1
  H+  H121  1  0.13352709  0.27784276  0.85079722  1
  H+  H122  1  0.10443731  0.37940593  0.02219070  1
  H+  H123  1  0.38951186  0.12136946  0.33014702  1
  H+  H124  1  0.12011181  0.61754797  0.62844062  1
  H+  H125  1  0.66255797  0.58443991  0.77531039  1
  H+  H126  1  -0.02660204  0.36627763  0.00473694  1
  H+  H127  1  0.22695776  0.10266002  0.67357806  1
  H+  H128  1  0.41053707  1.03188263  -0.00128518  1
  H+  H129  1  0.01640379  0.13320722  0.00758277  1
  H+  H130  1  0.64181095  0.03007965  0.99786490  1
  H+  H131  1  0.37796125  0.97857953  0.48706025  1
  H+  H132  1  -0.01928699  0.37019769  0.50112590  1
  H+  H133  1  0.72479068  0.36984925  0.65264587  1
  H+  H134  1  0.29676442  0.69704212  0.67912962  1
  H+  H135  1  0.60578293  0.47045268  0.82450118  1
  H+  H136  1  0.20518414  0.37313382  0.66357981  1
  H+  H137  1  0.86504398  0.88051081  0.34551255  1
  H+  H138  1  0.52411468  0.62573303  0.49289262  1
  H+  H139  1  0.34864404  0.49090490  0.68079748  1
  H+  H140  1  0.60722407  0.29493373  0.49621784  1
  H+  H141  1  0.27428721  0.14268567  0.34511806  1
  H+  H142  1  0.46788289  0.35797724  0.99945491  1
  H+  H143  1  0.21165373  0.10609013  0.84230309  1
  H+  H144  1  0.57479187  0.41586005  0.10757870  1
  H+  H145  1  0.88460582  0.37326466  0.65671379  1
  H+  H146  1  0.68259733  0.63100918  0.01077150  1
  H+  H147  1  0.85031859  0.06572446  0.17165072  1
  H+  H148  1  0.61126857  0.13673052  0.34376467  1
  H+  H149  1  0.58968889  0.65941939  0.43739833  1
  H+  H150  1  0.77258367  0.89514083  0.99993019  1
  H+  H151  1  0.35803764  0.38012746  0.49681589  1
  H+  H152  1  -0.01073525  0.14691875  0.48722505  1
  H+  H153  1  0.26168474  0.36969889  0.34056602  1
  H+  H154  1  0.11200981  0.47117420  1.02223410  1
  H+  H155  1  0.38325489  0.10276083  0.51210536  1
  H+  H156  1  0.48536326  0.86241165  0.50783443  1
  H+  H157  1  0.47682787  0.61296482  0.85573402  1
  H+  H158  1  0.88740384  0.77092000  0.52047439  1
  H+  H159  1  0.38364578  0.08606399  0.67046856  1
  H+  H160  1  0.35749501  0.21683316  -0.00493054  1
  H+  H161  1  0.72388704  0.85672084  0.51221267  1
  H+  H162  1  0.60151659  0.98711904  0.67921611  1
  H+  H163  1  0.63635615  0.12253554  0.66081352  1
  H+  H164  1  0.13549109  0.51332543  0.84875601  1
  H+  H165  1  0.60946313  0.73069778  0.83695532  1
  H+  H166  1  0.11225055  0.87663551  0.83278286  1
  H+  H167  1  0.27844706  0.63053290  1.02165297  1
  H+  H168  1  0.21821494  0.35982401  0.50626398  1
  H+  H169  1  0.72391198  0.12398270  0.50544016  1
  H+  H170  1  0.24006612  0.60993339  0.20407289  1
  H+  H171  1  0.39012511  0.27829323  0.34254901  1
  H+  H172  1  0.15191825  0.86945972  0.60415736  1
  H+  H173  1  0.37406674  0.64312005  0.32557443  1
  H+  H174  1  0.89164973  0.61486998  0.84013289  1
  H+  H175  1  0.88547442  0.36866218  0.00052899  1
  H+  H176  1  0.28503188  0.39789279  0.17055392  1
  H+  H177  1  0.91312546  0.33506345  0.90622921  1
  H+  H178  1  0.36460574  0.37986281  0.34985078  1
  H+  H179  1  0.15408167  0.33840412  0.60081253  1
  H+  H180  1  0.43287046  0.34974602  0.28908629  1
  H+  H181  1  0.95857787  0.09711835  0.65524647  1
  H+  H182  1  0.13086895  0.27065007  1.00028226  1
  H+  H183  1  0.16016533  0.86014054  0.45458032  1
  H+  H184  1  0.03529133  0.90090896  0.58264877  1
  H+  H185  1  0.85930047  0.47353546  0.33220888  1
  H+  H186  1  0.87541968  0.01983693  0.98824669  1
  H+  H187  1  0.96291123  0.03500945  0.17102602  1
  H+  H188  1  0.64012950  0.52038374  0.33671511  1
  H+  H189  1  0.25157475  0.86333599  0.47014987  1
  H+  H190  1  0.59845217  0.66988110  0.10673382  1
  H+  H191  1  0.86257949  0.13437687  0.33954867  1
  H+  H192  1  0.65647400  0.56233593  0.56854896  1
  H+  H193  1  0.16220041  0.33873933  0.91003192  1
  H+  H194  1  -0.02939795  0.10563980  0.31909894  1
  H+  H195  1  0.97823909  0.60946039  0.84873071  1
  H+  H196  1  0.66845267  0.09065335  0.90228048  1
  H+  H197  1  0.66097086  0.34883312  0.59540368  1
  H+  H198  1  0.87142243  1.02075360  0.84322116  1
  H+  H199  1  0.58944475  0.39942702  0.43446023  1
  H+  H200  1  0.63367231  0.86622329  0.84439345  1
  H+  H201  1  0.14235538  0.60352545  1.00300601  1
  H+  H202  1  0.28243992  0.51081285  0.71089774  1
  H+  H203  1  0.96531789  0.61755148  0.16732747  1
  H+  H204  1  0.66318533  0.83354023  0.90325527  1
  H+  H205  1  0.65703935  0.12141082  0.17472506  1
  H+  H206  1  0.12057403  0.96925579  0.16088590  1
  H+  H207  1  0.52074466  0.14690717  0.49716340  1
  H+  H208  1  0.15197966  0.85694029  0.16424081  1
  H+  H209  1  0.88014149  0.11657487  0.99041900  1
  H+  H210  1  0.10814723  0.38334941  0.83318823  1
  H+  H211  1  0.39078581  0.77077663  0.85698155  1
  H+  H212  1  0.10102869  0.13298048  0.67144819  1
  H+  H213  1  0.18188446  0.33228886  0.26817523  1
  H+  H214  1  0.37665426  0.86432122  0.16248066  1
  H+  H215  1  1.01877981  0.38359196  0.83463709  1
  H+  H216  1  0.97486312  0.35704828  0.17629703  1
  H+  H217  1  0.85775923  0.48435188  0.01278714  1
  H+  H218  1  1.03554641  0.54184545  0.35777215  1
  H+  H219  1  0.36823283  0.63197306  0.02426341  1
  H+  H220  1  0.48857226  0.11756713  0.84041618  1
  H+  H221  1  0.96853995  0.86348074  0.83657144  1
  H+  H222  1  0.86172980  0.88141121  0.50575109  1
  H+  H223  1  0.28295453  0.88814371  0.83493449  1
  H+  H224  1  0.76513916  0.62465945  0.49439604  1
  H+  H225  1  0.88090019  0.76534416  0.32599240  1
  H+  H226  1  0.83952713  0.72539525  0.15971318  1
  H+  H227  1  0.89079197  0.28082320  0.50549484  1
  H+  H228  1  0.14424767  0.06766025  0.92968938  1
  H+  H229  1  0.38850934  0.51750975  0.00863788  1
  H+  H230  1  0.63547581  -0.00937141  0.34259805  1
  H+  H231  1  0.45676057  0.08797320  0.17035483  1
  H+  H232  1  0.14524934  0.53130050  0.48425243  1
  H+  H233  1  0.76693302  0.12824933  0.67606583  1
  H+  H234  1  0.11132390  0.60572670  0.31730075  1
  H+  H235  1  0.83380433  0.90737061  0.44332014  1
  H+  H236  1  0.39388939  0.76600262  0.01008669  1
  H+  H237  1  0.77786088  0.63728348  0.82551894  1
  H+  H238  1  0.46938155  0.70313626  0.62576924  1
  H+  H239  1  0.10297745  0.14120706  0.83296009  1
  H+  H240  1  0.86200753  0.77134759  0.99055032  1
  H+  H241  1  0.89504441  0.05844876  0.26912202  1
  H+  H242  1  0.39803211  0.11439227  0.84997164  1
  H+  H243  1  0.77885213  0.12672834  0.16320925  1
  H+  H244  1  0.77562934  0.63329290  0.34299934  1
  H+  H245  1  0.31250380  0.90008301  -0.00279997  1
  H+  H246  1  0.86542539  0.97032704  0.34783317  1
  H+  H247  1  0.41161090  0.33407730  0.93846647  1
  H+  H248  1  0.52317469  0.13931494  0.33979214  1
  H+  H249  1  0.93752121  0.84874863  0.68198059  1
  H+  H250  1  0.15063146  0.11275658  0.17297131  1
  H+  H251  1  0.77138148  1.13944910  0.83318990  1
  H+  H252  1  0.12543180  1.01525000  0.83528994  1
  H+  H253  1  0.82977542  0.41550058  0.72888988  1
  H+  H254  1  0.72234718  0.60716014  0.17811926  1
  H+  H255  1  0.34581482  0.83336720  0.66071395  1
  H+  H256  1  0.53647025  0.15217454  0.00874960  1
  H+  H257  1  0.40276814  0.53198559  0.17632666  1
  H+  H258  1  0.68450074  0.84557686  0.24386185  1
  H+  H259  1  0.64087012  0.02403016  0.17745953  1
  H+  H260  1  0.61215771  0.23544576  0.66928394  1
  H+  H261  1  0.86208424  0.89808626  -0.00232870  1
  H+  H262  1  0.10337544  0.71397182  0.15383187  1
  H+  H263  1  0.35929324  0.47102782  0.49404255  1
  H+  H264  1  0.34873991  0.21125263  0.12723257  1
  H+  H265  1  0.77123323  0.38924102  0.16843158  1
  H+  H266  1  0.85349849  0.13612176  0.49658839  1
  H+  H267  1  1.01295401  0.87278480  0.30318334  1
  H+  H268  1  0.22874853  0.09873663  0.17548523  1
  H+  H269  1  0.27447212  0.86739288  0.15556473  1
  H+  H270  1  0.36698797  -0.01687155  0.32822893  1
  H+  H271  1  0.77379506  0.38694933  0.82523545  1
  H+  H272  1  0.08543197  0.41784874  0.11589528  1
  H+  H273  1  0.36467178  0.20261465  0.68883516  1
  H+  H274  1  0.63696198  1.02880250  0.84408573  1
  H+  H275  1  0.08481729  0.90189280  0.77110379  1
  H+  H276  1  0.20957892  0.09674740  0.98507264  1
  H+  H277  1  0.08997823  0.90718975  0.25646228  1
  H+  H278  1  0.37904140  0.32920374  0.66855991  1
  H+  H279  1  0.61837090  0.37736312  0.35529570  1
  H+  H280  1  0.38650399  0.52297797  0.85686705  1
  H+  H281  1  0.63091222  0.73619083  0.16250740  1
  H+  H282  1  0.60952581  0.40363768  1.00815796  1
  H+  H283  1  0.64038221  0.27850551  0.84117832  1
  H+  H284  1  0.63646567  0.61075018  0.18241612  1
  H+  H285  1  0.52657995  0.14229751  0.67325299  1
  H+  H286  1  0.37299628  0.39570871  0.17385168  1
  H+  H287  1  0.53417041  0.88718958  1.01393926  1
  H+  H288  1  0.37324188  0.97624046  0.83657757  1
  H+  H289  1  0.91328416  0.32799484  0.26503859  1
  H+  H290  1  0.41785535  0.83577585  0.23267271  1
  H+  H291  1  0.90537618  0.58955047  0.93260225  1
  H+  H292  1  0.08735156  0.42120471  0.42334277  1
  H+  H293  1  0.40957835  0.31869099  0.57159815  1
  H+  H294  1  0.18017014  0.81890040  0.22098689  1
  H+  H295  1  0.83208942  0.17027981  0.43527401  1
  H+  H296  1  0.63440427  0.76879026  0.50893170  1
  H+  H297  1  0.32080533  0.43125363  0.78228123  1
  H+  H298  1  0.66088775  0.08731168  0.60170234  1
  H+  H299  1  0.09276682  0.65250568  0.78865672  1
  H+  H300  1  0.83839046  0.15367081  0.10341965  1
  H+  H301  1  0.00719646  0.22466715  0.44581540  1
  H+  H302  1  0.33665401  0.66960212  0.38089176  1
  H+  H303  1  0.57740698  0.92377718  0.77636699  1
  H+  H304  1  0.36411306  0.12926565  -0.00651019  1
  H+  H305  1  0.08806565  0.70106519  0.69344830  1
  H+  H306  1  0.92347038  0.34737416  0.59643976  1
  H+  H307  1  0.33416091  0.41287529  0.07479388  1
  H+  H308  1  0.11942912  0.38319450  0.33285336  1
  H+  H309  1  0.41020007  0.01287029  0.66833171  1
  H+  H310  1  0.89820809  0.57069194  0.56277383  1
  H+  H311  1  0.34577942  0.92251869  0.38575861  1
  H+  H312  1  0.06716736  0.16959148  0.39248506  1
  H+  H313  1  0.90559758  0.58253645  0.25896590  1
  H+  H314  1  0.43070089  0.58570281  0.26792400  1
  H+  H315  1  0.63580316  0.85708273  0.99895044  1
  H+  H316  1  0.90245808  0.82852367  0.92995293  1
  H+  H317  1  0.60780314  0.18938247  0.06268990  1
  H+  H318  1  0.86495034  0.22982574  0.01140596  1
  H+  H319  1  0.26676299  0.38927933  0.84215922  1
  H+  H320  1  0.41262918  0.59032159  0.55620166  1
  H+  H321  1  0.42453982  0.82407549  0.94837102  1
  H+  H322  1  0.00095280  0.87621571  0.00695900  1
  H+  H323  1  0.66949076  0.08097472  0.27199258  1
  H+  H324  1  0.42077324  0.58127239  0.95171367  1
  H+  H325  1  0.82852923  0.66169549  0.43657594  1
  H+  H326  1  0.89132518  0.81657875  0.58297552  1
  H+  H327  1  0.81981225  0.92340110  0.76995600  1
  H+  H328  1  0.15806411  0.28465283  0.17257693  1
  H+  H329  1  0.90113584  0.07649663  0.56823509  1
  H+  H330  1  0.26467456  0.78219593  0.61935225  1
  H+  H331  1  0.11295627  0.17865093  0.09218844  1
  H+  H332  1  0.17363473  0.56988539  0.94794832  1
  H+  H333  1  1.01884194  0.14775483  0.83431345  1
  H+  H334  1  0.05973343  0.39972976  0.73909112  1
  H+  H335  1  0.43489111  0.08672998  0.93701673  1
  H+  H336  1  0.16853344  0.59158771  0.54272720  1
  H+  H337  1  0.38712538  0.60953990  0.49132544  1
  H+  H338  1  0.87265223  0.50266831  0.49655761  1
  H+  H339  1  0.42301173  0.10215791  0.26799042  1
  H+  H340  1  0.13789653  0.00557111  0.53296877  1
  H+  H341  1  0.31591725  0.13961206  0.07901051  1
  H+  H342  1  0.57323122  0.40486657  0.73668591  1
  H+  H343  1  0.33128978  0.65917886  0.11693536  1
  H+  H344  1  0.19665006  0.12319042  0.61268221  1
  H+  H345  1  0.32450428  0.40765251  0.40874747  1
  H+  H346  1  0.82745436  0.42156603  0.07015423  1
  H+  H347  1  0.60420181  0.92849813  0.40831513  1
  H+  H348  1  0.82789503  0.15540690  0.73398575  1
  H+  H349  1  0.34525164  0.90734447  0.09887059  1
  H+  H350  1  0.06510495  0.64936408  0.09845318  1
  H+  H351  1  0.71773842  0.23963257  0.12160689  1
  H+  H352  1  0.34102469  0.66523927  0.78810581  1
  H+  H353  1  0.58995482  0.17612680  0.76771775  1
  H+  H354  1  0.57829877  0.17857089  0.43684200  1
  H+  H355  1  0.35591116  0.21481663  0.50046239  1
  H+  H356  1  0.23835616  0.62114668  0.72565819  1
  H+  H357  1  0.41592957  0.07091152  0.56959624  1
  H+  H358  1  0.09601042  0.65524174  0.40754436  1
  H+  H359  1  0.84219406  0.42418565  0.42893494  1
  H+  H360  1  0.66283892  0.33727092  0.24152702  1
  H+  H361  1  0.66492077  0.57421830  0.27412819  1
  H+  H362  1  0.07705417  0.90356439  0.10674195  1
  H+  H363  1  0.16290460  0.83118310  0.90755954  1
  H+  H364  1  0.82722858  0.65306475  0.73601383  1
  H+  H365  1  0.38938108  0.86914431  0.31221094  1
  H+  H366  1  0.59059226  0.48259480  0.01728848  1
  H+  H367  1  0.80396935  0.66738598  0.06803383  1
  H+  H368  1  0.40678293  0.82138919  0.55672371  1
  H+  H369  1  0.13820408  0.64137771  0.47136904  1
  H+  H370  1  0.83933425  0.96983187  0.67336560  1
  H+  H371  1  0.90253436  0.08225320  0.91546673  1
  H+  H372  1  0.57546152  0.66989893  0.77835271  1
  H+  H373  1  0.66937094  0.34313744  0.89883480  1
  H+  H374  1  0.85936490  0.38654509  0.16355851  1
  H+  H375  1  0.86613117  0.22603636  0.33799486  1
  H+  H376  1  0.88265646  0.81843208  0.26608146  1
  H+  H377  1  0.10110222  0.84694758  0.99774649  1
  H+  H378  1  0.11086863  0.90884752  0.38065415  1
  H+  H379  1  0.38184438  0.91515660  0.74630759  1
  H+  H380  1  0.76121823  0.62101665  0.67808434  1
  H+  H381  1  0.17204905  0.09139876  0.27140218  1
  H+  H382  1  0.64493901  0.82670740  0.60532330  1
  H+  H383  1  0.33299946  0.14399297  0.74827078  1
  O2-  O384  1  0.15063849  0.19696406  0.12965735  1
  O2-  O385  1  0.03636979  0.19521369  0.46189970  1
  O2-  O386  1  0.08050213  0.18050605  0.82513796  1
  O2-  O387  1  0.08470890  0.41177210  0.16152632  1
  O2-  O388  1  0.08581976  0.42598176  0.46854698  1
  O2-  O389  1  0.07803263  0.41367571  0.81655397  1
  O2-  O390  1  0.06015732  0.65412503  0.14278167  1
  O2-  O391  1  0.10858217  0.67306646  0.45185973  1
  O2-  O392  1  0.09026516  0.65818754  0.83261284  1
  O2-  O393  1  0.09439623  0.90772929  0.14997921  1
  O2-  O394  1  0.11430273  0.90535129  0.42502536  1
  O2-  O395  1  0.08080125  0.90517430  0.81522202  1
  O2-  O396  1  0.32083075  0.14874425  0.12424290  1
  O2-  O397  1  0.33211936  0.15649738  0.48219605  1
  O2-  O398  1  0.32883694  0.16354073  0.85345644  1
  O2-  O399  1  0.34493276  0.42504483  0.15411369  1
  O2-  O400  1  0.32829355  0.40965310  0.47904652  1
  O2-  O401  1  0.32758393  0.42135139  0.82557274  1
  O2-  O402  1  0.33650525  0.66486340  0.16242393  1
  O2-  O403  1  0.34484260  0.66688162  0.46035914  1
  O2-  O404  1  0.33675355  0.66294783  0.83262997  1
  O2-  O405  1  0.33922853  0.89898150  0.14398957  1
  O2-  O406  1  0.35383639  0.92238135  0.46477918  1
  O2-  O407  1  0.34441213  0.91472462  0.82332419  1
  O2-  O408  1  0.65789426  0.20755573  0.13495893  1
  O2-  O409  1  0.57991492  0.18732789  0.48177733  1
  O2-  O410  1  0.58826955  0.17421451  0.81325857  1
  O2-  O411  1  0.57834919  0.41591076  0.15307430  1
  O2-  O412  1  0.58492422  0.39477249  0.48797645  1
  O2-  O413  1  0.57353219  0.40812091  0.81409628  1
  O2-  O414  1  0.59786910  0.67457982  0.15209741  1
  O2-  O415  1  0.58638066  0.65378139  0.48285551  1
  O2-  O416  1  0.57703321  0.66862319  0.82355533  1
  O2-  O417  1  0.59088605  0.91892715  0.15053485  1
  O2-  O418  1  0.59241419  0.92335109  0.47990156  1
  O2-  O419  1  0.58379650  0.92271753  0.82158056  1
  O2-  O420  1  0.83913611  0.14903966  0.14875026  1
  O2-  O421  1  0.83160193  0.17402762  0.48063582  1
  O2-  O422  1  0.83304467  0.16607094  0.81989535  1
  O2-  O423  1  0.82902587  0.41655440  0.14854934  1
  O2-  O424  1  0.84420201  0.42733496  0.47461749  1
  O2-  O425  1  0.83408451  0.41439852  0.80915304  1
  O2-  O426  1  0.81774435  0.66680921  0.14302534  1
  O2-  O427  1  0.82656590  0.65789689  0.48223622  1
  O2-  O428  1  0.83948461  0.66666888  0.81318340  1
  O2-  O429  1  0.84985708  1.01564176  0.19458916  1
  O2-  O430  1  0.83001284  0.90923676  0.48858819  1
  O2-  O431  1  0.82714570  0.92395515  0.81555264  1
  O2-  O432  1  0.17099075  0.07680090  0.19357462  1
  O2-  O433  1  0.16064900  0.04835358  0.49829496  1
  O2-  O434  1  0.14955400  0.07424366  0.85215838  1
  O2-  O435  1  0.17869696  0.33992402  0.19474599  1
  O2-  O436  1  0.15872807  0.33942921  0.52082207  1
  O2-  O437  1  0.16495481  0.34024520  0.86459415  1
  O2-  O438  1  0.17897922  0.57359400  0.21876654  1
  O2-  O439  1  0.17878516  0.59352448  0.49697514  1
  O2-  O440  1  0.16651349  0.57202269  0.86833940  1
  O2-  O441  1  0.18074048  0.82294694  0.17474515  1
  O2-  O442  1  0.18689932  0.82851197  0.47622587  1
  O2-  O443  1  0.16884573  0.83196927  0.86245963  1
  O2-  O444  1  0.43794684  0.12366285  0.19123129  1
  O2-  O445  1  0.41708137  0.07484512  0.52424767  1
  O2-  O446  1  0.42954502  0.08362202  0.85945640  1
  O2-  O447  1  0.43257849  0.35060731  0.21137522  1
  O2-  O448  1  0.40820183  0.32267663  0.52633803  1
  O2-  O449  1  0.41051775  0.33451403  0.85901312  1
  O2-  O450  1  0.43212289  0.59152268  0.19353619  1
  O2-  O451  1  0.41189477  0.57683285  0.51254021  1
  O2-  O452  1  0.41710897  0.58332220  0.87297654  1
  O2-  O453  1  0.41860570  0.83257911  0.18292489  1
  O2-  O454  1  0.42161599  0.82776329  0.51319361  1
  O2-  O455  1  0.42190384  0.83113229  0.87228146  1
  O2-  O456  1  0.67575385  0.08344885  0.19444316  1
  O2-  O457  1  0.66278243  0.09027730  0.51932564  1
  O2-  O458  1  0.66806313  0.09074323  0.85672192  1
  O2-  O459  1  0.66660682  0.33902406  0.19618734  1
  O2-  O460  1  0.63747991  0.35770361  0.51041851  1
  O2-  O461  1  0.66987774  0.34058931  0.85328189  1
  O2-  O462  1  0.66298432  0.57624235  0.19643171  1
  O2-  O463  1  0.65441259  0.55571146  0.52328835  1
  O2-  O464  1  0.66443999  0.58359632  0.81975165  1
  O2-  O465  1  0.69460310  0.85129963  0.19877528  1
  O2-  O466  1  0.66163460  0.82896177  0.52405935  1
  O2-  O467  1  0.66392875  0.83470188  0.85756053  1
  O2-  O468  1  0.90469136  -0.00668815  0.15718709  1
  O2-  O469  1  0.90155578  0.07898190  0.52194960  1
  O2-  O470  1  0.90084179  0.08137566  0.86119495  1
  O2-  O471  1  0.91245633  0.32557333  0.18755106  1
  O2-  O472  1  0.92216890  0.34218839  0.51965662  1
  O2-  O473  1  0.91419704  0.33185193  0.86080418  1
  O2-  O474  1  0.90358157  0.58952081  0.18330694  1
  O2-  O475  1  0.89927357  0.57050514  0.51662630  1
  O2-  O476  1  0.91613689  0.58105824  0.85929259  1
  O2-  O477  1  0.84312677  0.82089959  0.19304632  1
  O2-  O478  1  0.91230024  0.82803532  0.54028183  1
  O2-  O479  1  0.90751718  0.83323255  0.84956246  1
  O2-  O480  1  0.16710614  0.08750163  0.31689222  1
  O2-  O481  1  0.17441664  0.08723065  0.64897378  1
  O2-  O482  1  0.14740373  0.06793507  0.97537704  1
  O2-  O483  1  0.18168057  0.33012232  0.31455827  1
  O2-  O484  1  0.14820725  0.33410451  0.64602504  1
  O2-  O485  1  0.15949519  0.33297042  0.98985125  1
  O2-  O486  1  0.18165890  0.57434461  0.28632662  1
  O2-  O487  1  0.14124001  0.57997689  0.61184633  1
  O2-  O488  1  0.17513940  0.57372064  0.99326841  1
  O2-  O489  1  0.17866941  0.81375918  0.29470404  1
  O2-  O490  1  0.17286372  0.82849083  0.59759691  1
  O2-  O491  1  0.13350130  0.81528576  0.98599887  1
  O2-  O492  1  0.42023928  0.09286420  0.31299635  1
  O2-  O493  1  0.42171966  0.06857629  0.65007782  1
  O2-  O494  1  0.43176925  0.09095240  0.98249524  1
  O2-  O495  1  0.42503400  0.34279568  0.33444708  1
  O2-  O496  1  0.41206864  0.30406328  0.65205869  1
  O2-  O497  1  0.40763948  0.32502491  0.98359568  1
  O2-  O498  1  0.42844209  0.58735130  0.31397012  1
  O2-  O499  1  0.43071066  0.64208018  0.63450626  1
  O2-  O500  1  0.42276040  0.57981029  0.99718300  1
  O2-  O501  1  0.41881620  0.83869425  0.29531158  1
  O2-  O502  1  0.31538060  0.78062177  0.63419476  1
  O2-  O503  1  0.42682569  0.82665389  0.99412890  1
  O2-  O504  1  0.66931484  0.08032368  0.31779493  1
  O2-  O505  1  0.65950152  0.08496871  0.64697320  1
  O2-  O506  1  0.67285597  0.08997781  0.98145823  1
  O2-  O507  1  0.66367248  0.33471278  0.32173778  1
  O2-  O508  1  0.66309945  0.34203753  0.63987100  1
  O2-  O509  1  0.66489713  0.35288246  0.97766164  1
  O2-  O510  1  0.66826952  0.57905944  0.31977721  1
  O2-  O511  1  0.65818827  0.57220781  0.64956634  1
  O2-  O512  1  0.61936199  0.59759824  1.00226502  1
  O2-  O513  1  0.67502017  0.83873742  0.32238634  1
  O2-  O514  1  0.63727716  0.82481495  0.65041281  1
  O2-  O515  1  0.66476184  0.82724856  0.98018151  1
  O2-  O516  1  0.90724113  0.07190659  0.31313481  1
  O2-  O517  1  0.89665730  0.06585508  0.64201708  1
  O2-  O518  1  0.90817327  0.08465100  0.97187269  1
  O2-  O519  1  0.91562357  0.33077840  0.31080251  1
  O2-  O520  1  0.92008692  0.34703106  0.64223821  1
  O2-  O521  1  0.91443336  0.33669620  0.98653393  1
  O2-  O522  1  0.90762450  0.57786680  0.30480119  1
  O2-  O523  1  0.90469374  0.57801448  0.63675026  1
  O2-  O524  1  0.90120865  0.59285343  0.97854809  1
  O2-  O525  1  0.90612144  0.82471548  0.30809146  1
  O2-  O526  1  0.88105428  0.81677248  0.66310321  1
  O2-  O527  1  0.90238512  0.83033831  0.97535312  1
  O2-  O528  1  0.07728826  0.16053548  0.02054181  1
  O2-  O529  1  0.07862678  0.16810981  0.34814198  1
  O2-  O530  1  0.06145632  0.15549568  0.67434512  1
  O2-  O531  1  0.07617565  0.41130697  0.03844963  1
  O2-  O532  1  0.09116194  0.41692523  0.34300619  1
  O2-  O533  1  0.05704746  0.40001403  0.69346495  1
  O2-  O534  1  0.07493151  0.64514425  0.01432154  1
  O2-  O535  1  0.06470698  0.60180068  0.34451343  1
  O2-  O536  1  0.07715428  0.68281351  0.65107230  1
  O2-  O537  1  0.06168704  0.90280197  0.02218190  1
  O2-  O538  1  0.07782941  0.90483059  0.30011615  1
  O2-  O539  1  0.09783082  0.93424026  0.58964976  1
  O2-  O540  1  0.32385950  0.15236804  0.00013561  1
  O2-  O541  1  0.33520250  0.17524943  0.35930223  1
  O2-  O542  1  0.33045115  0.14194907  0.70378512  1
  O2-  O543  1  0.32771519  0.41031286  0.02962108  1
  O2-  O544  1  0.32619127  0.40558246  0.36145730  1
  O2-  O545  1  0.29694423  0.46539185  0.70599329  1
  O2-  O546  1  0.33822982  0.66312281  0.03853704  1
  O2-  O547  1  0.33817269  0.66976612  0.33537118  1
  O2-  O548  1  0.28943335  0.64296152  0.69984357  1
  O2-  O549  1  0.36383287  0.92371633  0.02250067  1
  O2-  O550  1  0.33953357  0.92139434  0.34066883  1
  O2-  O551  1  0.40334827  0.91968052  0.70390444  1
  O2-  O552  1  0.59928771  0.18555925  0.01781501  1
  O2-  O553  1  0.58303962  0.16944365  0.35700282  1
  O2-  O554  1  0.58685229  0.17740469  0.68832729  1
  O2-  O555  1  0.57114587  0.42195350  0.02828247  1
  O2-  O556  1  0.58877440  0.40703335  0.37701921  1
  O2-  O557  1  0.57119687  0.40647152  0.69088423  1
  O2-  O558  1  0.58931847  0.65409917  0.02857047  1
  O2-  O559  1  0.59297623  0.67153168  0.35866204  1
  O2-  O560  1  0.58332266  0.66372449  0.69540377  1
  O2-  O561  1  0.59626813  0.92135731  0.02511806  1
  O2-  O562  1  0.60929498  0.92906878  0.36163641  1
  O2-  O563  1  0.56326192  0.92921871  0.69857739  1
  O2-  O564  1  0.83703965  0.16774207  0.02364126  1
  O2-  O565  1  0.83420442  0.16627954  0.35515385  1
  O2-  O566  1  0.82719151  0.15103441  0.68928194  1
  O2-  O567  1  0.82862411  0.42315915  0.02453864  1
  O2-  O568  1  0.83250590  0.41533864  0.35200112  1
  O2-  O569  1  0.82871304  0.41541568  0.68324307  1
  O2-  O570  1  0.79277531  0.66744422  0.02294696  1
  O2-  O571  1  0.83609901  0.66521020  0.35809625  1
  O2-  O572  1  0.82319464  0.65368327  0.69041950  1
  O2-  O573  1  0.83462388  0.93215820  0.00989188  1
  O2-  O574  1  0.83547012  0.91014159  0.36375326  1
  O2-  O575  1  0.80266195  0.91176587  0.69372563  1
