# generated using pymatgen
data_H2O
_symmetry_space_group_name_H-M   'P 1'
_cell_length_a   17.98992921
_cell_length_b   17.99150925
_cell_length_c   21.99395369
_cell_angle_alpha   90.04269910
_cell_angle_beta   89.97297784
_cell_angle_gamma   120.00605512
_symmetry_Int_Tables_number   1
_chemical_formula_structural   H2O
_chemical_formula_sum   'H384 O192'
_cell_volume   6164.59236008
_cell_formula_units_Z   192
loop_
 _symmetry_equiv_pos_site_id
 _symmetry_equiv_pos_as_xyz
  1  'x, y, z'
loop_
 _atom_type_symbol
 _atom_type_oxidation_number
  H+  1.0
  O2-  -2.0
loop_
 _atom_site_type_symbol
 _atom_site_label
 _atom_site_symmetry_multiplicity
 _atom_site_fract_x
 _atom_site_fract_y
 _atom_site_fract_z
 _atom_site_occupancy
  H+  H0  1  0.34746296  0.86174189  0.81828691  1
  H+  H1  1  0.11601048  0.87899740  0.82979026  1
  H+  H2  1  0.88146177  0.85480088  0.17375999  1
  H+  H3  1  0.13167568  0.35777611  0.66443561  1
  H+  H4  1  0.22899182  0.58019631  0.50514905  1
  H+  H5  1  0.63245587  0.36295001  0.33103929  1
  H+  H6  1  0.61867577  0.48139773  0.33833802  1
  H+  H7  1  0.87094198  0.65850428  0.49248559  1
  H+  H8  1  0.12372986  0.45835353  0.01880151  1
  H+  H9  1  0.60710512  0.38351046  0.82251684  1
  H+  H10  1  0.63428615  0.64361242  0.17014516  1
  H+  H11  1  0.09340769  0.50647173  0.85673454  1
  H+  H12  1  0.48995937  0.15506527  0.16922053  1
  H+  H13  1  0.11667820  -0.00300421  0.33257928  1
  H+  H14  1  0.67764467  0.12222849  0.24936161  1
  H+  H15  1  0.28287028  0.15185011  0.67349308  1
  H+  H16  1  0.91987706  0.83404960  0.73518859  1
  H+  H17  1  0.87310129  0.22019344  0.83650265  1
  H+  H18  1  0.37200708  0.91858323  0.66584335  1
  H+  H19  1  0.85427199  0.62789940  1.01640038  1
  H+  H20  1  0.61195772  0.95036436  0.46774101  1
  H+  H21  1  0.87589512  0.36520376  0.17280706  1
  H+  H22  1  0.87369472  0.26472760  0.66172251  1
  H+  H23  1  0.60092482  0.46333891  1.01138364  1
  H+  H24  1  0.12089476  0.72612093  0.00299349  1
  H+  H25  1  0.61028261  0.62192855  0.49383197  1
  H+  H26  1  0.63585332  0.36487858  0.65782268  1
  H+  H27  1  0.36212380  1.00064877  0.67493485  1
  H+  H28  1  0.28256305  0.88552947  0.26291478  1
  H+  H29  1  0.28593151  0.65281852  0.33796525  1
  H+  H30  1  0.13870988  0.85923932  0.66805890  1
  H+  H31  1  0.72553983  0.86836912  0.65797525  1
  H+  H32  1  0.10029738  0.46816894  0.67660833  1
  H+  H33  1  0.03046644  0.90250518  0.33860387  1
  H+  H34  1  0.50073388  0.93659533  0.80409637  1
  H+  H35  1  0.62030423  0.15394214  0.32734795  1
  H+  H36  1  0.65338990  0.53979890  0.17839456  1
  H+  H37  1  0.62249433  0.72241641  0.67311022  1
  H+  H38  1  0.48391947  0.60607954  0.51114746  1
  H+  H39  1  0.36073870  0.48450564  1.00716683  1
  H+  H40  1  0.63107324  0.60627620  0.85001530  1
  H+  H41  1  0.07346913  0.37623960  0.52016990  1
  H+  H42  1  0.11964113  0.40533272  0.83010808  1
  H+  H43  1  0.38434023  0.88496879  0.39767684  1
  H+  H44  1  0.38364146  0.62101653  0.99334103  1
  H+  H45  1  0.27305696  0.07125776  0.37515840  1
  H+  H46  1  0.89683457  0.57799167  0.44561560  1
  H+  H47  1  0.64597271  0.27453739  0.99462395  1
  H+  H48  1  0.66177234  0.57422587  0.94506610  1
  H+  H49  1  0.95568052  0.34797850  0.31988318  1
  H+  H50  1  0.86912153  0.35277649  0.32891645  1
  H+  H51  1  0.52000549  0.13129989  0.33354029  1
  H+  H52  1  0.00981541  0.87685334  0.15788763  1
  H+  H53  1  0.38992183  0.22020431  0.50165558  1
  H+  H54  1  0.08030966  0.59707733  0.85139999  1
  H+  H55  1  0.62984725  0.06512157  0.57908574  1
  H+  H56  1  0.46810880  0.12386335  0.66668002  1
  H+  H57  1  0.13184225  0.60900490  0.66280774  1
  H+  H58  1  0.73689639  0.37470747  0.84239070  1
  H+  H59  1  0.37933982  0.47027795  0.49715706  1
  H+  H60  1  0.17109679  0.83001880  0.93124584  1
  H+  H61  1  0.76977896  0.88952919  0.16150158  1
  H+  H62  1  0.88414687  0.51687056  0.65940079  1
  H+  H63  1  0.14114398  0.36090557  0.31419198  1
  H+  H64  1  0.20375032  0.29029033  0.96709700  1
  H+  H65  1  0.33032735  0.69887271  0.82766553  1
  H+  H66  1  0.88665377  0.11039862  0.32261525  1
  H+  H67  1  -0.02557824  0.11840367  0.64123396  1
  H+  H68  1  0.39093038  0.37506142  0.32899638  1
  H+  H69  1  0.76522322  0.38314411  0.34413980  1
  H+  H70  1  0.85837568  0.13269535  0.48349824  1
  H+  H71  1  0.86922748  0.85404566  0.00538402  1
  H+  H72  1  0.39567472  0.02231529  0.29379616  1
  H+  H73  1  0.38982665  0.79089517  0.17244804  1
  H+  H74  1  0.22478714  0.85313673  0.83444079  1
  H+  H75  1  0.14851291  0.86407618  0.99144000  1
  H+  H76  1  0.10715354  0.13212719  0.66038327  1
  H+  H77  1  -0.01820051  0.10091370  0.82797363  1
  H+  H78  1  0.36334334  0.11213754  0.34450878  1
  H+  H79  1  0.85487839  0.21603616  0.33477236  1
  H+  H80  1  0.02416900  0.63487517  0.67599392  1
  H+  H81  1  0.29371836  0.37876334  0.49889695  1
  H+  H82  1  0.77546164  0.64189241  0.34217478  1
  H+  H83  1  0.34382956  0.47042005  0.67166005  1
  H+  H84  1  0.58672933  0.66919072  -0.05109888  1
  H+  H85  1  0.58127300  0.96188906  0.64556459  1
  H+  H86  1  0.07806033  0.43983597  0.28940763  1
  H+  H87  1  0.25398696  0.60842949  0.80850318  1
  H+  H88  1  0.62944364  0.27156508  0.33204217  1
  H+  H89  1  0.52379949  0.38457460  0.66728870  1
  H+  H90  1  0.41437904  0.68777146  0.64930339  1
  H+  H91  1  0.99600723  0.88461479  0.49259821  1
  H+  H92  1  0.04369939  0.89675481  -0.01578440  1
  H+  H93  1  0.39642379  0.62191784  0.32795131  1
  H+  H94  1  0.15090041  0.56249392  0.33737077  1
  H+  H95  1  0.89084250  0.77967550  0.32626887  1
  H+  H96  1  0.57299349  0.91650825  0.81598753  1
  H+  H97  1  0.51671599  0.37953520  0.81940130  1
  H+  H98  1  0.53523985  0.38657262  0.49518204  1
  H+  H99  1  0.41301032  0.82315056  0.90003352  1
  H+  H100  1  0.73111623  0.36588671  -0.00132295  1
  H+  H101  1  0.91236081  0.08328847  0.22826606  1
  H+  H102  1  0.11865250  0.65756099  0.33883454  1
  H+  H103  1  0.37260210  0.98902614  -0.01584028  1
  H+  H104  1  0.14997293  0.18477451  0.79725032  1
  H+  H105  1  0.36740112  0.48448275  0.34364785  1
  H+  H106  1  0.27681020  0.14110694  0.81568810  1
  H+  H107  1  0.11181235  0.13126952  0.32487282  1
  H+  H108  1  0.05226584  0.06516366  0.50247867  1
  H+  H109  1  0.02292023  0.64308122  0.34074247  1
  H+  H110  1  0.38655948  0.12611404  0.98917258  1
  H+  H111  1  0.86912972  0.89030238  0.33241338  1
  H+  H112  1  0.39731404  0.13848259  0.83307329  1
  H+  H113  1  0.53485538  0.86460777  0.48797346  1
  H+  H114  1  0.86026101  0.96465592  0.00551717  1
  H+  H115  1  0.40815909  0.33025061  0.89424771  1
  H+  H116  1  0.27386465  0.39707598  1.01694273  1
  H+  H117  1  0.03203701  0.88856399  0.68006669  1
  H+  H118  1  0.71402594  0.59629918  1.00807391  1
  H+  H119  1  0.37301641  0.42975488  0.09992702  1
  H+  H120  1  0.61410419  0.89013186  0.00728833  1
  H+  H121  1  1.00195102  0.63243429  0.82623604  1
  H+  H122  1  0.63570177  1.03155980  0.16449056  1
  H+  H123  1  0.39532204  0.14561607  0.17154832  1
  H+  H124  1  0.46894871  0.61248864  0.99078118  1
  H+  H125  1  0.87399350  0.62027176  0.84332675  1
  H+  H126  1  0.46967504  0.35938608  0.99342231  1
  H+  H127  1  0.62172957  0.15362470  0.15466620  1
  H+  H128  1  0.97835021  0.36526454  0.99937768  1
  H+  H129  1  0.64119997  0.51970551  0.66000490  1
  H+  H130  1  0.64096540  0.78032013  0.17417929  1
  H+  H131  1  0.28858934  0.89600748  -0.01008088  1
  H+  H132  1  0.88221141  0.11393823  0.16886296  1
  H+  H133  1  0.11412199  0.08597776  0.84560076  1
  H+  H134  1  0.27255726  0.14182571  0.00826393  1
  H+  H135  1  0.77048519  0.14441616  0.00575032  1
  H+  H136  1  0.05998621  0.08652422  0.53295289  1
  H+  H137  1  0.18696210  0.11725541  0.50476293  1
  H+  H138  1  0.10910178  0.51818566  0.45734309  1
  H+  H139  1  0.38801090  0.32547864  0.24841885  1
  H+  H140  1  0.76434511  0.86704619  0.84332151  1
  H+  H141  1  0.53107657  0.63956268  0.34222449  1
  H+  H142  1  0.13136422  0.78568112  0.32759241  1
  H+  H143  1  0.39508051  0.87664668  -0.01976430  1
  H+  H144  1  0.38505083  0.36730867  0.99243826  1
  H+  H145  1  1.01251357  0.37862133  0.68209186  1
  H+  H146  1  0.94043052  0.83210637  1.02581652  1
  H+  H147  1  0.86651524  0.39579805  1.01057683  1
  H+  H148  1  0.22528333  0.37012063  0.83260973  1
  H+  H149  1  0.10743726  0.22242466  0.66293499  1
  H+  H150  1  0.74261377  0.12606591  0.83847980  1
  H+  H151  1  0.59080783  0.18551346  0.09797009  1
  H+  H152  1  0.39664371  0.98576703  0.48252087  1
  H+  H153  1  0.88617588  0.35116188  0.83973395  1
  H+  H154  1  0.13467579  0.52876311  0.18080458  1
  H+  H155  1  0.61202037  0.22518883  0.48940444  1
  H+  H156  1  0.46146631  0.84635220  0.29141604  1
  H+  H157  1  0.27740927  0.64482984  0.16239896  1
  H+  H158  1  0.37429523  0.59993646  0.83686628  1
  H+  H159  1  0.43103612  0.06475420  0.57506691  1
  H+  H160  1  0.98131489  0.61955288  0.99786620  1
  H+  H161  1  0.37472881  0.78678962  0.65044227  1
  H+  H162  1  0.13712871  -0.12298735  0.32239256  1
  H+  H163  1  0.52953461  0.07417609  0.04778900  1
  H+  H164  1  0.21399110  0.59843022  0.65611279  1
  H+  H165  1  0.73337739  0.84942731  0.50235455  1
  H+  H166  1  0.63447280  0.84006949  0.86023637  1
  H+  H167  1  0.72775891  0.11330368  0.50149426  1
  H+  H168  1  1.00989959  0.39190577  0.17040848  1
  H+  H169  1  0.67666009  0.34233262  0.90124815  1
  H+  H170  1  0.77704676  0.40070317  0.16685030  1
  H+  H171  1  0.42611012  0.59015290  0.26943189  1
  H+  H172  1  0.62421867  0.47667017  0.49358031  1
  H+  H173  1  0.35987282  0.70030583  0.49032613  1
  H+  H174  1  0.49948040  0.09211347  0.52087056  1
  H+  H175  1  0.72967050  0.86296726  1.00708132  1
  H+  H176  1  0.25386756  0.13045433  0.16249222  1
  H+  H177  1  0.58862970  0.66548229  0.40217412  1
  H+  H178  1  1.10266792  0.72294939  0.50039834  1
  H+  H179  1  0.22842607  0.86328096  0.66519332  1
  H+  H180  1  0.23226320  0.36758866  0.32387774  1
  H+  H181  1  0.87806830  0.35794582  0.51111694  1
  H+  H182  1  0.48663116  0.13886165  0.83725333  1
  H+  H183  1  0.40225665  0.62144577  0.17266659  1
  H+  H184  1  0.12364977  0.61508339  0.95887330  1
  H+  H185  1  0.64026284  0.11654117  0.49585861  1
  H+  H186  1  0.58116320  0.41085348  0.72775976  1
  H+  H187  1  0.86981238  -0.01920129  0.33250473  1
  H+  H188  1  0.77021081  0.38116432  0.49865727  1
  H+  H189  1  0.88409558  0.52382998  0.32852480  1
  H+  H190  1  0.88814744  0.02950508  0.63297962  1
  H+  H191  1  0.86000637  0.97762086  0.15944774  1
  H+  H192  1  0.62492912  0.24373353  0.82275955  1
  H+  H193  1  0.35370893  0.37950665  0.82643626  1
  H+  H194  1  0.86042712  0.47144534  0.49446209  1
  H+  H195  1  0.72784238  0.86580354  0.32282853  1
  H+  H196  1  0.12433020  -0.01639200  1.00302753  1
  H+  H197  1  0.60260509  0.70674139  0.83254703  1
  H+  H198  1  0.11294633  0.36726477  0.01302479  1
  H+  H199  1  0.67257402  0.34050787  0.23985228  1
  H+  H200  1  0.51155474  0.62180507  0.82652658  1
  H+  H201  1  0.85627502  0.22069955  0.49040436  1
  H+  H202  1  0.13418958  0.01079021  0.84296908  1
  H+  H203  1  0.64341539  0.61715400  0.33030340  1
  H+  H204  1  0.61397649  0.89313530  0.15959926  1
  H+  H205  1  0.50258970  0.12179024  1.00096150  1
  H+  H206  1  0.54648213  0.94659210  0.36351540  1
  H+  H207  1  0.89738464  0.89263018  0.48454926  1
  H+  H208  1  0.72422216  0.61661350  0.85123811  1
  H+  H209  1  0.13835490  0.61883331  0.17531791  1
  H+  H210  1  0.36371438  0.89589397  0.22453341  1
  H+  H211  1  0.76233167  0.13115064  0.64448204  1
  H+  H212  1  0.44828947  0.79799877  0.84085226  1
  H+  H213  1  0.11431213  0.72388244  0.68120769  1
  H+  H214  1  0.59515178  0.13174612  0.66551290  1
  H+  H215  1  0.85034897  0.92399116  0.41813067  1
  H+  H216  1  0.62244192  0.71409033  0.49721210  1
  H+  H217  1  0.10631019  0.23325544  0.47469377  1
  H+  H218  1  0.37816553  0.27272716  0.83254311  1
  H+  H219  1  0.88599761  0.85684667  0.85092613  1
  H+  H220  1  0.86657347  0.12867493  0.83300939  1
  H+  H221  1  0.38610406  0.83507064  0.48620735  1
  H+  H222  1  0.63375753  0.86140426  0.65275063  1
  H+  H223  1  0.64428563  0.05229051  0.82710873  1
  H+  H224  1  0.37720443  0.36539657  0.17634731  1
  H+  H225  1  0.40355978  0.35739503  0.50630127  1
  H+  H226  1  0.38663113  0.26848369  0.66326607  1
  H+  H227  1  0.92052106  0.09062321  0.54401142  1
  H+  H228  1  0.12213365  0.85068993  0.16973130  1
  H+  H229  1  0.86094971  0.52768084  0.85412985  1
  H+  H230  1  0.63772780  0.77352576  1.00507124  1
  H+  H231  1  0.16914264  0.36354401  0.51347008  1
  H+  H232  1  0.13443387  -0.01939275  0.49069964  1
  H+  H233  1  -0.02762921  0.12956655  0.48023288  1
  H+  H234  1  0.40835164  0.49019169  0.15785872  1
  H+  H235  1  0.86060308  0.63282441  0.67560498  1
  H+  H236  1  0.64545671  0.61211453  0.66137777  1
  H+  H237  1  0.27156547  0.11101754  0.51292018  1
  H+  H238  1  0.84057245  0.70828309  0.01400779  1
  H+  H239  1  0.85531341  0.38012773  0.67114877  1
  H+  H240  1  0.35933356  0.23262455  0.00815176  1
  H+  H241  1  0.02477667  0.50715693  0.42439632  1
  H+  H242  1  0.47799796  0.87943661  0.17041116  1
  H+  H243  1  0.76681019  0.38422174  0.66992001  1
  H+  H244  1  0.13268359  0.11010840  0.99650917  1
  H+  H245  1  0.47924795  0.37345503  0.32108609  1
  H+  H246  1  0.62699752  0.40452426  0.16813265  1
  H+  H247  1  0.10184567  0.12327609  0.15843565  1
  H+  H248  1  0.14126067  0.02738106  0.65992673  1
  H+  H249  1  0.72715043  0.11949766  0.16082563  1
  H+  H250  1  1.02458102  0.63608823  0.15663338  1
  H+  H251  1  0.36728378  0.74136538  0.99984848  1
  H+  H252  1  0.09174091  0.20853040  0.00908397  1
  H+  H253  1  0.86375244  0.48332594  0.01011671  1
  H+  H254  1  0.73100408  0.13805669  0.31140820  1
  H+  H255  1  0.89314115  1.01122477  0.83130374  1
  H+  H256  1  0.15671995  0.82411714  0.57061345  1
  H+  H257  1  0.88980918  0.62801357  0.18213720  1
  H+  H258  1  0.13190837  0.76689280  0.83982869  1
  H+  H259  1  0.90249100  0.46898394  0.80640727  1
  H+  H260  1  0.85002800  0.13143499  0.64851792  1
  H+  H261  1  0.13331553  0.85579740  0.50949179  1
  H+  H262  1  0.32716423  0.41465588  0.73242084  1
  H+  H263  1  0.85739704  0.22669426  0.15854124  1
  H+  H264  1  -0.02806384  0.08784257  -0.00810494  1
  H+  H265  1  0.73322837  0.61963072  0.50834725  1
  H+  H266  1  0.09056800  0.66129041  0.05951229  1
  H+  H267  1  0.60890270  0.62266401  -0.00131181  1
  H+  H268  1  -0.02063410  0.11541976  0.31795615  1
  H+  H269  1  0.97940309  0.36324480  0.84327101  1
  H+  H270  1  0.16332378  0.32742782  0.92217438  1
  H+  H271  1  0.86149295  0.72733637  0.82927765  1
  H+  H272  1  0.06974644  0.65271711  0.76945968  1
  H+  H273  1  0.15050094  0.27304617  0.16095227  1
  H+  H274  1  0.64879421  0.28989837  0.17607878  1
  H+  H275  1  0.15711731  0.55869920  0.55574848  1
  H+  H276  1  0.01509895  0.12960978  0.15684942  1
  H+  H277  1  0.63679517  0.27566544  0.65806241  1
  H+  H278  1  0.86927003  0.89221003  0.67561260  1
  H+  H279  1  0.88057041  -0.01172798  0.47853369  1
  H+  H280  1  0.35583614  0.47031328  0.82739928  1
  H+  H281  1  0.64202391  0.77647193  0.32513430  1
  H+  H282  1  0.48165975  0.86916552  0.98621352  1
  H+  H283  1  0.27823625  0.65430523  -0.00102912  1
  H+  H284  1  0.07274536  0.37083943  0.48598127  1
  H+  H285  1  0.12398453  1.01572997  0.17376053  1
  H+  H286  1  0.39086146  0.59812170  0.50360751  1
  H+  H287  1  0.76840060  0.62853499  0.67387473  1
  H+  H288  1  0.33364152  0.67684017  0.10227179  1
  H+  H289  1  0.86010540  0.96257691  0.71299640  1
  H+  H290  1  0.39191334  0.57142950  0.59494204  1
  H+  H291  1  0.67663406  0.59161027  0.26991791  1
  H+  H292  1  0.58590492  0.42038501  0.39703343  1
  H+  H293  1  0.82880560  0.91333474  0.07175761  1
  H+  H294  1  0.15156030  0.07707252  0.23532610  1
  H+  H295  1  0.35931375  0.15284209  0.44675105  1
  H+  H296  1  0.42856438  0.10671781  0.25675252  1
  H+  H297  1  0.88085788  0.76585781  0.68371357  1
  H+  H298  1  0.96417620  0.35276025  0.51354318  1
  H+  H299  1  0.83150694  0.17041162  0.09703912  1
  H+  H300  1  0.09347143  0.92012850  0.73661218  1
  H+  H301  1  0.91589794  0.82588344  0.90905874  1
  H+  H302  1  0.92153704  0.34148307  0.93883993  1
  H+  H303  1  0.60240704  0.37595450  0.01078294  1
  H+  H304  1  0.66678044  0.83893290  0.23376694  1
  H+  H305  1  0.32720771  0.90951333  0.76476952  1
  H+  H306  1  0.85662039  0.23509550  0.00899566  1
  H+  H307  1  0.33197749  0.64275563  0.43218140  1
  H+  H308  1  0.40542021  0.57691236  0.89874251  1
  H+  H309  1  0.07173434  0.43853832  0.36253621  1
  H+  H310  1  0.34404478  0.25704169  0.18330329  1
  H+  H311  1  0.07226692  0.90901400  0.09862449  1
  H+  H312  1  0.58743798  0.42466862  0.11060087  1
  H+  H313  1  0.16591469  0.08308403  0.93637319  1
  H+  H314  1  0.18959876  0.33724504  0.21410243  1
  H+  H315  1  0.91672010  0.59357023  0.94160848  1
  H+  H316  1  0.66940212  0.82340543  0.92195799  1
  H+  H317  1  0.47711492  0.83348660  0.64423790  1
  H+  H318  1  0.89449095  0.32498078  0.23192117  1
  H+  H319  1  0.07228201  0.15126074  0.07010679  1
  H+  H320  1  0.82479851  0.15621414  0.39296686  1
  H+  H321  1  0.11654512  0.22541514  0.32219982  1
  H+  H322  1  0.74824708  0.62991999  0.18228122  1
  H+  H323  1  0.83786376  0.68466811  0.43432835  1
  H+  H324  1  0.60062032  0.66645189  0.10928855  1
  H+  H325  1  0.91704546  0.58059148  0.60288401  1
  H+  H326  1  0.64151175  0.36359811  0.50359429  1
  H+  H327  1  0.88001601  0.75993957  0.17642501  1
  H+  H328  1  0.11139784  0.72434889  0.15636129  1
  H+  H329  1  0.08259305  0.43132983  0.77205850  1
  H+  H330  1  0.83371563  0.41171042  0.75807340  1
  H+  H331  1  0.62801446  0.10493071  0.98598275  1
  H+  H332  1  0.62884115  0.15762170  0.82465104  1
  H+  H333  1  0.91726948  0.58770168  0.27044973  1
  H+  H334  1  0.18005503  0.08338993  0.59973069  1
  H+  H335  1  0.68188985  0.81767060  0.56423509  1
  H+  H336  1  0.58456364  0.04259955  0.37846319  1
  H+  H337  1  0.26663503  0.87487002  0.12645964  1
  H+  H338  1  0.66671299  0.33154932  0.56458502  1
  H+  H339  1  0.08203381  0.41013603  0.12219013  1
  H+  H340  1  0.29773940  0.88718110  0.10035063  1
  H+  H341  1  0.66942245  0.08786315  0.92675081  1
  H+  H342  1  0.31834922  0.17214456  0.10460974  1
  H+  H343  1  0.39083847  0.86889271  0.30363211  1
  H+  H344  1  0.82815604  0.66514126  0.76909623  1
  H+  H345  1  0.86429091  0.64157301  0.34270498  1
  H+  H346  1  0.92036345  0.05807488  0.92914471  1
  H+  H347  1  0.91013907  0.32960203  0.60719058  1
  H+  H348  1  0.18014776  0.32409199  0.57306153  1
  H+  H349  1  0.22240282  0.35916876  0.66696660  1
  H+  H350  1  0.38829126  0.36025425  0.65820855  1
  H+  H351  1  0.80087209  0.86979309  0.77841965  1
  H+  H352  1  0.08167646  0.16944040  0.74730843  1
  H+  H353  1  0.89025882  0.53760196  0.17863093  1
  H+  H354  1  0.02702465  0.88031514  0.83348834  1
  H+  H355  1  0.33988080  0.42086823  0.40159827  1
  H+  H356  1  0.90068610  0.79459544  0.49623904  1
  H+  H357  1  0.49306251  0.62491970  0.17711956  1
  H+  H358  1  0.42152587  0.10850584  0.92406610  1
  H+  H359  1  0.83476363  0.66621386  0.11894230  1
  H+  H360  1  0.91852083  0.83414862  0.26435015  1
  H+  H361  1  0.58511986  0.92208698  0.09895735  1
  H+  H362  1  0.97988774  0.61961797  0.48836895  1
  H+  H363  1  0.21266557  0.11624931  0.31404465  1
  H+  H364  1  0.33684997  0.17811158  0.75203175  1
  H+  H365  1  0.56705372  0.92018640  0.71130602  1
  H+  H366  1  0.57784602  0.16422902  0.43007752  1
  H+  H367  1  0.14712357  0.82298067  0.23123548  1
  H+  H368  1  0.53512794  0.03422323  0.59668324  1
  H+  H369  1  0.37963645  0.12900581  0.66572078  1
  H+  H370  1  0.37532824  0.73676846  0.34976886  1
  H+  H371  1  0.83358246  0.42759340  0.10562465  1
  H+  H372  1  0.67480938  0.58101764  0.56773707  1
  H+  H373  1  0.09582944  0.93003880  0.42730836  1
  H+  H374  1  0.61528991  0.97970425  -0.00022116  1
  H+  H375  1  0.17488713  0.60061629  0.26806155  1
  H+  H376  1  0.82641567  0.40991997  0.40272458  1
  H+  H377  1  0.13081385  0.28775667  0.82621158  1
  H+  H378  1  0.42984430  0.33103652  0.56875741  1
  H+  H379  1  0.58919695  0.17377637  0.72985737  1
  H+  H380  1  0.41253816  0.80655441  0.54915147  1
  H+  H381  1  0.07100337  0.18635385  0.40904699  1
  H+  H382  1  0.08221634  0.67322924  0.43666996  1
  H+  H383  1  0.58990574  0.65948338  0.73037919  1
  O2-  O384  1  0.07412666  0.15439788  0.13910829  1
  O2-  O385  1  0.05484274  0.20081817  0.44963136  1
  O2-  O386  1  0.09259865  0.17752336  0.79330238  1
  O2-  O387  1  0.07295772  0.42683979  0.16271122  1
  O2-  O388  1  0.07487545  0.50097297  0.41766463  1
  O2-  O389  1  0.08714432  0.43527880  0.81809617  1
  O2-  O390  1  0.08411361  0.66328610  0.13959711  1
  O2-  O391  1  0.07132669  0.66354377  0.48119702  1
  O2-  O392  1  0.06327070  0.65141180  0.81556894  1
  O2-  O393  1  0.07169732  0.90927530  0.14330264  1
  O2-  O394  1  0.09295350  0.92332072  0.47329444  1
  O2-  O395  1  0.08576810  0.91083795  0.81588644  1
  O2-  O396  1  0.31562453  0.17045108  0.14990208  1
  O2-  O397  1  0.36292783  0.15796975  0.49192556  1
  O2-  O398  1  0.33587645  0.17835959  0.80189835  1
  O2-  O399  1  0.40775274  0.44086601  0.13720825  1
  O2-  O400  1  0.35149635  0.41066531  0.47966875  1
  O2-  O401  1  0.32252868  0.41016445  0.81139857  1
  O2-  O402  1  0.33770066  0.67605402  0.14704189  1
  O2-  O403  1  0.33096633  0.63799234  0.47739897  1
  O2-  O404  1  0.31617837  0.64372433  0.80850951  1
  O2-  O405  1  0.34541274  0.91241447  0.26262211  1
  O2-  O406  1  0.36956469  0.96899895  0.44102487  1
  O2-  O407  1  0.31872043  0.89446228  0.80865492  1
  O2-  O408  1  0.59816252  0.19186519  0.14244396  1
  O2-  O409  1  0.58187042  0.16443438  0.47554982  1
  O2-  O410  1  0.59593056  0.18363999  0.80700827  1
  O2-  O411  1  0.60019042  0.43814699  0.15409098  1
  O2-  O412  1  0.59450850  0.41693796  0.47672052  1
  O2-  O413  1  0.57502898  0.40700867  0.80148779  1
  O2-  O414  1  0.59983393  0.67152132  0.15329101  1
  O2-  O415  1  0.58168735  0.65448134  0.48049937  1
  O2-  O416  1  0.57320332  0.64935827  0.81394612  1
  O2-  O417  1  0.58524724  0.92491553  0.14411739  1
  O2-  O418  1  0.59778863  0.89777435  0.49025807  1
  O2-  O419  1  0.55870443  0.95202978  0.79074119  1
  O2-  O420  1  0.83038290  0.16635387  0.14319195  1
  O2-  O421  1  0.82640757  0.16305472  0.47140091  1
  O2-  O422  1  0.83807024  0.16098956  0.82072479  1
  O2-  O423  1  0.83761176  0.42954430  0.15077108  1
  O2-  O424  1  0.83195782  0.40934409  0.48373602  1
  O2-  O425  1  0.84623442  0.41727059  0.80383128  1
  O2-  O426  1  0.83880671  0.67181805  0.16339518  1
  O2-  O427  1  0.84191598  0.69087685  0.48011921  1
  O2-  O428  1  0.82913024  0.66681392  0.81481995  1
  O2-  O429  1  0.82958980  0.91661778  0.14443681  1
  O2-  O430  1  0.85649546  0.92624465  0.46518148  1
  O2-  O431  1  0.81959654  0.89250732  0.81934937  1
  O2-  O432  1  0.15349411  0.07667407  0.18725060  1
  O2-  O433  1  0.20602693  0.08105220  0.52416772  1
  O2-  O434  1  0.15787658  0.07178116  0.85739954  1
  O2-  O435  1  0.19271743  0.33341417  0.16959216  1
  O2-  O436  1  0.18945962  0.32554256  0.52800767  1
  O2-  O437  1  0.16283587  0.34405715  0.84699200  1
  O2-  O438  1  0.16944216  0.59087745  0.19379516  1
  O2-  O439  1  0.16753364  0.54066848  0.51607730  1
  O2-  O440  1  0.08174469  0.54992136  0.88241619  1
  O2-  O441  1  0.14922578  0.81843185  0.18592193  1
  O2-  O442  1  0.15441468  0.81864704  0.52591797  1
  O2-  O443  1  0.16438540  0.82748929  0.85276938  1
  O2-  O444  1  0.43161830  0.12245518  0.18654438  1
  O2-  O445  1  0.45611576  0.04196937  0.54522852  1
  O2-  O446  1  0.42798500  0.11260664  0.85429900  1
  O2-  O447  1  0.35655344  0.31218059  0.20538925  1
  O2-  O448  1  0.43547775  0.32981283  0.52317350  1
  O2-  O449  1  0.40693789  0.33363510  0.84916579  1
  O2-  O450  1  0.43169406  0.59242081  0.19033579  1
  O2-  O451  1  0.42200641  0.57189234  0.52458733  1
  O2-  O452  1  0.40744136  0.57344460  0.85353957  1
  O2-  O453  1  0.41885339  0.85080163  0.18732659  1
  O2-  O454  1  0.41172109  0.80239148  0.50431642  1
  O2-  O455  1  0.40489925  0.81191201  0.85377051  1
  O2-  O456  1  0.66544849  0.09422616  0.17414079  1
  O2-  O457  1  0.66753618  0.08697211  0.51649721  1
  O2-  O458  1  0.67992203  0.10452647  0.85089630  1
  O2-  O459  1  0.67793377  0.34840365  0.19470981  1
  O2-  O460  1  0.67008467  0.33123575  0.51908514  1
  O2-  O461  1  0.67679392  0.34491759  0.85593768  1
  O2-  O462  1  0.68250764  0.60001439  0.19520897  1
  O2-  O463  1  0.67365615  0.57960415  0.52209055  1
  O2-  O464  1  0.67087109  0.59569431  0.87483087  1
  O2-  O465  1  0.66670113  0.84121363  0.18733016  1
  O2-  O466  1  0.69941463  0.79867334  0.52748162  1
  O2-  O467  1  0.66752333  0.81459862  0.87532121  1
  O2-  O468  1  0.91159072  0.08196406  0.18258780  1
  O2-  O469  1  0.91441238  0.08560395  0.49889916  1
  O2-  O470  1  0.92485612  0.07027141  0.84740320  1
  O2-  O471  1  0.90190090  0.33002028  0.18681563  1
  O2-  O472  1  0.90478023  0.32432766  0.52799900  1
  O2-  O473  1  0.92040186  0.32908989  0.86000274  1
  O2-  O474  1  0.92325013  0.59689037  0.19521953  1
  O2-  O475  1  0.91091586  0.58451162  0.48892269  1
  O2-  O476  1  0.90340819  0.58831393  0.86009566  1
  O2-  O477  1  0.91444123  0.82790071  0.18846008  1
  O2-  O478  1  0.93290975  0.85820031  0.50575481  1
  O2-  O479  1  0.91951904  0.82917794  0.86395727  1
  O2-  O480  1  0.15219428  0.08198071  0.30296037  1
  O2-  O481  1  0.16501435  0.08615616  0.64321185  1
  O2-  O482  1  0.16766496  0.08394764  0.98172472  1
  O2-  O483  1  0.17578241  0.33450159  0.30289685  1
  O2-  O484  1  0.16187566  0.32774007  0.64967077  1
  O2-  O485  1  0.16810309  0.31712440  0.96687170  1
  O2-  O486  1  0.18290842  0.61478535  0.31326461  1
  O2-  O487  1  0.15332366  0.57169061  0.64554431  1
  O2-  O488  1  0.15250393  0.59639997  0.92726566  1
  O2-  O489  1  0.16107006  0.84150887  0.30588357  1
  O2-  O490  1  0.16644358  0.82561901  0.65505467  1
  O2-  O491  1  0.17519704  0.83059186  0.97664015  1
  O2-  O492  1  0.42295327  0.08500736  0.30038926  1
  O2-  O493  1  0.40806732  0.09236187  0.65158697  1
  O2-  O494  1  0.41793531  0.09916741  0.97044232  1
  O2-  O495  1  0.41771490  0.34427747  0.30906537  1
  O2-  O496  1  0.41953691  0.33106431  0.64477214  1
  O2-  O497  1  0.40972575  0.33261819  0.97642242  1
  O2-  O498  1  0.42505859  0.58921452  0.31490714  1
  O2-  O499  1  0.35859374  0.56475560  0.63398559  1
  O2-  O500  1  0.40738639  0.58446638  0.97850415  1
  O2-  O501  1  0.42723790  0.84857930  0.32521175  1
  O2-  O502  1  0.42039422  0.78557636  0.62755611  1
  O2-  O503  1  0.42153796  0.83875480  0.96958435  1
  O2-  O504  1  0.68977262  0.15016084  0.29000433  1
  O2-  O505  1  0.58977798  0.04715705  0.61696994  1
  O2-  O506  1  0.66423249  0.08076485  0.97211671  1
  O2-  O507  1  0.66413266  0.33267897  0.31819739  1
  O2-  O508  1  0.66914721  0.33650923  0.64300822  1
  O2-  O509  1  0.67115078  0.33395314  0.98115707  1
  O2-  O510  1  0.67489667  0.58742621  0.31594768  1
  O2-  O511  1  0.67609550  0.58086624  0.64578876  1
  O2-  O512  1  0.65406643  0.56811169  0.99098005  1
  O2-  O513  1  0.66858743  0.83449173  0.30664667  1
  O2-  O514  1  0.66590345  0.83081544  0.64459543  1
  O2-  O515  1  0.66768431  0.83415560  0.99108815  1
  O2-  O516  1  0.91703799  0.08110727  0.30533416  1
  O2-  O517  1  0.91618240  0.09087348  0.62179133  1
  O2-  O518  1  0.91442340  0.05017340  0.97361960  1
  O2-  O519  1  0.89347048  0.31885778  0.30997745  1
  O2-  O520  1  0.90821541  0.32826266  0.65260280  1
  O2-  O521  1  0.91956150  0.34546230  0.98396617  1
  O2-  O522  1  0.91580531  0.58543214  0.31672133  1
  O2-  O523  1  0.91738019  0.57941999  0.64730022  1
  O2-  O524  1  0.91892178  0.59009051  0.98647619  1
  O2-  O525  1  0.92018129  0.83936004  0.31021613  1
  O2-  O526  1  0.91403269  0.83037060  0.69100265  1
  O2-  O527  1  0.90111610  0.82217786  0.99214703  1
  O2-  O528  1  0.07275863  0.14986400  0.02289062  1
  O2-  O529  1  0.08177435  0.16615053  0.33882046  1
  O2-  O530  1  0.07355120  0.16013801  0.67502946  1
  O2-  O531  1  0.08492861  0.39832146  0.02882554  1
  O2-  O532  1  0.06697554  0.40374626  0.32520117  1
  O2-  O533  1  0.07329035  0.41103212  0.69720667  1
  O2-  O534  1  0.08948173  0.66350667  0.01374177  1
  O2-  O535  1  0.08229299  0.67883700  0.35726735  1
  O2-  O536  1  0.08217372  0.66201932  0.69524897  1
  O2-  O537  1  0.09254460  0.91970545  0.01196336  1
  O2-  O538  1  0.09097214  0.93544317  0.35275166  1
  O2-  O539  1  0.09353760  0.92016260  0.69117689  1
  O2-  O540  1  0.33200630  0.17280088  0.02495531  1
  O2-  O541  1  0.32567511  0.12610139  0.37026281  1
  O2-  O542  1  0.34210736  0.18000912  0.68871862  1
  O2-  O543  1  0.33591624  0.42457790  0.02334103  1
  O2-  O544  1  0.33526127  0.42299084  0.35643588  1
  O2-  O545  1  0.32281117  0.41111547  0.68710716  1
  O2-  O546  1  0.33611918  0.68031312  0.01568965  1
  O2-  O547  1  0.34399306  0.67364996  0.35609084  1
  O2-  O548  1  0.41700260  0.64002095  0.67032996  1
  O2-  O549  1  0.35154957  0.92858314  -0.00325701  1
  O2-  O550  1  0.34921147  0.88004659  0.43337446  1
  O2-  O551  1  0.33524476  0.93583922  0.68662184  1
  O2-  O552  1  0.55531548  0.12729754  0.02421252  1
  O2-  O553  1  0.57815257  0.16345601  0.35323034  1
  O2-  O554  1  0.58177740  0.17371916  0.68464296  1
  O2-  O555  1  0.56851080  0.40208929  0.02522160  1
  O2-  O556  1  0.58481215  0.41985078  0.35161104  1
  O2-  O557  1  0.58515028  0.41453602  0.68167858  1
  O2-  O558  1  0.58067868  0.66003884  -0.00714675  1
  O2-  O559  1  0.59177186  0.66855283  0.35664172  1
  O2-  O560  1  0.60122104  0.66256081  0.68631934  1
  O2-  O561  1  0.58180776  0.92014936  0.01732404  1
  O2-  O562  1  0.59653891  0.99547024  0.38165932  1
  O2-  O563  1  0.56901152  0.90717621  0.66802161  1
  O2-  O564  1  0.82827338  0.17542958  0.02428121  1
  O2-  O565  1  0.82843902  0.15480314  0.34773293  1
  O2-  O566  1  0.81745920  0.15806899  0.66526714  1
  O2-  O567  1  0.83220881  0.42256667  0.02459064  1
  O2-  O568  1  0.82724703  0.41355418  0.35754207  1
  O2-  O569  1  0.82844157  0.41467036  0.68539512  1
  O2-  O570  1  0.81600468  0.64969009  0.03072633  1
  O2-  O571  1  0.83610725  0.67342858  0.35854951  1
  O2-  O572  1  0.82954774  0.66127801  0.69176238  1
  O2-  O573  1  0.82510841  0.90507529  0.02564751  1
  O2-  O574  1  0.83968121  0.92083614  0.34974935  1
  O2-  O575  1  0.84197185  0.92917663  0.67555908  1
