# generated using pymatgen
data_H2O
_symmetry_space_group_name_H-M   'P 1'
_cell_length_a   17.99273688
_cell_length_b   17.99184385
_cell_length_c   22.00914964
_cell_angle_alpha   90.02899042
_cell_angle_beta   89.97704601
_cell_angle_gamma   120.00951939
_symmetry_Int_Tables_number   1
_chemical_formula_structural   H2O
_chemical_formula_sum   'H384 O192'
_cell_volume   6169.71450533
_cell_formula_units_Z   192
loop_
 _symmetry_equiv_pos_site_id
 _symmetry_equiv_pos_as_xyz
  1  'x, y, z'
loop_
 _atom_type_symbol
 _atom_type_oxidation_number
  H+  1.0
  O2-  -2.0
loop_
 _atom_site_type_symbol
 _atom_site_label
 _atom_site_symmetry_multiplicity
 _atom_site_fract_x
 _atom_site_fract_y
 _atom_site_fract_z
 _atom_site_occupancy
  H+  H0  1  0.96394605  0.83836946  0.16660285  1
  H+  H1  1  0.11893625  0.22460709  0.00162884  1
  H+  H2  1  0.13260868  0.47339439  0.33026142  1
  H+  H3  1  0.86725492  0.97398095  0.00719815  1
  H+  H4  1  0.34133237  0.62299520  0.67562982  1
  H+  H5  1  0.61539051  0.26368674  0.48938497  1
  H+  H6  1  0.60476785  0.06346225  0.52229247  1
  H+  H7  1  0.41891008  0.33368860  0.26709977  1
  H+  H8  1  0.05268109  0.37870363  0.02757641  1
  H+  H9  1  0.63896090  0.71219399  0.17659245  1
  H+  H10  1  0.45861610  0.60839997  0.65713440  1
  H+  H11  1  0.38535843  0.86186369  0.50452019  1
  H+  H12  1  0.57839169  0.15783636  0.41471320  1
  H+  H13  1  0.02063237  0.62897282  0.83500555  1
  H+  H14  1  0.62578868  0.76077739  0.67170040  1
  H+  H15  1  -0.04637424  0.61738600  0.32275782  1
  H+  H16  1  0.64272729  0.85114765  0.17395356  1
  H+  H17  1  0.15272172  0.33330758  0.22530661  1
  H+  H18  1  0.08705349  0.63960404  0.32150978  1
  H+  H19  1  0.87016511  0.16132023  0.14152358  1
  H+  H20  1  0.48143264  0.10993419  0.67099698  1
  H+  H21  1  0.91437478  0.77336498  0.66397938  1
  H+  H22  1  0.71607739  0.37006551  0.30044023  1
  H+  H23  1  0.24649074  0.59665930  0.69756515  1
  H+  H24  1  0.38748953  0.61775371  0.50279682  1
  H+  H25  1  0.51874263  0.63847919  0.49868209  1
  H+  H26  1  0.64886845  0.11285488  0.65235835  1
  H+  H27  1  0.15305326  0.63094010  0.00771826  1
  H+  H28  1  0.23907136  0.86956590  -0.00322302  1
  H+  H29  1  0.59189115  0.61500094  0.68237065  1
  H+  H30  1  0.36383935  0.96603183  0.67385218  1
  H+  H31  1  0.75589564  0.64297205  0.32903311  1
  H+  H32  1  0.51439454  0.11372678  0.33747324  1
  H+  H33  1  0.38301479  0.77024507  0.50875266  1
  H+  H34  1  0.39362851  0.51259706  0.33094709  1
  H+  H35  1  1.02177216  0.63171167  0.17652804  1
  H+  H36  1  0.14739132  0.12113943  0.49510338  1
  H+  H37  1  0.91379015  0.54103077  0.51915215  1
  H+  H38  1  0.87941920  0.10394204  0.50057013  1
  H+  H39  1  0.40672171  0.11220264  0.17390127  1
  H+  H40  1  0.39309155  0.37416047  0.17947933  1
  H+  H41  1  0.62853253  0.90249425  0.82729858  1
  H+  H42  1  0.71972657  0.85389368  0.32731707  1
  H+  H43  1  0.11859279  0.87254243  0.67788154  1
  H+  H44  1  0.63190716  0.75721049  0.51410544  1
  H+  H45  1  0.38726966  0.26733312  0.32449303  1
  H+  H46  1  0.85450432  0.72059820  0.00845253  1
  H+  H47  1  0.39205317  0.96582535  0.16017011  1
  H+  H48  1  0.20250727  0.10347684  0.65260438  1
  H+  H49  1  0.40603726  0.38080071  0.85450489  1
  H+  H50  1  0.86504969  0.97503480  0.16166675  1
  H+  H51  1  0.85354134  0.88664745  0.49108662  1
  H+  H52  1  0.62509578  0.48639799  0.86771865  1
  H+  H53  1  0.02280065  0.13524113  0.49077677  1
  H+  H54  1  0.86307028  0.13277014  0.00149088  1
  H+  H55  1  0.20231912  0.61210870  0.34112641  1
  H+  H56  1  0.50100802  0.37702998  0.64578151  1
  H+  H57  1  0.60578901  0.11618957  0.33783092  1
  H+  H58  1  0.63386369  0.52720688  0.50061934  1
  H+  H59  1  0.13662364  0.52778430  0.85513287  1
  H+  H60  1  0.83215300  0.44063094  0.45263967  1
  H+  H61  1  0.06433824  0.03123703  0.19615450  1
  H+  H62  1  0.63157646  0.16004269  0.47591808  1
  H+  H63  1  0.84536977  0.20450732  0.48666716  1
  H+  H64  1  0.13976660  0.86563892  0.50421926  1
  H+  H65  1  0.40658744  0.97797722  0.83709300  1
  H+  H66  1  0.50067353  0.61517187  0.18891508  1
  H+  H67  1  0.91429959  0.82718134  0.93472721  1
  H+  H68  1  0.52391655  0.64258112  -0.00602982  1
  H+  H69  1  0.35245476  0.14462235  0.66139645  1
  H+  H70  1  0.12694973  0.36794635  0.64849251  1
  H+  H71  1  0.88544710  0.78921290  0.49829817  1
  H+  H72  1  0.38114493  0.51848165  0.96542536  1
  H+  H73  1  0.60804277  0.37638218  0.32836944  1
  H+  H74  1  0.61262696  0.21646621  0.64980181  1
  H+  H75  1  0.82990347  0.46394242  0.16399946  1
  H+  H76  1  0.13723432  0.74740761  0.02411801  1
  H+  H77  1  0.21853376  0.83447732  0.83743299  1
  H+  H78  1  0.73658123  0.11288587  0.83231985  1
  H+  H79  1  0.64249545  0.12346326  0.17523449  1
  H+  H80  1  0.38473090  0.10325950  0.32301972  1
  H+  H81  1  0.74809078  0.36379161  0.15850702  1
  H+  H82  1  0.85774508  0.45526155  0.67857433  1
  H+  H83  1  0.96910094  0.12970385  0.17850223  1
  H+  H84  1  0.30305188  0.14564217  0.17498423  1
  H+  H85  1  0.53959097  0.39689960  0.86415414  1
  H+  H86  1  0.73480997  0.35994704  0.84593995  1
  H+  H87  1  0.31274549  0.42046204  0.72030003  1
  H+  H88  1  0.38105963  -0.00310650  0.85012133  1
  H+  H89  1  0.77275358  0.88842868  0.67454475  1
  H+  H90  1  0.85675409  0.65751912  0.46996532  1
  H+  H91  1  0.05403897  0.66331262  0.04797170  1
  H+  H92  1  0.97321820  0.11569760  0.66251452  1
  H+  H93  1  0.90324802  0.36678225  1.00257235  1
  H+  H94  1  0.87611022  0.13268816  0.66281345  1
  H+  H95  1  1.04002215  0.64780980  0.49027899  1
  H+  H96  1  0.72066944  0.61880431  0.49969773  1
  H+  H97  1  0.62714854  0.99279427  0.50212480  1
  H+  H98  1  0.03062327  0.89528613  0.48694651  1
  H+  H99  1  1.02552738  0.12575549  0.34370798  1
  H+  H100  1  0.48296918  0.84940485  0.83675929  1
  H+  H101  1  0.77886043  0.64310771  0.83777040  1
  H+  H102  1  0.14383401  0.77877851  0.49921267  1
  H+  H103  1  0.50906791  0.37164958  0.33403127  1
  H+  H104  1  -0.02162856  0.11154804  -0.00617340  1
  H+  H105  1  0.26151271  0.88353941  0.33796521  1
  H+  H106  1  0.11428050  0.88940081  0.33385641  1
  H+  H107  1  0.15044895  0.03413202  0.49388883  1
  H+  H108  1  0.51271540  0.39492142  0.48222017  1
  H+  H109  1  0.13636038  0.02096319  0.99455480  1
  H+  H110  1  0.86144626  0.61206969  0.32563474  1
  H+  H111  1  0.47955889  0.34946520  0.99142471  1
  H+  H112  1  0.83867264  0.71355893  0.15867055  1
  H+  H113  1  0.13341623  0.27133451  0.50108951  1
  H+  H114  1  0.48469011  0.11310241  0.49775782  1
  H+  H115  1  0.67676138  0.07133065  0.59841351  1
  H+  H116  1  0.87593874  0.23425160  0.66897923  1
  H+  H117  1  0.91203044  1.07920492  0.56087077  1
  H+  H118  1  0.63853087  0.76702757  0.99713759  1
  H+  H119  1  0.40160437  0.54038446  0.18719717  1
  H+  H120  1  0.26863847  0.38981562  0.48846524  1
  H+  H121  1  0.11633007  0.88379857  1.00062630  1
  H+  H122  1  0.37343984  -0.02174286  1.01376455  1
  H+  H123  1  0.73200804  0.35982621  -0.00357570  1
  H+  H124  1  0.61668558  0.23733546  1.02073807  1
  H+  H125  1  0.77036007  0.12435292  0.99723216  1
  H+  H126  1  0.60849288  0.96419569  0.16487777  1
  H+  H127  1  1.03022961  0.38066697  0.48487255  1
  H+  H128  1  0.14273092  0.75905786  0.65942170  1
  H+  H129  1  0.64682888  0.58454595  0.80957705  1
  H+  H130  1  0.87811535  0.02709112  0.66345376  1
  H+  H131  1  0.25159875  0.64819796  0.18581486  1
  H+  H132  1  1.00796278  0.97217553  0.61994262  1
  H+  H133  1  -0.02022089  0.86284381  0.84256760  1
  H+  H134  1  0.35812355  0.48000297  0.48978501  1
  H+  H135  1  0.65811974  0.60576731  0.26189507  1
  H+  H136  1  0.27332142  0.88831122  0.49148944  1
  H+  H137  1  0.39378689  0.86813877  0.65276855  1
  H+  H138  1  0.89710777  0.27662560  -0.00461449  1
  H+  H139  1  0.15216925  0.07555303  0.16195636  1
  H+  H140  1  0.87893988  0.58315833  0.67670576  1
  H+  H141  1  0.59616479  0.38591175  0.48570849  1
  H+  H142  1  0.38780959  0.71358456  0.82612475  1
  H+  H143  1  0.37398212  0.39221114  0.33855427  1
  H+  H144  1  0.53146587  0.61519837  0.73624001  1
  H+  H145  1  0.29317175  0.06350708  0.90119972  1
  H+  H146  1  0.71780666  0.60677157  0.99914338  1
  H+  H147  1  0.85416515  0.72810524  0.33058252  1
  H+  H148  1  0.52593399  0.15012600  1.03081736  1
  H+  H149  1  0.86531474  0.35169750  0.51268190  1
  H+  H150  1  0.91879699  0.07796447  0.93473910  1
  H+  H151  1  1.03309211  0.40667688  0.83607059  1
  H+  H152  1  0.88436656  0.60383744  0.83945709  1
  H+  H153  1  0.67262501  0.83558725  0.94180869  1
  H+  H154  1  0.37316524  0.64108444  0.01998231  1
  H+  H155  1  0.77404937  0.11834624  0.31379499  1
  H+  H156  1  0.13624785  0.51802233  0.49843195  1
  H+  H157  1  0.39759203  0.67936326  0.17554033  1
  H+  H158  1  0.35936989  0.97707619  0.33575208  1
  H+  H159  1  0.37319022  0.88870205  0.00372280  1
  H+  H160  1  0.38065182  0.49661821  0.80330942  1
  H+  H161  1  0.39149070  0.61872064  0.81045717  1
  H+  H162  1  0.36823278  0.52153675  0.65165005  1
  H+  H163  1  0.90054599  0.37090140  0.30015757  1
  H+  H164  1  0.51607267  0.13740669  0.87641075  1
  H+  H165  1  0.52758369  0.37258971  0.15865646  1
  H+  H166  1  0.36520213  0.97581372  0.48842452  1
  H+  H167  1  0.86331360  0.11952384  0.82564305  1
  H+  H168  1  0.40118865  0.33874066  0.58413668  1
  H+  H169  1  0.38579633  0.11098122  1.02189714  1
  H+  H170  1  0.88418270  0.85819546  0.32549229  1
  H+  H171  1  0.86327049  0.20701020  0.31192739  1
  H+  H172  1  0.86783145  0.60869233  0.99477008  1
  H+  H173  1  0.40938500  0.08679468  0.71920135  1
  H+  H174  1  0.62894740  0.00891714  0.32159910  1
  H+  H175  1  0.13760042  0.78116166  0.31728177  1
  H+  H176  1  0.85648458  0.96001418  0.34379509  1
  H+  H177  1  0.60012779  0.86934815  0.33238080  1
  H+  H178  1  0.60558335  0.97751633  0.82118109  1
  H+  H179  1  0.72004088  0.93100298  0.88869152  1
  H+  H180  1  0.49097736  0.87289980  0.65374583  1
  H+  H181  1  0.95843475  0.61676503  0.98248190  1
  H+  H182  1  0.60752431  0.46354799  0.00704391  1
  H+  H183  1  0.38349194  0.82396923  0.16552155  1
  H+  H184  1  0.33981895  0.82486006  0.81654850  1
  H+  H185  1  0.21214529  0.36338558  0.65319116  1
  H+  H186  1  0.88586919  0.35449967  0.66829542  1
  H+  H187  1  0.86062362  0.47333018  0.00968847  1
  H+  H188  1  0.60482384  0.63387073  1.00894303  1
  H+  H189  1  0.35987004  0.13323312  0.85804951  1
  H+  H190  1  0.08500831  0.41185368  0.38648403  1
  H+  H191  1  0.77859818  0.88364513  0.01057845  1
  H+  H192  1  0.76699894  0.36880041  0.67018188  1
  H+  H193  1  0.25916609  0.88848072  0.17682624  1
  H+  H194  1  0.85970655  0.88278342  0.82446480  1
  H+  H195  1  0.84027937  0.67757364  0.68436966  1
  H+  H196  1  0.34815119  0.68531318  0.43835806  1
  H+  H197  1  0.88880862  0.09357991  0.32433982  1
  H+  H198  1  0.13612221  0.11020638  -0.00207770  1
  H+  H199  1  0.11306091  0.23179645  0.82688596  1
  H+  H200  1  0.38528026  0.28037742  0.49330719  1
  H+  H201  1  0.86488448  0.46739611  0.82568689  1
  H+  H202  1  0.02330674  0.88710047  0.33479807  1
  H+  H203  1  0.64725978  0.78256661  0.85620961  1
  H+  H204  1  1.02328564  0.87876149  0.99959455  1
  H+  H205  1  0.52656493  0.86899578  0.16532799  1
  H+  H206  1  0.63630128  0.00012537  0.99777776  1
  H+  H207  1  0.18492867  0.85468662  0.26381281  1
  H+  H208  1  0.12888344  0.01282145  0.67371779  1
  H+  H209  1  0.11935130  0.13657049  0.34479617  1
  H+  H210  1  0.12395630  0.26119927  0.31261226  1
  H+  H211  1  0.62892868  0.35258273  0.64417697  1
  H+  H212  1  0.73486033  0.85829374  0.17439820  1
  H+  H213  1  0.09452928  0.15801660  0.16314301  1
  H+  H214  1  0.36007810  0.22088318  0.01381355  1
  H+  H215  1  0.76208281  0.11394965  0.48660465  1
  H+  H216  1  0.35710843  0.24072000  0.81424840  1
  H+  H217  1  0.49927405  0.12591352  0.18221906  1
  H+  H218  1  0.39205563  0.35318895  0.98393319  1
  H+  H219  1  0.79784105  0.27036515  0.54837474  1
  H+  H220  1  0.85516322  0.47907632  0.31772627  1
  H+  H221  1  0.34232337  0.67104554  0.33970457  1
  H+  H222  1  0.34436917  0.39117844  0.65956726  1
  H+  H223  1  0.27548890  0.37766302  -0.01629628  1
  H+  H224  1  0.34439571  0.16751782  0.39401345  1
  H+  H225  1  0.74896719  0.59577057  0.68011843  1
  H+  H226  1  0.77716846  0.89926760  0.82708168  1
  H+  H227  1  0.91339046  0.91701419  0.64611679  1
  H+  H228  1  0.87740873  0.28164382  0.15317348  1
  H+  H229  1  0.64938969  0.36558932  0.85880607  1
  H+  H230  1  0.13224118  0.61898598  0.85517250  1
  H+  H231  1  0.16027630  0.86258813  0.16966821  1
  H+  H232  1  0.10158622  0.22037556  0.67060835  1
  H+  H233  1  0.37205849  0.58922884  0.92807370  1
  H+  H234  1  0.10901016  0.72085124  0.83792279  1
  H+  H235  1  0.32743093  0.91581436  0.40090278  1
  H+  H236  1  0.60618305  0.72972354  0.34279179  1
  H+  H237  1  0.22385383  0.36901644  0.82927401  1
  H+  H238  1  0.56165661  0.39515399  0.70259935  1
  H+  H239  1  0.14027383  1.02230729  0.33115290  1
  H+  H240  1  0.91579955  0.62719183  0.53931399  1
  H+  H241  1  0.90255823  0.36718369  0.84785939  1
  H+  H242  1  0.48434029  0.61611982  0.33653479  1
  H+  H243  1  0.11832991  0.97687234  0.83223073  1
  H+  H244  1  0.12323918  0.34988550  0.31347904  1
  H+  H245  1  0.10223881  0.93218211  0.15250665  1
  H+  H246  1  0.60880310  0.31801197  0.15978125  1
  H+  H247  1  0.11910897  0.38272052  0.48768154  1
  H+  H248  1  0.77985766  0.13948035  0.66320161  1
  H+  H249  1  0.69643422  0.35634616  0.48770833  1
  H+  H250  1  0.63320343  0.62390839  0.32819274  1
  H+  H251  1  0.36949352  0.27819491  0.64353679  1
  H+  H252  1  0.35482917  0.68459874  0.07720867  1
  H+  H253  1  0.61868558  0.50910012  0.64925033  1
  H+  H254  1  0.41753213  0.32215695  0.90230948  1
  H+  H255  1  1.02710132  0.62181009  0.68804983  1
  H+  H256  1  0.39505506  0.28548974  0.17541713  1
  H+  H257  1  0.57956621  0.67445037  0.40566903  1
  H+  H258  1  0.37052729  0.14587250  0.48763001  1
  H+  H259  1  0.14335815  0.85958079  0.84588036  1
  H+  H260  1  0.61419780  0.37797146  0.00225828  1
  H+  H261  1  0.27664181  0.64077132  0.49272730  1
  H+  H262  1  0.62819917  0.85089547  0.66592401  1
  H+  H263  1  0.64941791  0.15906275  0.80047929  1
  H+  H264  1  0.52084626  0.87691379  0.48728158  1
  H+  H265  1  0.74130829  0.63618420  0.15557994  1
  H+  H266  1  0.53974540  0.11631235  0.88906246  1
  H+  H267  1  0.91086624  0.78740755  0.69591717  1
  H+  H268  1  0.61241256  0.87157975  0.01363441  1
  H+  H269  1  0.13465880  0.11607498  0.84111940  1
  H+  H270  1  0.03571422  0.88285588  0.67598107  1
  H+  H271  1  0.68145754  0.12776363  0.88283890  1
  H+  H272  1  0.23624645  0.62210066  0.00229516  1
  H+  H273  1  0.28055009  0.13397614  0.33727082  1
  H+  H274  1  0.88175281  0.57213373  0.22890646  1
  H+  H275  1  0.72897395  0.85634995  0.51401040  1
  H+  H276  1  0.48082788  0.85796082  0.99320126  1
  H+  H277  1  0.89272574  0.77243134  0.83980975  1
  H+  H278  1  0.72423238  0.11489555  0.16714711  1
  H+  H279  1  0.09858255  0.12854791  0.67518901  1
  H+  H280  1  0.39077757  0.77310259  0.99477465  1
  H+  H281  1  0.84951202  0.59577901  0.16870861  1
  H+  H282  1  0.27076231  0.39792286  0.17730240  1
  H+  H283  1  0.12257198  0.64036220  0.48233589  1
  H+  H284  1  0.88681100  0.11347982  0.22044044  1
  H+  H285  1  0.15165373  0.35625711  0.99724703  1
  H+  H286  1  0.27986484  0.14385198  0.48301646  1
  H+  H287  1  0.88921000  0.85935130  -0.00467349  1
  H+  H288  1  0.41884064  0.76884138  0.35446042  1
  H+  H289  1  0.88479305  0.85603065  0.17066400  1
  H+  H290  1  0.86501711  0.36932212  0.16372277  1
  H+  H291  1  0.92780073  0.57063390  0.62035670  1
  H+  H292  1  0.45368758  0.57012995  0.85180965  1
  H+  H293  1  0.10251884  0.68662169  0.13596703  1
  H+  H294  1  0.84574275  0.97108135  0.49409261  1
  H+  H295  1  0.91219196  0.32789173  0.60713398  1
  H+  H296  1  0.91976765  0.34247686  0.21671087  1
  H+  H297  1  0.09775168  0.45752706  0.77816224  1
  H+  H298  1  0.09966049  0.24762790  0.15407971  1
  H+  H299  1  0.82792626  0.41346430  0.06857221  1
  H+  H300  1  0.90473853  0.56771542  0.89820114  1
  H+  H301  1  0.41064677  0.58386566  0.56241836  1
  H+  H302  1  0.83450517  0.92195073  0.73279372  1
  H+  H303  1  0.26647391  0.15302234  0.81484710  1
  H+  H304  1  0.33206561  0.37261063  0.79101688  1
  H+  H305  1  0.11914612  0.39449127  0.08275024  1
  H+  H306  1  0.17619225  0.83036584  0.93860987  1
  H+  H307  1  0.27683286  0.87390809  0.66279624  1
  H+  H308  1  0.59695901  0.19878462  0.10942586  1
  H+  H309  1  0.62098560  0.97444690  0.67323074  1
  H+  H310  1  0.08105740  0.16888174  0.76916311  1
  H+  H311  1  0.42718544  0.08620060  0.55751493  1
  H+  H312  1  0.35101615  0.90989818  0.10068032  1
  H+  H313  1  0.16560108  0.81953027  0.59958717  1
  H+  H314  1  0.16003205  0.33103305  0.56066895  1
  H+  H315  1  0.31347963  0.85902307  0.75876310  1
  H+  H316  1  0.09061018  0.66079730  0.74368050  1
  H+  H317  1  0.33965655  0.42370422  0.39537566  1
  H+  H318  1  0.82428304  0.64645675  0.77599719  1
  H+  H319  1  0.58272785  0.91516345  0.73278249  1
  H+  H320  1  0.57758168  0.35035393  0.76811201  1
  H+  H321  1  0.20612818  0.58905196  0.27141278  1
  H+  H322  1  0.16896589  0.08957079  0.89975881  1
  H+  H323  1  0.33162368  0.44558499  0.12426704  1
  H+  H324  1  0.98948603  0.37032983  0.30369565  1
  H+  H325  1  0.08328839  0.16966258  0.43194306  1
  H+  H326  1  0.57795929  0.90596401  0.42747707  1
  H+  H327  1  0.83032109  0.39870745  0.77115357  1
  H+  H328  1  0.60781209  0.63524210  0.49761950  1
  H+  H329  1  0.26879999  0.13380090  0.01759161  1
  H+  H330  1  0.09078376  0.91220952  0.77591524  1
  H+  H331  1  0.89375604  0.01801125  0.83889381  1
  H+  H332  1  0.41708374  0.07049693  0.26488371  1
  H+  H333  1  0.81602580  0.39278179  0.35752276  1
  H+  H334  1  0.91473509  0.83079554  0.26423053  1
  H+  H335  1  0.43100685  0.58771192  0.27050970  1
  H+  H336  1  0.94258593  0.34949660  0.90756680  1
  H+  H337  1  0.42336737  0.81520406  0.89659807  1
  H+  H338  1  0.92630785  0.05772110  0.27665893  1
  H+  H339  1  0.58017396  0.90151733  0.07186260  1
  H+  H340  1  0.92577106  0.46107950  0.44207052  1
  H+  H341  1  0.63826854  0.31331218  0.25686342  1
  H+  H342  1  0.81640917  0.89908431  0.40093747  1
  H+  H343  1  0.66213281  0.58430919  0.60113346  1
  H+  H344  1  0.66611444  0.81760326  0.57988185  1
  H+  H345  1  0.42726078  0.84088553  0.58700377  1
  H+  H346  1  0.83828628  0.15320023  0.76578074  1
  H+  H347  1  0.15388390  0.56807168  0.55993865  1
  H+  H348  1  0.16859145  0.59400449  0.92153393  1
  H+  H349  1  0.58669784  0.71282220  0.80921297  1
  H+  H350  1  0.07834066  0.67015358  0.38789372  1
  H+  H351  1  0.81618130  0.68137031  0.41686254  1
  H+  H352  1  0.66496578  0.82308935  0.26568799  1
  H+  H353  1  0.11034497  0.56656049  0.69711271  1
  H+  H354  1  0.60603580  0.17451518  0.71377706  1
  H+  H355  1  0.92741589  0.86263165  0.55211040  1
  H+  H356  1  0.34949993  0.42347610  0.03372595  1
  H+  H357  1  0.37940056  0.36802416  0.49320108  1
  H+  H358  1  0.57669989  0.40967921  0.39467828  1
  H+  H359  1  0.57771492  0.38675192  0.09530096  1
  H+  H360  1  0.62140521  0.39030928  0.76536575  1
  H+  H361  1  0.65207361  0.65607703  0.85265793  1
  H+  H362  1  0.65925211  0.07176827  0.26414673  1
  H+  H363  1  0.65829376  0.57892047  0.94123129  1
  H+  H364  1  0.16561318  0.08578117  0.27473981  1
  H+  H365  1  0.66155658  0.32737297  0.58610250  1
  H+  H366  1  0.64406407  0.24491698  0.80571353  1
  H+  H367  1  0.13713098  0.37045252  0.83970413  1
  H+  H368  1  0.07961354  0.17377866  0.06367614  1
  H+  H369  1  -0.01932938  0.11035578  0.84140185  1
  H+  H370  1  0.41215647  0.09514150  0.95946474  1
  H+  H371  1  0.84017035  0.91801451  0.10074232  1
  H+  H372  1  0.07160179  0.88780506  0.08886153  1
  H+  H373  1  0.03769152  0.42751898  0.65402502  1
  H+  H374  1  0.81633330  0.65915849  0.06796568  1
  H+  H375  1  0.33555316  0.65059537  0.76298139  1
  H+  H376  1  0.32190583  0.17816242  0.71698918  1
  H+  H377  1  0.08967206  0.91783652  0.42892100  1
  H+  H378  1  0.15607291  0.63088879  0.19585388  1
  H+  H379  1  0.67210377  0.32261619  0.93720036  1
  H+  H380  1  0.17044124  0.33075207  0.92880767  1
  H+  H381  1  0.82959302  0.17724899  0.08291364  1
  H+  H382  1  0.66386104  0.03666484  0.93206340  1
  H+  H383  1  0.34210670  0.17186307  0.10812612  1
  O2-  O384  1  0.06392740  0.18398583  0.14335599  1
  O2-  O385  1  0.08362642  0.16988759  0.47767617  1
  O2-  O386  1  0.08451395  0.16976594  0.81427837  1
  O2-  O387  1  0.13524028  0.39737971  0.15739845  1
  O2-  O388  1  0.08946975  0.41460710  0.47107847  1
  O2-  O389  1  0.09688842  0.44385089  0.82164196  1
  O2-  O390  1  0.08434792  0.66957772  0.17833117  1
  O2-  O391  1  0.09401864  0.67208844  0.46671536  1
  O2-  O392  1  0.08276178  0.65979635  0.82299280  1
  O2-  O393  1  0.06645680  0.87604455  0.13419955  1
  O2-  O394  1  0.09135193  0.91860270  0.47437281  1
  O2-  O395  1  0.08961637  0.91479793  0.82112425  1
  O2-  O396  1  0.35698041  0.17788844  0.15311346  1
  O2-  O397  1  0.34312158  0.17643771  0.46956963  1
  O2-  O398  1  0.32437767  0.18290719  0.79532202  1
  O2-  O399  1  0.33419511  0.43143063  0.16656230  1
  O2-  O400  1  0.32892138  0.42037842  0.47285062  1
  O2-  O401  1  0.31572812  0.41661760  0.79126139  1
  O2-  O402  1  0.36678920  0.70670080  0.15649559  1
  O2-  O403  1  0.33895359  0.67444987  0.48439085  1
  O2-  O404  1  0.35703235  0.65244686  0.80856435  1
  O2-  O405  1  0.35474211  0.90613841  0.14603238  1
  O2-  O406  1  0.33290885  0.91519782  0.47367132  1
  O2-  O407  1  0.29099593  0.82525550  0.79623164  1
  O2-  O408  1  0.60203643  0.19891292  0.15901616  1
  O2-  O409  1  0.58433689  0.16925280  0.46451682  1
  O2-  O410  1  0.64166629  0.20141134  0.77661263  1
  O2-  O411  1  0.57870188  0.37528378  0.13966611  1
  O2-  O412  1  0.57453561  0.42238483  0.46791142  1
  O2-  O413  1  0.60050201  0.42539150  0.87664197  1
  O2-  O414  1  0.60290434  0.65009457  0.16660130  1
  O2-  O415  1  0.58131740  0.67080720  0.48566546  1
  O2-  O416  1  0.61363702  0.71810519  0.84854845  1
  O2-  O417  1  0.58638707  0.90471354  0.15028091  1
  O2-  O418  1  0.58097273  0.90653477  0.47292041  1
  O2-  O419  1  0.58487533  0.91790210  0.80767230  1
  O2-  O420  1  0.83430126  0.18556555  0.12939606  1
  O2-  O421  1  0.82237627  0.14515579  0.47283933  1
  O2-  O422  1  0.82779477  0.14357974  0.80940462  1
  O2-  O423  1  0.80970494  0.40377668  0.14773798  1
  O2-  O424  1  0.88310405  0.44814780  0.47403466  1
  O2-  O425  1  0.83518922  0.40486356  0.81601700  1
  O2-  O426  1  0.80264389  0.65506366  0.14129515  1
  O2-  O427  1  0.82184196  0.68428856  0.46394565  1
  O2-  O428  1  0.83633205  0.66143290  0.81985286  1
  O2-  O429  1  0.83950414  0.91564310  0.14652807  1
  O2-  O430  1  0.81289018  0.90869287  0.48174562  1
  O2-  O431  1  0.83621486  0.91784841  0.80717969  1
  O2-  O432  1  0.12216881  0.08114442  0.19702450  1
  O2-  O433  1  0.18403299  0.09580011  0.50435935  1
  O2-  O434  1  0.16807463  0.08797135  0.85444357  1
  O2-  O435  1  0.16506009  0.34085411  0.17870345  1
  O2-  O436  1  0.16387561  0.33311119  0.51521691  1
  O2-  O437  1  0.16581861  0.33727471  0.85032167  1
  O2-  O438  1  0.19565775  0.60871245  0.20426398  1
  O2-  O439  1  0.16104815  0.57725108  0.51595387  1
  O2-  O440  1  0.16414183  0.58993227  0.87286777  1
  O2-  O441  1  0.20947373  0.88820832  0.19749222  1
  O2-  O442  1  0.17118521  0.83595701  0.51930946  1
  O2-  O443  1  0.16600062  0.82273639  0.86160893  1
  O2-  O444  1  0.43722489  0.08358555  0.19037195  1
  O2-  O445  1  0.42415119  0.08301621  0.51324381  1
  O2-  O446  1  0.35448638  0.10230416  0.89630639  1
  O2-  O447  1  0.42453633  0.34460070  0.19267879  1
  O2-  O448  1  0.41357763  0.34124502  0.50838386  1
  O2-  O449  1  0.42217113  0.33647624  0.85721206  1
  O2-  O450  1  0.44052094  0.60029671  0.20112370  1
  O2-  O451  1  0.41622491  0.58514761  0.51694797  1
  O2-  O452  1  0.43208539  0.56574875  0.81042167  1
  O2-  O453  1  0.41522581  0.79511488  0.18076727  1
  O2-  O454  1  0.41558915  0.83313537  0.52232731  1
  O2-  O455  1  0.42366549  0.80757300  0.85146549  1
  O2-  O456  1  0.66572525  0.08501079  0.18452979  1
  O2-  O457  1  0.65336096  0.05358066  0.52297869  1
  O2-  O458  1  0.67498379  0.09418500  0.84631199  1
  O2-  O459  1  0.64310260  0.28960069  0.17961465  1
  O2-  O460  1  0.64114519  0.32368921  0.50791323  1
  O2-  O461  1  0.67388603  0.32664267  0.86042085  1
  O2-  O462  1  0.65086112  0.60938930  0.18915725  1
  O2-  O463  1  0.66304850  0.58575557  0.51917128  1
  O2-  O464  1  0.66975666  0.60998392  0.84926340  1
  O2-  O465  1  0.67505002  0.82385562  0.19016653  1
  O2-  O466  1  0.66832858  0.81818688  0.53360356  1
  O2-  O467  1  0.69313455  0.88359363  0.85997427  1
  O2-  O468  1  0.91098024  0.08579255  0.19503456  1
  O2-  O469  1  0.91067553  0.07408139  0.51618874  1
  O2-  O470  1  0.92031121  0.07719392  0.85674040  1
  O2-  O471  1  0.90485368  0.34243632  0.17107847  1
  O2-  O472  1  0.85802365  0.30135685  0.53591296  1
  O2-  O473  1  0.94565077  0.35227715  0.86233160  1
  O2-  O474  1  0.87964057  0.56533289  0.18409910  1
  O2-  O475  1  0.94698117  0.59581986  0.54180908  1
  O2-  O476  1  0.91370369  0.57198295  0.85340405  1
  O2-  O477  1  0.90780895  0.81955184  0.18688306  1
  O2-  O478  1  0.91941655  0.85164302  0.50737234  1
  O2-  O479  1  0.91818312  0.83217551  0.85535655  1
  O2-  O480  1  0.17384036  0.08470176  0.31888764  1
  O2-  O481  1  0.13928270  0.06701878  0.65442192  1
  O2-  O482  1  0.16885881  0.08259202  0.98213462  1
  O2-  O483  1  0.14700939  0.31760175  0.29214773  1
  O2-  O484  1  0.15009265  0.32986534  0.63934546  1
  O2-  O485  1  0.17941886  0.32657034  0.97330994  1
  O2-  O486  1  0.21276972  0.57428064  0.31544834  1
  O2-  O487  1  0.12785734  0.52126217  0.70240909  1
  O2-  O488  1  0.17780268  0.60027977  0.98550708  1
  O2-  O489  1  0.17429026  0.84377912  0.30970219  1
  O2-  O490  1  0.17025135  0.81948869  0.64487002  1
  O2-  O491  1  0.17711188  0.83657178  0.98402523  1
  O2-  O492  1  0.40909397  0.06585378  0.31052186  1
  O2-  O493  1  0.41656810  0.08040120  0.67581854  1
  O2-  O494  1  0.42019312  0.08740403  1.00323284  1
  O2-  O495  1  0.41846714  0.32987131  0.31296752  1
  O2-  O496  1  0.40115539  0.33948792  0.62990136  1
  O2-  O497  1  0.41819815  0.31658879  0.97599364  1
  O2-  O498  1  0.42454897  0.57976323  0.31699703  1
  O2-  O499  1  0.40062817  0.58421484  0.63918800  1
  O2-  O500  1  0.40919471  0.58140014  0.95646036  1
  O2-  O501  1  0.48733708  0.86398760  0.32867482  1
  O2-  O502  1  0.43065197  0.84351651  0.63537404  1
  O2-  O503  1  0.42156461  0.83070238  0.97518209  1
  O2-  O504  1  0.66233081  0.07060387  0.30938584  1
  O2-  O505  1  0.68343042  0.08377135  0.64326122  1
  O2-  O506  1  0.66962557  0.05503135  0.97436751  1
  O2-  O507  1  0.65281466  0.33858777  0.29846281  1
  O2-  O508  1  0.66402353  0.32679977  0.63121708  1
  O2-  O509  1  0.67088516  0.32910785  0.98250398  1
  O2-  O510  1  0.66660621  0.60143765  0.30726975  1
  O2-  O511  1  0.65486647  0.57335137  0.64580570  1
  O2-  O512  1  0.65627246  0.57376179  0.98553571  1
  O2-  O513  1  0.65966858  0.82497160  0.31118655  1
  O2-  O514  1  0.65756380  0.81848330  0.65298813  1
  O2-  O515  1  0.67340783  0.83099370  0.98657381  1
  O2-  O516  1  0.92128339  0.06134722  0.32111050  1
  O2-  O517  1  0.91110698  0.08808944  0.64677633  1
  O2-  O518  1  0.91713908  0.07888709  0.98029969  1
  O2-  O519  1  0.93025471  0.34043697  0.28543569  1
  O2-  O520  1  0.92337890  0.33182922  0.65151805  1
  O2-  O521  1  0.93580032  0.33891571  0.98842518  1
  O2-  O522  1  0.89266501  0.58151659  0.31082803  1
  O2-  O523  1  0.91807893  0.56124603  0.66472538  1
  O2-  O524  1  0.89730507  0.57756799  0.97699972  1
  O2-  O525  1  0.91885282  0.83280312  0.30978782  1
  O2-  O526  1  0.95876652  0.91388708  0.62207973  1
  O2-  O527  1  0.91632943  0.82585844  0.98017146  1
  O2-  O528  1  0.08463275  0.16541444  0.01944923  1
  O2-  O529  1  0.08631560  0.16550646  0.35600041  1
  O2-  O530  1  0.06898146  0.16135384  0.68782806  1
  O2-  O531  1  0.11277632  0.39695855  0.03716375  1
  O2-  O532  1  0.08527414  0.41414243  0.34159662  1
  O2-  O533  1  0.09909908  0.46970640  0.64552205  1
  O2-  O534  1  0.11641859  0.69237494  0.04817101  1
  O2-  O535  1  0.06794536  0.67414454  0.34354314  1
  O2-  O536  1  0.08909389  0.65080598  0.69880439  1
  O2-  O537  1  0.08335921  0.91125246  0.01613460  1
  O2-  O538  1  0.08391829  0.91874951  0.35036949  1
  O2-  O539  1  0.09138076  0.90391030  0.69628868  1
  O2-  O540  1  0.32770703  0.16471232  0.03577225  1
  O2-  O541  1  0.34295157  0.16397563  0.34816912  1
  O2-  O542  1  0.32044678  0.17413922  0.67144742  1
  O2-  O543  1  0.34183142  0.41418027  -0.00990575  1
  O2-  O544  1  0.34990979  0.42915311  0.35055082  1
  O2-  O545  1  0.31300102  0.42072264  0.67315516  1
  O2-  O546  1  0.34470404  0.67311848  0.03279515  1
  O2-  O547  1  0.37403217  0.71150492  0.37224182  1
  O2-  O548  1  0.30756171  0.64186359  0.70100007  1
  O2-  O549  1  0.34182774  0.91524207  0.02336516  1
  O2-  O550  1  0.32434651  0.91545301  0.35442469  1
  O2-  O551  1  0.33799643  0.90260210  0.67746314  1
  O2-  O552  1  0.58560838  0.18448550  0.04654046  1
  O2-  O553  1  0.57393984  0.14468843  0.35378498  1
  O2-  O554  1  0.58832237  0.15851402  0.66867417  1
  O2-  O555  1  0.57826503  0.40177918  0.01877603  1
  O2-  O556  1  0.57282792  0.40274372  0.34862046  1
  O2-  O557  1  0.56376261  0.40241016  0.65836602  1
  O2-  O558  1  0.57847426  0.67011988  0.01604869  1
  O2-  O559  1  0.57548586  0.66989109  0.36064387  1
  O2-  O560  1  0.56090326  0.64404531  0.69835824  1
  O2-  O561  1  0.57926957  0.90029265  0.02644727  1
  O2-  O562  1  0.57419743  0.90305410  0.35053286  1
  O2-  O563  1  0.58372555  0.91383586  0.68644487  1
  O2-  O564  1  0.83040247  0.16230835  0.01290565  1
  O2-  O565  1  0.83718417  0.14481891  0.30633387  1
  O2-  O566  1  0.84262530  0.16915314  0.67829768  1
  O2-  O567  1  0.83575270  0.41319520  0.02382316  1
  O2-  O568  1  0.83138991  0.41459682  0.31627401  1
  O2-  O569  1  0.82452690  0.39270355  0.68935228  1
  O2-  O570  1  0.82193460  0.65930167  0.02192167  1
  O2-  O571  1  0.81791288  0.66896610  0.34772101  1
  O2-  O572  1  0.80758508  0.61792708  0.69886667  1
  O2-  O573  1  0.84013774  0.91429157  0.02411842  1
  O2-  O574  1  0.82179050  0.89813030  0.35600903  1
  O2-  O575  1  0.83302889  0.92771035  0.68687013  1
