# generated using pymatgen
data_H2O
_symmetry_space_group_name_H-M   'P 1'
_cell_length_a   17.99195880
_cell_length_b   18.00231589
_cell_length_c   22.00499483
_cell_angle_alpha   90.01795543
_cell_angle_beta   89.96575005
_cell_angle_gamma   120.00370113
_symmetry_Int_Tables_number   1
_chemical_formula_structural   H2O
_chemical_formula_sum   'H384 O192'
_cell_volume   6172.23499783
_cell_formula_units_Z   192
loop_
 _symmetry_equiv_pos_site_id
 _symmetry_equiv_pos_as_xyz
  1  'x, y, z'
loop_
 _atom_type_symbol
 _atom_type_oxidation_number
  H+  1.0
  O2-  -2.0
loop_
 _atom_site_type_symbol
 _atom_site_label
 _atom_site_symmetry_multiplicity
 _atom_site_fract_x
 _atom_site_fract_y
 _atom_site_fract_z
 _atom_site_occupancy
  H+  H0  1  0.79017673  0.17265775  0.99034121  1
  H+  H1  1  0.48780388  0.62004942  0.83821394  1
  H+  H2  1  0.37249646  0.76760274  -0.01663832  1
  H+  H3  1  0.66074265  0.09442736  0.56033413  1
  H+  H4  1  0.38091637  0.26394721  0.33098432  1
  H+  H5  1  0.86189869  0.85228006  0.84335741  1
  H+  H6  1  0.38570126  0.10845135  0.17164086  1
  H+  H7  1  0.64776628  0.90787930  0.49672887  1
  H+  H8  1  1.00499859  0.87945817  0.83325735  1
  H+  H9  1  0.22451213  0.86855931  0.01364180  1
  H+  H10  1  0.02604301  0.64240423  0.67400833  1
  H+  H11  1  0.63602459  0.26705980  0.83490274  1
  H+  H12  1  0.87651405  0.48780214  0.65338302  1
  H+  H13  1  0.78222514  0.13892774  0.48795418  1
  H+  H14  1  0.71476405  0.87319655  0.16339113  1
  H+  H15  1  0.90055263  0.62984023  0.66016692  1
  H+  H16  1  0.11445947  0.74179954  0.82546405  1
  H+  H17  1  0.35160587  0.12869803  0.49358939  1
  H+  H18  1  0.51757559  0.13002798  0.33856083  1
  H+  H19  1  0.59495363  0.67055347  0.09321521  1
  H+  H20  1  0.65612007  0.12244041  0.82727047  1
  H+  H21  1  0.52481480  0.62606009  -0.00291943  1
  H+  H22  1  0.72735521  0.36431048  0.33194365  1
  H+  H23  1  0.76884941  0.38771766  0.15304338  1
  H+  H24  1  0.92459684  0.86485057  0.59506547  1
  H+  H25  1  0.39473665  0.81984902  0.20020562  1
  H+  H26  1  0.66845154  0.35036661  0.57290331  1
  H+  H27  1  0.82456150  0.42168335  0.70464082  1
  H+  H28  1  0.78404819  0.90313740  0.33316059  1
  H+  H29  1  0.51208352  0.13034535  0.49060443  1
  H+  H30  1  0.89383993  0.63833976  0.50694250  1
  H+  H31  1  0.36197527  0.72414546  0.64423653  1
  H+  H32  1  0.90448883  0.28467403  0.85558851  1
  H+  H33  1  0.37219396  -0.01544993  0.99879964  1
  H+  H34  1  0.14162498  0.24688556  0.32793562  1
  H+  H35  1  0.10872156  -0.02105454  1.00274278  1
  H+  H36  1  0.01691587  0.05101504  0.36529069  1
  H+  H37  1  0.46415331  0.34057268  0.17228330  1
  H+  H38  1  0.63669589  -0.01310845  0.82392844  1
  H+  H39  1  0.89362999  0.61698760  0.98567256  1
  H+  H40  1  0.13269737  0.61310625  0.66564700  1
  H+  H41  1  1.03755236  0.13802786  0.48916294  1
  H+  H42  1  0.63721270  0.35398696  0.98916152  1
  H+  H43  1  0.13114749  0.86147631  0.83731119  1
  H+  H44  1  0.11630296  0.85499731  0.51395396  1
  H+  H45  1  0.18879299  0.58415610  0.90667734  1
  H+  H46  1  0.64308068  0.61328110  0.50359593  1
  H+  H47  1  0.63928222  0.86978813  0.32718757  1
  H+  H48  1  0.12790627  0.26885778  0.17429074  1
  H+  H49  1  0.39149845  0.86342452  0.37515474  1
  H+  H50  1  0.35898596  0.88919309  0.99876492  1
  H+  H51  1  0.11490343  0.73068864  0.67701889  1
  H+  H52  1  0.85740993  0.16175877  0.15105282  1
  H+  H53  1  0.87235532  0.72337559  0.34411477  1
  H+  H54  1  0.41112742  0.57438093  0.08191260  1
  H+  H55  1  0.62642361  0.64153155  0.82222389  1
  H+  H56  1  0.80965785  0.28998755  0.53801604  1
  H+  H57  1  0.12124220  0.11126915  0.49733775  1
  H+  H58  1  0.87272585  0.74081780  0.67196334  1
  H+  H59  1  0.62322426  0.86820322  0.16486538  1
  H+  H60  1  0.86743026  -0.00126269  0.84606606  1
  H+  H61  1  0.36308848  0.63486902  0.64147805  1
  H+  H62  1  0.26638803  0.36804555  0.34311619  1
  H+  H63  1  0.34996753  0.88909095  0.14740338  1
  H+  H64  1  0.37972006  0.12417923  0.66232077  1
  H+  H65  1  0.72410448  0.11795467  0.32427496  1
  H+  H66  1  0.35720765  0.13172252  0.34341032  1
  H+  H67  1  0.69024363  0.58030097  0.58929426  1
  H+  H68  1  0.97341704  0.12145330  0.30833573  1
  H+  H69  1  0.99388941  0.37029585  0.18006276  1
  H+  H70  1  0.08730567  0.13164973  0.16451770  1
  H+  H71  1  0.14581166  0.27061763  0.99368817  1
  H+  H72  1  0.48083423  0.62347092  0.65864340  1
  H+  H73  1  0.60636208  0.73302573  0.14984912  1
  H+  H74  1  0.38118497  0.03466888  0.65187268  1
  H+  H75  1  0.59015614  0.13626573  0.66392667  1
  H+  H76  1  0.86702934  1.03896746  0.15924416  1
  H+  H77  1  0.12822089  0.77900824  0.17033457  1
  H+  H78  1  0.64324891  0.73732918  0.82537182  1
  H+  H79  1  0.59088940  0.95909535  -0.01415026  1
  H+  H80  1  0.59706593  0.87595359  0.00253292  1
  H+  H81  1  0.34056384  0.16242181  0.08672308  1
  H+  H82  1  0.27006505  0.88524188  0.51778406  1
  H+  H83  1  0.15913615  0.52640686  0.84757232  1
  H+  H84  1  0.11860442  0.23269701  0.67521545  1
  H+  H85  1  0.87111250  0.79661560  0.19163296  1
  H+  H86  1  0.46188591  0.86160162  0.14790261  1
  H+  H87  1  0.11485355  0.47590979  0.67800936  1
  H+  H88  1  0.36866959  0.64456291  -0.00306972  1
  H+  H89  1  0.10260127  0.98289383  0.16222303  1
  H+  H90  1  0.12819970  0.77779300  0.32407824  1
  H+  H91  1  0.86168622  0.47747452  0.34117884  1
  H+  H92  1  0.86505977  0.41001278  0.49659127  1
  H+  H93  1  0.22350127  0.36779002  0.50698112  1
  H+  H94  1  0.76118077  0.87554267  0.48364396  1
  H+  H95  1  0.90122838  0.90185235  0.48518484  1
  H+  H96  1  0.35632898  0.37307112  0.16186353  1
  H+  H97  1  1.03729619  0.13653433  0.66942200  1
  H+  H98  1  0.37912295  0.51315460  0.36094673  1
  H+  H99  1  0.14397334  0.11599679  0.98929926  1
  H+  H100  1  0.14022868  0.11549982  0.70066790  1
  H+  H101  1  0.48503860  0.61233088  0.50042430  1
  H+  H102  1  1.02920169  0.14040875  1.00309746  1
  H+  H103  1  0.83421350  0.93166334  -0.04670422  1
  H+  H104  1  0.52497754  0.64125115  0.35297653  1
  H+  H105  1  0.66242437  0.37114200  0.68275855  1
  H+  H106  1  0.23015163  0.36487275  0.66104401  1
  H+  H107  1  0.02862714  0.63686419  0.00823449  1
  H+  H108  1  0.86052842  0.71890838  1.00204958  1
  H+  H109  1  0.88451909  0.59587777  0.17428305  1
  H+  H110  1  0.39869005  0.62085672  0.83598233  1
  H+  H111  1  0.77815688  0.41095585  0.50002390  1
  H+  H112  1  0.43137338  0.57485922  0.59832935  1
  H+  H113  1  0.38070243  0.01785417  0.17173775  1
  H+  H114  1  0.63761141  0.51997343  0.83349191  1
  H+  H115  1  0.88430057  0.38847379  -0.00925218  1
  H+  H116  1  0.55903978  0.90962999  0.50800983  1
  H+  H117  1  0.01752461  0.12935716  0.83221994  1
  H+  H118  1  0.88647736  0.60957560  0.33074035  1
  H+  H119  1  0.61284189  0.38857248  0.33997804  1
  H+  H120  1  0.79170602  0.15150932  0.71728521  1
  H+  H121  1  0.12044513  0.38608180  0.83138465  1
  H+  H122  1  0.01861328  0.89463365  0.67762678  1
  H+  H123  1  0.74950959  0.39290290  0.80283438  1
  H+  H124  1  0.40063819  0.12193167  0.83870107  1
  H+  H125  1  0.65363209  0.82521240  1.05926091  1
  H+  H126  1  0.11366576  0.47506442  0.17095720  1
  H+  H127  1  1.00445324  0.14155440  0.15339208  1
  H+  H128  1  0.37354147  0.25604984  0.17259717  1
  H+  H129  1  0.08290174  0.16341604  0.06420001  1
  H+  H130  1  0.59998042  0.46589828  0.49238879  1
  H+  H131  1  0.86311298  0.14732505  0.32993412  1
  H+  H132  1  0.72694208  0.60942622  0.83609851  1
  H+  H133  1  0.10997168  0.63973769  0.16537645  1
  H+  H134  1  0.90283816  0.12206286  0.49979840  1
  H+  H135  1  0.88754488  0.28806394  0.65957402  1
  H+  H136  1  0.26487993  0.12436169  0.33761059  1
  H+  H137  1  0.42336497  0.83834369  0.89088287  1
  H+  H138  1  -0.02614509  0.85402190  0.17439795  1
  H+  H139  1  0.21711507  0.60547619  0.17934088  1
  H+  H140  1  0.62583745  0.73000220  0.49363137  1
  H+  H141  1  0.13508167  0.11602206  0.83566066  1
  H+  H142  1  0.14117666  0.36484327  0.66411050  1
  H+  H143  1  0.47518788  0.60797757  0.13668689  1
  H+  H144  1  0.19960505  0.59169532  0.51695690  1
  H+  H145  1  0.14240309  0.61124774  0.00156280  1
  H+  H146  1  0.14411284  0.27581452  0.84225016  1
  H+  H147  1  0.88711859  0.28110770  0.32739056  1
  H+  H148  1  0.30687641  0.92041852  0.39995228  1
  H+  H149  1  0.40549771  0.87206377  0.82974918  1
  H+  H150  1  0.97198149  0.86093891  0.99316664  1
  H+  H151  1  0.10759939  0.89603318  0.15793812  1
  H+  H152  1  0.77401022  0.39347104  1.00027261  1
  H+  H153  1  0.13279374  0.86296963  0.01418138  1
  H+  H154  1  0.11097505  0.00424268  0.51391737  1
  H+  H155  1  0.61742129  0.38965794  0.82361202  1
  H+  H156  1  0.32144949  0.65257758  0.56027953  1
  H+  H157  1  0.69044122  0.10971597  0.65522492  1
  H+  H158  1  0.39106339  0.36375852  0.99198853  1
  H+  H159  1  0.70206369  0.06248103  0.97227865  1
  H+  H160  1  0.22129649  0.35278693  0.17672450  1
  H+  H161  1  0.88594299  0.36966844  0.32878863  1
  H+  H162  1  0.63980357  0.36534373  0.50934231  1
  H+  H163  1  0.47124790  0.35005262  0.49635817  1
  H+  H164  1  0.33693276  0.42369702  0.76686121  1
  H+  H165  1  0.57281735  0.92045863  0.09213508  1
  H+  H166  1  0.33418986  0.92167262  0.60648609  1
  H+  H167  1  0.35559563  0.68308337  0.29895155  1
  H+  H168  1  0.63407739  0.26904856  0.18085746  1
  H+  H169  1  0.83360052  0.65473923  0.05878863  1
  H+  H170  1  0.39471518  0.77783705  0.37494560  1
  H+  H171  1  0.62419445  0.10285059  0.17204214  1
  H+  H172  1  0.60209385  0.36333249  0.16042478  1
  H+  H173  1  0.36766447  -0.01707727  0.82334306  1
  H+  H174  1  0.26630532  0.88745539  0.65804409  1
  H+  H175  1  0.60865611  0.13168629  0.48873526  1
  H+  H176  1  0.35866809  0.46249091  0.14798952  1
  H+  H177  1  0.64956117  0.07017077  0.23098101  1
  H+  H178  1  0.88260679  0.09500385  0.84779636  1
  H+  H179  1  0.59157772  0.44487692  0.15437506  1
  H+  H180  1  0.02836886  0.38722842  0.67539763  1
  H+  H181  1  0.12711105  0.86169491  0.66598932  1
  H+  H182  1  0.89175597  -0.01255428  0.48254566  1
  H+  H183  1  0.88588855  0.04945708  1.00109204  1
  H+  H184  1  0.22205655  0.86418361  0.83225554  1
  H+  H185  1  0.89032443  0.28119314  0.16976745  1
  H+  H186  1  0.37916801  0.40868399  0.67618331  1
  H+  H187  1  0.78004752  0.63783259  0.34600864  1
  H+  H188  1  0.02136938  0.39784017  0.34721618  1
  H+  H189  1  0.62814464  0.55293378  0.16420764  1
  H+  H190  1  0.83071523  0.42460046  0.06245974  1
  H+  H191  1  0.89277552  0.52905493  0.98652312  1
  H+  H192  1  0.92999888  0.60680570  0.59761897  1
  H+  H193  1  0.61531492  0.46836482  1.00233966  1
  H+  H194  1  0.63840567  0.27492646  0.33091904  1
  H+  H195  1  0.10950069  0.48923281  0.34887125  1
  H+  H196  1  0.32599239  0.92864316  0.09272478  1
  H+  H197  1  0.29233480  0.15211641  0.83206797  1
  H+  H198  1  0.37317690  0.23217857  0.99880958  1
  H+  H199  1  0.14741454  0.52417254  0.00367021  1
  H+  H200  1  0.83212481  0.42365780  0.40253957  1
  H+  H201  1  0.22240644  0.61992830  0.33012949  1
  H+  H202  1  0.35975553  0.37624527  0.34135843  1
  H+  H203  1  0.61609433  0.62766977  0.99676084  1
  H+  H204  1  0.10863317  -0.02621077  0.35704990  1
  H+  H205  1  0.10880587  0.09011581  0.33665102  1
  H+  H206  1  0.37048886  0.48357924  0.82603171  1
  H+  H207  1  0.85831582  0.90943249  0.14176109  1
  H+  H208  1  0.88134427  0.17773740  0.00194391  1
  H+  H209  1  0.49600882  0.11767488  -0.01246911  1
  H+  H210  1  0.66508780  0.54659441  0.17385438  1
  H+  H211  1  0.27770839  0.38133593  0.00328913  1
  H+  H212  1  0.20949428  0.08872872  0.50615881  1
  H+  H213  1  0.63851864  0.02661449  0.33139135  1
  H+  H214  1  0.13139338  0.39099393  1.01390029  1
  H+  H215  1  0.68333093  0.79888023  0.68255673  1
  H+  H216  1  0.64797317  0.26981290  0.98879523  1
  H+  H217  1  0.68685433  0.84213256  0.43741262  1
  H+  H218  1  0.41177232  0.57172672  0.41859162  1
  H+  H219  1  0.36024599  0.48397376  0.67526569  1
  H+  H220  1  0.38707597  0.59693986  0.50930423  1
  H+  H221  1  0.89315522  0.62413298  0.83582659  1
  H+  H222  1  0.78595167  -0.08229420  0.69173829  1
  H+  H223  1  0.43163262  0.81573124  0.50717547  1
  H+  H224  1  0.13289008  1.02141948  0.69957154  1
  H+  H225  1  0.38780539  1.03165776  0.51623675  1
  H+  H226  1  0.10620355  0.88552716  0.35475110  1
  H+  H227  1  0.38021151  0.72776652  0.82130173  1
  H+  H228  1  0.85797788  0.72655590  0.82683108  1
  H+  H229  1  0.69016457  0.51944285  0.64044792  1
  H+  H230  1  0.11652665  0.38557236  0.17349106  1
  H+  H231  1  0.86126980  0.47056100  0.15596926  1
  H+  H232  1  0.86806703  0.86303535  0.65636391  1
  H+  H233  1  0.89335721  0.29927852  0.99248624  1
  H+  H234  1  0.38016776  0.24264541  0.83133040  1
  H+  H235  1  0.42945445  0.08659412  0.89509756  1
  H+  H236  1  0.51121128  0.13071908  0.16735183  1
  H+  H237  1  0.37487511  0.34926663  0.49671158  1
  H+  H238  1  0.34936011  0.62202861  0.14864227  1
  H+  H239  1  0.36585452  0.89356446  0.51811433  1
  H+  H240  1  0.79429080  0.65333112  0.15700670  1
  H+  H241  1  0.17352090  0.08139993  0.78900446  1
  H+  H242  1  0.89070683  0.70919753  0.15093906  1
  H+  H243  1  0.09915852  0.47292594  0.49649488  1
  H+  H244  1  0.21557831  0.86891078  0.16686329  1
  H+  H245  1  0.59587508  0.97270381  0.15623304  1
  H+  H246  1  0.45842163  0.85611707  0.98503533  1
  H+  H247  1  0.79233239  0.14657041  0.82860105  1
  H+  H248  1  0.88345685  0.75206209  0.49284768  1
  H+  H249  1  0.38097483  0.01961099  0.32870341  1
  H+  H250  1  0.03972874  0.89644889  0.45346754  1
  H+  H251  1  0.97597917  0.85508769  0.33940753  1
  H+  H252  1  0.99173103  0.37389753  0.84791606  1
  H+  H253  1  0.13459028  0.62391296  0.33091542  1
  H+  H254  1  0.10339316  0.63799158  0.49335914  1
  H+  H255  1  0.07519754  0.16870617  0.77239611  1
  H+  H256  1  0.23486993  0.36528351  0.84011491  1
  H+  H257  1  0.83623194  0.17173148  0.39285865  1
  H+  H258  1  1.01469219  0.64382036  0.82693416  1
  H+  H259  1  0.69179786  0.69248428  0.17847217  1
  H+  H260  1  0.48029419  0.36238119  0.98942382  1
  H+  H261  1  0.20314690  0.13885926  0.18361390  1
  H+  H262  1  0.12785738  0.77299919  0.50705181  1
  H+  H263  1  0.39393323  0.37323341  0.83524203  1
  H+  H264  1  0.29320279  0.63877426  0.82979872  1
  H+  H265  1  0.34429557  0.70737661  0.14640191  1
  H+  H266  1  0.53067135  0.13245293  0.82342220  1
  H+  H267  1  0.59269280  0.67188021  0.43546843  1
  H+  H268  1  0.27329491  0.10379506  0.13612298  1
  H+  H269  1  0.89659501  0.04030270  0.65327778  1
  H+  H270  1  0.86571791  0.22708693  0.48939570  1
  H+  H271  1  0.26021459  0.88359425  0.33774367  1
  H+  H272  1  0.36725905  0.45805213  0.49052345  1
  H+  H273  1  0.64399632  0.62323640  0.32981171  1
  H+  H274  1  0.53244144  0.89326823  0.36711621  1
  H+  H275  1  0.87907407  0.85253197  -0.00766962  1
  H+  H276  1  0.72520771  0.60347401  0.98736582  1
  H+  H277  1  0.88950911  0.54619458  0.50647232  1
  H+  H278  1  0.53216529  0.39452667  0.82082381  1
  H+  H279  1  1.11891757  0.39072300  0.49424517  1
  H+  H280  1  0.85112157  0.93343662  0.38825979  1
  H+  H281  1  0.73351548  0.61846519  0.49955611  1
  H+  H282  1  0.60861299  0.13049791  0.33960217  1
  H+  H283  1  -0.02271809  0.60601118  0.17743148  1
  H+  H284  1  0.02050363  0.64055542  0.33869016  1
  H+  H285  1  0.65133432  0.04036936  0.50226843  1
  H+  H286  1  0.88382680  0.03553607  0.31638699  1
  H+  H287  1  0.59600242  0.86336282  0.68089327  1
  H+  H288  1  0.83691797  0.67120817  0.76594938  1
  H+  H289  1  0.61186283  0.93520113  0.40914728  1
  H+  H290  1  0.84632305  0.68444924  0.43633081  1
  H+  H291  1  0.09886094  0.41705786  0.07322325  1
  H+  H292  1  0.40930021  0.31968157  0.27005341  1
  H+  H293  1  0.82902874  0.93275429  0.08159571  1
  H+  H294  1  0.90005518  0.32909571  0.56798583  1
  H+  H295  1  0.17598702  0.33260016  0.93509907  1
  H+  H296  1  0.58163866  0.16523565  0.76115444  1
  H+  H297  1  0.46341380  0.85328475  0.27210687  1
  H+  H298  1  0.47661400  0.86094067  0.67121923  1
  H+  H299  1  0.52833099  0.34658160  0.65848111  1
  H+  H300  1  0.57439806  0.41022310  0.43167898  1
  H+  H301  1  0.16402848  0.31118189  0.27303027  1
  H+  H302  1  0.42156822  0.10309261  0.56670734  1
  H+  H303  1  0.01993970  0.64766380  0.49204702  1
  H+  H304  1  0.79026082  0.64629494  0.66480658  1
  H+  H305  1  0.88071319  0.19012637  0.78749585  1
  H+  H306  1  0.38892438  0.57971949  0.25490570  1
  H+  H307  1  0.66966093  0.32816065  0.89378442  1
  H+  H308  1  0.32801537  0.68122724  0.48890899  1
  H+  H309  1  0.15614435  0.58144863  0.23709505  1
  H+  H310  1  0.57120502  0.15425733  0.42189119  1
  H+  H311  1  0.13539791  0.56864354  0.57128008  1
  H+  H312  1  0.56075503  0.18302859  0.10965382  1
  H+  H313  1  0.09296139  0.14406185  0.42925518  1
  H+  H314  1  0.94421934  -0.00769069  0.63081973  1
  H+  H315  1  0.90125811  0.82491574  0.90005464  1
  H+  H316  1  0.09612985  0.96748236  0.83069225  1
  H+  H317  1  0.11548673  0.72509441  0.02147997  1
  H+  H318  1  0.61655150  0.15161692  0.05054929  1
  H+  H319  1  0.66686969  0.33461949  0.23696727  1
  H+  H320  1  0.18240415  0.01668537  0.29196808  1
  H+  H321  1  0.66207365  0.83845891  0.26539218  1
  H+  H322  1  0.15106588  0.83024059  0.60420383  1
  H+  H323  1  0.31612267  0.15179594  0.43322384  1
  H+  H324  1  0.46243195  0.81077803  0.27087891  1
  H+  H325  1  0.27513846  0.13329831  0.69423043  1
  H+  H326  1  0.93475322  0.08350785  0.55459064  1
  H+  H327  1  0.06619293  0.90217722  0.74132086  1
  H+  H328  1  0.15634963  0.83990364  0.26572645  1
  H+  H329  1  0.59151344  0.91617016  0.73690060  1
  H+  H330  1  0.69551456  0.10459793  0.88853841  1
  H+  H331  1  0.21862756  0.61032208  0.64855675  1
  H+  H332  1  0.92391957  0.58967071  0.89298412  1
  H+  H333  1  0.08904661  0.41605593  0.77299216  1
  H+  H334  1  0.27866115  0.63930125  0.00601931  1
  H+  H335  1  0.08217590  0.42236325  0.42644338  1
  H+  H336  1  0.33367758  0.40666859  0.06378074  1
  H+  H337  1  0.08039013  0.67327019  0.76426833  1
  H+  H338  1  0.42263044  0.58156334  0.92883074  1
  H+  H339  1  0.37387427  0.25294532  0.49633756  1
  H+  H340  1  0.84345373  0.20742015  0.09326834  1
  H+  H341  1  0.68978250  0.88487888  0.83170265  1
  H+  H342  1  0.08081845  0.67604383  0.39772790  1
  H+  H343  1  0.83511300  0.48277002  0.79853137  1
  H+  H344  1  0.89971603  0.09357008  0.22094223  1
  H+  H345  1  0.64423866  0.53619803  0.32054600  1
  H+  H346  1  0.32733212  0.39621955  0.43202540  1
  H+  H347  1  0.91543968  0.57778253  0.27041369  1
  H+  H348  1  0.93236403  0.81603839  0.27549503  1
  H+  H349  1  0.38914594  0.51730551  -0.01346890  1
  H+  H350  1  0.28666211  0.14016083  -0.00248635  1
  H+  H351  1  0.41153803  0.07868016  0.26932857  1
  H+  H352  1  0.91684397  0.08726389  0.93565463  1
  H+  H353  1  0.75679741  0.87660395  -0.00263459  1
  H+  H354  1  0.54870526  0.89668148  0.82841708  1
  H+  H355  1  0.61570560  0.01245741  0.65270175  1
  H+  H356  1  0.92570207  0.35861257  0.92735064  1
  H+  H357  1  0.58907548  0.68849785  0.73439658  1
  H+  H358  1  0.50586808  0.14210676  0.67067396  1
  H+  H359  1  0.61144918  0.73169317  0.33836943  1
  H+  H360  1  0.79405615  0.87609070  0.75335131  1
  H+  H361  1  0.15741673  0.08288960  0.24294198  1
  H+  H362  1  0.62654676  0.75749306  1.00706330  1
  H+  H363  1  0.89858044  0.38064997  0.65167887  1
  H+  H364  1  0.36090079  0.63190328  0.35455043  1
  H+  H365  1  0.35308054  0.17631152  0.73840373  1
  H+  H366  1  0.66548818  0.57374002  0.92766994  1
  H+  H367  1  0.07360682  0.92559765  0.06461592  1
  H+  H368  1  0.33798042  0.92641956  0.76384835  1
  H+  H369  1  0.07825423  0.66420214  0.10494979  1
  H+  H370  1  0.16761643  0.34768162  0.56771999  1
  H+  H371  1  0.76122582  0.21826807  0.72335947  1
  H+  H372  1  0.44241423  0.85040013  0.57628122  1
  H+  H373  1  0.64525069  0.13885408  0.98526498  1
  H+  H374  1  0.52255122  0.38503764  0.33857748  1
  H+  H375  1  0.39105073  0.53948162  0.25036129  1
  H+  H376  1  0.42435300  0.34451837  0.89515501  1
  H+  H377  1  0.72438143  0.67073933  0.23847648  1
  H+  H378  1  0.92335952  0.33885643  0.23948022  1
  H+  H379  1  0.60310982  0.27471168  0.66353459  1
  H+  H380  1  0.17239514  0.08462977  0.93044439  1
  H+  H381  1  0.40940828  0.12480858  -0.01103963  1
  H+  H382  1  0.38770894  0.86284435  0.65925629  1
  H+  H383  1  0.58113951  0.40304439  0.05994106  1
  O2-  O384  1  0.06650174  0.16611868  0.14244057  1
  O2-  O385  1  0.09748273  0.15481460  0.47440377  1
  O2-  O386  1  0.07725672  0.16658354  0.81776493  1
  O2-  O387  1  0.08406877  0.41324158  0.15740096  1
  O2-  O388  1  0.08130109  0.41566340  0.47644989  1
  O2-  O389  1  0.08895033  0.41590284  0.81828635  1
  O2-  O390  1  0.07880513  0.66923377  0.15076153  1
  O2-  O391  1  0.08119767  0.67459570  0.47672591  1
  O2-  O392  1  0.07861567  0.67708260  0.81060508  1
  O2-  O393  1  0.07468955  0.92464413  0.14411733  1
  O2-  O394  1  0.04161253  0.89870107  0.49877189  1
  O2-  O395  1  0.06578450  0.90622328  0.81825512  1
  O2-  O396  1  0.33131723  0.15268614  0.13255081  1
  O2-  O397  1  0.31560559  0.15346914  0.47935241  1
  O2-  O398  1  0.35304839  0.17990660  0.81961515  1
  O2-  O399  1  0.32343737  0.39895721  0.14415709  1
  O2-  O400  1  0.33130584  0.39682393  0.47837319  1
  O2-  O401  1  0.33793182  0.42218636  0.81243076  1
  O2-  O402  1  0.32054064  0.65134597  0.16663614  1
  O2-  O403  1  0.31246613  0.63254477  0.51558028  1
  O2-  O404  1  0.35141034  0.66664812  0.80990120  1
  O2-  O405  1  0.32318284  0.92519984  0.13845794  1
  O2-  O406  1  0.33282469  0.92347079  0.52435035  1
  O2-  O407  1  0.33613520  0.92203978  0.80804555  1
  O2-  O408  1  0.57118346  0.16660523  0.14960407  1
  O2-  O409  1  0.57132636  0.15453430  0.47034751  1
  O2-  O410  1  0.59012078  0.16294586  0.80589968  1
  O2-  O411  1  0.56532164  0.38506042  0.14067683  1
  O2-  O412  1  0.56756794  0.40578376  0.47725749  1
  O2-  O413  1  0.59322141  0.42478953  0.80805130  1
  O2-  O414  1  0.58938326  0.67308164  0.13820751  1
  O2-  O415  1  0.58991792  0.66928109  0.48108288  1
  O2-  O416  1  0.60301476  0.67952715  0.80908856  1
  O2-  O417  1  0.56774541  0.91288063  0.13690459  1
  O2-  O418  1  0.61689500  0.94005532  0.48857468  1
  O2-  O419  1  0.60867632  0.92524309  0.81192343  1
  O2-  O420  1  0.84080668  0.20462919  0.13858296  1
  O2-  O421  1  0.84242996  0.16759054  0.47320350  1
  O2-  O422  1  0.85799104  0.17382027  0.82845353  1
  O2-  O423  1  0.82561399  0.41637569  0.13314374  1
  O2-  O424  1  0.83742027  0.44193523  0.48114583  1
  O2-  O425  1  0.79352209  0.43427810  0.77403442  1
  O2-  O426  1  0.84339781  0.65260055  0.13665354  1
  O2-  O427  1  0.84589671  0.68971503  0.48182066  1
  O2-  O428  1  0.83433739  0.66661028  0.81114032  1
  O2-  O429  1  0.82290555  0.93211557  0.12616496  1
  O2-  O430  1  0.86557289  0.92740943  0.46769900  1
  O2-  O431  1  0.80512487  0.89812841  0.81882610  1
  O2-  O432  1  0.14836900  0.09042740  0.19626648  1
  O2-  O433  1  0.14964995  0.06760052  0.52126842  1
  O2-  O434  1  0.16761915  0.08426680  0.83460340  1
  O2-  O435  1  0.16220745  0.32592607  0.19440024  1
  O2-  O436  1  0.16629229  0.35331491  0.52257479  1
  O2-  O437  1  0.17530920  0.33563149  0.85769124  1
  O2-  O438  1  0.15483428  0.57758351  0.19189101  1
  O2-  O439  1  0.13751639  0.56846277  0.52532189  1
  O2-  O440  1  0.19586732  0.58590419  0.86182749  1
  O2-  O441  1  0.15643175  0.84023217  0.18439855  1
  O2-  O442  1  0.15463662  0.83240087  0.52514629  1
  O2-  O443  1  0.16188158  0.82978161  0.84661804  1
  O2-  O444  1  0.41292935  0.07760336  0.19042744  1
  O2-  O445  1  0.42084756  0.09554933  0.52069749  1
  O2-  O446  1  0.42651654  0.08554802  0.84969854  1
  O2-  O447  1  0.40469786  0.31490581  0.18938179  1
  O2-  O448  1  0.40718883  0.31638514  0.50896378  1
  O2-  O449  1  0.42517943  0.34350558  0.84991494  1
  O2-  O450  1  0.41288462  0.57260495  0.12624570  1
  O2-  O451  1  0.42254793  0.56872975  0.50625334  1
  O2-  O452  1  0.42781521  0.58824565  0.85292249  1
  O2-  O453  1  0.39824674  0.83033310  0.15653311  1
  O2-  O454  1  0.45256931  0.86745743  0.53167729  1
  O2-  O455  1  0.43803429  0.84581233  0.84647348  1
  O2-  O456  1  0.64428973  0.06409905  0.18615904  1
  O2-  O457  1  0.67037308  0.10113810  0.51527986  1
  O2-  O458  1  0.69235657  0.09806869  0.84145200  1
  O2-  O459  1  0.66258920  0.33099112  0.19150663  1
  O2-  O460  1  0.68045226  0.35118152  0.52902628  1
  O2-  O461  1  0.66467954  0.32787614  0.84875230  1
  O2-  O462  1  0.74456490  0.70424164  0.20045162  1
  O2-  O463  1  0.67310526  0.58092806  0.51321302  1
  O2-  O464  1  0.66647017  0.58094228  0.85093123  1
  O2-  O465  1  0.65530764  0.83841810  0.17835729  1
  O2-  O466  1  0.69633973  0.84669989  0.48128224  1
  O2-  O467  1  0.71819992  0.85345771  0.84731252  1
  O2-  O468  1  0.89929386  0.09799727  0.17548676  1
  O2-  O469  1  0.93713567  0.09385438  0.51014402  1
  O2-  O470  1  0.90691155  0.05902853  0.86199765  1
  O2-  O471  1  0.92973338  0.34117472  0.19344147  1
  O2-  O472  1  0.87022854  0.31556765  0.52712656  1
  O2-  O473  1  0.93117464  0.34660289  0.86420689  1
  O2-  O474  1  0.91701789  0.57062353  0.19350323  1
  O2-  O475  1  0.92403014  0.60677962  0.52123770  1
  O2-  O476  1  0.92541860  0.59391500  0.84732646  1
  O2-  O477  1  0.92800860  0.80225051  0.19554635  1
  O2-  O478  1  0.94820518  0.85731189  0.51767781  1
  O2-  O479  1  0.89979697  0.82754289  0.85479910  1
  O2-  O480  1  0.17505020  0.06416645  0.30583413  1
  O2-  O481  1  0.16893076  0.08247539  0.71271875  1
  O2-  O482  1  0.17519740  0.08596722  0.97499154  1
  O2-  O483  1  0.16853629  0.30756691  0.31798528  1
  O2-  O484  1  0.16924639  0.33370121  0.64630801  1
  O2-  O485  1  0.17851517  0.33172375  0.98061565  1
  O2-  O486  1  0.16135260  0.58916636  0.31742215  1
  O2-  O487  1  0.15471940  0.57749084  0.64631613  1
  O2-  O488  1  0.17591200  0.58434387  0.98707155  1
  O2-  O489  1  0.15878243  0.83973038  0.31119623  1
  O2-  O490  1  0.15799896  0.83257211  0.64942380  1
  O2-  O491  1  0.16243320  0.83013533  1.02091179  1
  O2-  O492  1  0.41401104  0.08048585  0.31477876  1
  O2-  O493  1  0.41197673  0.09631752  0.64062328  1
  O2-  O494  1  0.43548682  0.09101975  0.97333460  1
  O2-  O495  1  0.41265142  0.32427223  0.31523693  1
  O2-  O496  1  0.46780985  0.33581440  0.66111781  1
  O2-  O497  1  0.41947251  0.33238550  0.97472366  1
  O2-  O498  1  0.40937471  0.57491851  0.37394427  1
  O2-  O499  1  0.42216006  0.58672982  0.64044638  1
  O2-  O500  1  0.42262668  0.57909916  0.97486054  1
  O2-  O501  1  0.42459484  0.83736715  0.39081108  1
  O2-  O502  1  0.42022136  0.83312184  0.64885230  1
  O2-  O503  1  0.40004162  0.82919037  0.96763123  1
  O2-  O504  1  0.66188848  0.08500311  0.31306749  1
  O2-  O505  1  0.63484399  0.07050579  0.63554800  1
  O2-  O506  1  0.70625240  0.11552052  0.95782692  1
  O2-  O507  1  0.66702819  0.33455568  0.31547774  1
  O2-  O508  1  0.61971842  0.33531162  0.65247644  1
  O2-  O509  1  0.67318397  0.32990856  0.97386939  1
  O2-  O510  1  0.67783224  0.59856147  0.31212864  1
  O2-  O511  1  0.70292604  0.57796597  0.63331705  1
  O2-  O512  1  0.66396356  0.57231046  0.97363002  1
  O2-  O513  1  0.66586334  0.83682530  0.31027252  1
  O2-  O514  1  0.62259693  0.77660439  0.66886559  1
  O2-  O515  1  0.65358974  0.82220664  1.01487209  1
  O2-  O516  1  0.91258025  0.09579042  0.29760618  1
  O2-  O517  1  0.94535231  0.04832666  0.62889100  1
  O2-  O518  1  0.92271528  0.10363274  0.97997654  1
  O2-  O519  1  0.91893004  0.34217655  0.31298952  1
  O2-  O520  1  0.92688031  0.34424834  0.64152384  1
  O2-  O521  1  0.91982505  0.36085265  0.97567096  1
  O2-  O522  1  0.91748590  0.57936956  0.31606283  1
  O2-  O523  1  0.93109069  0.60101801  0.64299875  1
  O2-  O524  1  0.92610532  0.58897775  0.97054048  1
  O2-  O525  1  0.92040558  0.81743311  0.31923174  1
  O2-  O526  1  0.92570604  0.88042537  0.63922926  1
  O2-  O527  1  0.91102594  0.82420788  0.97857490  1
  O2-  O528  1  0.08860219  0.16312696  0.01899171  1
  O2-  O529  1  0.06832198  0.10626389  0.35734845  1
  O2-  O530  1  0.08833426  0.17373854  0.69417329  1
  O2-  O531  1  0.10420074  0.42363308  0.02872100  1
  O2-  O532  1  0.07984110  0.42939713  0.36554407  1
  O2-  O533  1  0.08766919  0.41529542  0.69250165  1
  O2-  O534  1  0.08498115  0.66134852  0.02926141  1
  O2-  O535  1  0.08208548  0.67618435  0.35225222  1
  O2-  O536  1  0.08556145  0.67019835  0.69262248  1
  O2-  O537  1  0.07221216  0.92020351  0.01943010  1
  O2-  O538  1  0.07793915  0.91489052  0.37454822  1
  O2-  O539  1  0.07499689  0.91079295  0.69617718  1
  O2-  O540  1  0.34649223  0.17072097  0.01360093  1
  O2-  O541  1  0.32409387  0.15899505  0.35814330  1
  O2-  O542  1  0.33894941  0.16571634  0.69446542  1
  O2-  O543  1  0.33898726  0.41324923  0.01873151  1
  O2-  O544  1  0.32708312  0.40236149  0.35961434  1
  O2-  O545  1  0.33414327  0.42337865  0.68895251  1
  O2-  O546  1  0.34196864  0.67590253  0.01450398  1
  O2-  O547  1  0.33803023  0.67029126  0.34145881  1
  O2-  O548  1  0.32825281  0.66284298  0.63111571  1
  O2-  O549  1  0.33755035  0.92629057  0.01666602  1
  O2-  O550  1  0.31885803  0.91384830  0.35767458  1
  O2-  O551  1  0.33033508  0.91886068  0.65169740  1
  O2-  O552  1  0.60707565  0.15982231  0.00806505  1
  O2-  O553  1  0.57701299  0.15951351  0.35657886  1
  O2-  O554  1  0.56840781  0.17092351  0.68390436  1
  O2-  O555  1  0.58401882  0.40637408  0.01482931  1
  O2-  O556  1  0.58238494  0.41888360  0.35439686  1
  O2-  O557  1  0.47174955  0.41222664  0.65425324  1
  O2-  O558  1  0.58555820  0.65761957  0.01308107  1
  O2-  O559  1  0.58822538  0.67408149  0.35804371  1
  O2-  O560  1  0.57902712  0.68654940  0.68897416  1
  O2-  O561  1  0.56655682  0.90828114  0.01168516  1
  O2-  O562  1  0.59669998  0.92585372  0.36509583  1
  O2-  O563  1  0.58038972  0.90732756  0.69168509  1
  O2-  O564  1  0.84872860  0.20633047  0.01380458  1
  O2-  O565  1  0.83180840  0.17502704  0.34783983  1
  O2-  O566  1  0.78197516  0.19197980  0.69402340  1
  O2-  O567  1  0.83438612  0.42733748  0.01581932  1
  O2-  O568  1  0.83057792  0.41695201  0.35731271  1
  O2-  O569  1  0.84513765  0.42517707  0.66188487  1
  O2-  O570  1  0.83037413  0.65689992  0.01348498  1
  O2-  O571  1  0.83991654  0.66242502  0.36131380  1
  O2-  O572  1  0.84741680  0.68188516  0.68676259  1
  O2-  O573  1  0.82139682  0.91363733  -0.00419445  1
  O2-  O574  1  0.84375573  0.94417260  0.34498515  1
  O2-  O575  1  0.78799950  0.86717984  0.70518463  1
